MODEL 1
REMARK VINA RESULT:      -9.0      0.000      0.000
REMARK  Name = 
REMARK  3 active torsions:
REMARK  status: ('A' for Active; 'I' for Inactive)
REMARK    1  A    between atoms: C_2  and  C_13
REMARK    2  A    between atoms: N_3  and  C_4
REMARK    3  A    between atoms: N_17  and  C_18
REMARK                            x       y       z     vdW  Elec       q    Type
REMARK                         _______ _______ _______ _____ _____    ______ ____
ROOT
ATOM      1  O   UNL     1       6.969   7.751  17.084  0.00  0.00    +0.000 OA
ATOM      2  C   UNL     1       7.692   7.308  17.974  0.00  0.00    +0.000 C 
ATOM      3  N   UNL     1       8.545   8.051  18.772  0.00  0.00    +0.000 N 
ATOM      4  H   UNL     1       9.188   7.550  19.374  0.00  0.00    +0.000 HD
ENDROOT
BRANCH   3   5
ATOM      5  C   UNL     1       8.747   9.449  18.723  0.00  0.00    +0.000 A 
ATOM      6  C   UNL     1       8.247  10.265  17.695  0.00  0.00    +0.000 A 
ATOM      7  C   UNL     1       8.521  11.636  17.661  0.00  0.00    +0.000 A 
ATOM      8  C   UNL     1       9.296  12.180  18.666  0.00  0.00    +0.000 A 
ATOM      9  C   UNL     1       9.783  11.384  19.706  0.00  0.00    +0.000 A 
ATOM     10  C   UNL     1       9.506  10.025  19.755  0.00  0.00    +0.000 A 
ATOM     11  C   UNL     1      10.658  12.186  20.619  0.00  0.00    +0.000 C 
ATOM     12  C   UNL     1      10.235  13.618  20.259  0.00  0.00    +0.000 C 
ATOM     13  C   UNL     1       9.784  13.589  18.792  0.00  0.00    +0.000 C 
ENDBRANCH   3   5
BRANCH   2  14
ATOM     14  C   UNL     1       7.666   5.807  18.259  0.00  0.00    +0.000 C 
ATOM     15  C   UNL     1       7.217   5.012  17.047  0.00  0.00    +0.000 C 
ATOM     16  C   UNL     1       5.730   4.852  17.267  0.00  0.00    +0.000 C 
ATOM     17  O   UNL     1       4.963   4.499  16.387  0.00  0.00    +0.000 OA
ATOM     18  N   UNL     1       5.456   5.152  18.613  0.00  0.00    +0.000 N 
ATOM     19  C   UNL     1       6.679   5.419  19.340  0.00  0.00    +0.000 C 
BRANCH  18  20
ATOM     20  C   UNL     1       4.183   5.072  19.246  0.00  0.00    +0.000 A 
ATOM     21  C   UNL     1       3.365   6.205  19.374  0.00  0.00    +0.000 A 
ATOM     22  C   UNL     1       2.110   6.133  19.991  0.00  0.00    +0.000 A 
ATOM     23  C   UNL     1       1.643   4.924  20.497  0.00  0.00    +0.000 A 
ATOM     24  C   UNL     1       2.438   3.790  20.397  0.00  0.00    +0.000 A 
ATOM     25  C   UNL     1       3.690   3.867  19.783  0.00  0.00    +0.000 A 
ATOM     26  F   UNL     1       4.399   2.731  19.699  0.00  0.00    +0.000 F 
ENDBRANCH  18  20
ENDBRANCH   2  14
TORSDOF 3
ENDMDL
MODEL 2
REMARK VINA RESULT:      -8.7      0.987      1.366
REMARK  Name = 
REMARK  3 active torsions:
REMARK  status: ('A' for Active; 'I' for Inactive)
REMARK    1  A    between atoms: C_2  and  C_13
REMARK    2  A    between atoms: N_3  and  C_4
REMARK    3  A    between atoms: N_17  and  C_18
REMARK                            x       y       z     vdW  Elec       q    Type
REMARK                         _______ _______ _______ _____ _____    ______ ____
ROOT
ATOM      1  O   UNL     1       7.136   7.701  16.917  0.00  0.00    +0.000 OA
ATOM      2  C   UNL     1       7.746   7.275  17.895  0.00  0.00    +0.000 C 
ATOM      3  N   UNL     1       8.510   8.030  18.769  0.00  0.00    +0.000 N 
ATOM      4  H   UNL     1       9.072   7.538  19.454  0.00  0.00    +0.000 HD
ENDROOT
BRANCH   3   5
ATOM      5  C   UNL     1       8.733   9.424  18.709  0.00  0.00    +0.000 A 
ATOM      6  C   UNL     1       8.219  10.245  17.692  0.00  0.00    +0.000 A 
ATOM      7  C   UNL     1       8.515  11.611  17.644  0.00  0.00    +0.000 A 
ATOM      8  C   UNL     1       9.326  12.146  18.627  0.00  0.00    +0.000 A 
ATOM      9  C   UNL     1       9.827  11.345  19.656  0.00  0.00    +0.000 A 
ATOM     10  C   UNL     1       9.529   9.991  19.718  0.00  0.00    +0.000 A 
ATOM     11  C   UNL     1      10.739  12.136  20.542  0.00  0.00    +0.000 C 
ATOM     12  C   UNL     1      10.330  13.574  20.188  0.00  0.00    +0.000 C 
ATOM     13  C   UNL     1       9.839  13.547  18.734  0.00  0.00    +0.000 C 
ENDBRANCH   3   5
BRANCH   2  14
ATOM     14  C   UNL     1       7.668   5.781  18.213  0.00  0.00    +0.000 C 
ATOM     15  C   UNL     1       7.187   4.977  17.019  0.00  0.00    +0.000 C 
ATOM     16  C   UNL     1       5.696   4.874  17.248  0.00  0.00    +0.000 C 
ATOM     17  O   UNL     1       4.914   4.530  16.377  0.00  0.00    +0.000 OA
ATOM     18  N   UNL     1       5.439   5.212  18.587  0.00  0.00    +0.000 N 
ATOM     19  C   UNL     1       6.673   5.452  19.305  0.00  0.00    +0.000 C 
BRANCH  18  20
ATOM     20  C   UNL     1       4.165   5.190  19.226  0.00  0.00    +0.000 A 
ATOM     21  C   UNL     1       3.768   4.097  20.012  0.00  0.00    +0.000 A 
ATOM     22  C   UNL     1       2.520   4.071  20.647  0.00  0.00    +0.000 A 
ATOM     23  C   UNL     1       1.638   5.137  20.510  0.00  0.00    +0.000 A 
ATOM     24  C   UNL     1       2.000   6.226  19.726  0.00  0.00    +0.000 A 
ATOM     25  C   UNL     1       3.244   6.246  19.093  0.00  0.00    +0.000 A 
ATOM     26  F   UNL     1       3.542   7.336  18.369  0.00  0.00    +0.000 F 
ENDBRANCH  18  20
ENDBRANCH   2  14
TORSDOF 3
ENDMDL
MODEL 3
REMARK VINA RESULT:      -8.7      1.472      1.756
REMARK  Name = 
REMARK  3 active torsions:
REMARK  status: ('A' for Active; 'I' for Inactive)
REMARK    1  A    between atoms: C_2  and  C_13
REMARK    2  A    between atoms: N_3  and  C_4
REMARK    3  A    between atoms: N_17  and  C_18
REMARK                            x       y       z     vdW  Elec       q    Type
REMARK                         _______ _______ _______ _____ _____    ______ ____
ROOT
ATOM      1  O   UNL     1       7.042   7.534  17.152  0.00  0.00    +0.000 OA
ATOM      2  C   UNL     1       7.723   7.157  18.103  0.00  0.00    +0.000 C 
ATOM      3  N   UNL     1       8.540   7.956  18.884  0.00  0.00    +0.000 N 
ATOM      4  H   UNL     1       9.155   7.501  19.549  0.00  0.00    +0.000 HD
ENDROOT
BRANCH   3   5
ATOM      5  C   UNL     1       8.746   9.348  18.745  0.00  0.00    +0.000 A 
ATOM      6  C   UNL     1       8.200  10.107  17.696  0.00  0.00    +0.000 A 
ATOM      7  C   UNL     1       8.479  11.472  17.569  0.00  0.00    +0.000 A 
ATOM      8  C   UNL     1       9.303  12.067  18.504  0.00  0.00    +0.000 A 
ATOM      9  C   UNL     1       9.835  11.329  19.564  0.00  0.00    +0.000 A 
ATOM     10  C   UNL     1       9.555   9.977  19.705  0.00  0.00    +0.000 A 
ATOM     11  C   UNL     1      10.756  12.176  20.387  0.00  0.00    +0.000 C 
ATOM     12  C   UNL     1      10.323  13.588  19.964  0.00  0.00    +0.000 C 
ATOM     13  C   UNL     1       9.802  13.478  18.525  0.00  0.00    +0.000 C 
ENDBRANCH   3   5
BRANCH   2  14
ATOM     14  C   UNL     1       7.682   5.680  18.493  0.00  0.00    +0.000 C 
ATOM     15  C   UNL     1       7.901   4.775  17.294  0.00  0.00    +0.000 C 
ATOM     16  C   UNL     1       6.496   4.462  16.835  0.00  0.00    +0.000 C 
ATOM     17  O   UNL     1       6.249   3.978  15.742  0.00  0.00    +0.000 OA
ATOM     18  N   UNL     1       5.614   4.800  17.874  0.00  0.00    +0.000 N 
ATOM     19  C   UNL     1       6.342   5.242  19.045  0.00  0.00    +0.000 C 
BRANCH  18  20
ATOM     20  C   UNL     1       4.202   4.611  17.869  0.00  0.00    +0.000 A 
ATOM     21  C   UNL     1       3.643   3.326  17.793  0.00  0.00    +0.000 A 
ATOM     22  C   UNL     1       2.256   3.132  17.792  0.00  0.00    +0.000 A 
ATOM     23  C   UNL     1       1.394   4.221  17.865  0.00  0.00    +0.000 A 
ATOM     24  C   UNL     1       1.920   5.505  17.927  0.00  0.00    +0.000 A 
ATOM     25  C   UNL     1       3.303   5.693  17.925  0.00  0.00    +0.000 A 
ATOM     26  F   UNL     1       3.747   6.957  18.008  0.00  0.00    +0.000 F 
ENDBRANCH  18  20
ENDBRANCH   2  14
TORSDOF 3
ENDMDL
MODEL 4
REMARK VINA RESULT:      -8.6      1.224      1.231
REMARK  Name = 
REMARK  3 active torsions:
REMARK  status: ('A' for Active; 'I' for Inactive)
REMARK    1  A    between atoms: C_2  and  C_13
REMARK    2  A    between atoms: N_3  and  C_4
REMARK    3  A    between atoms: N_17  and  C_18
REMARK                            x       y       z     vdW  Elec       q    Type
REMARK                         _______ _______ _______ _____ _____    ______ ____
ROOT
ATOM      1  O   UNL     1       6.913   7.553  17.125  0.00  0.00    +0.000 OA
ATOM      2  C   UNL     1       7.638   7.139  18.027  0.00  0.00    +0.000 C 
ATOM      3  N   UNL     1       8.496   7.907  18.797  0.00  0.00    +0.000 N 
ATOM      4  H   UNL     1       9.139   7.425  19.414  0.00  0.00    +0.000 HD
ENDROOT
BRANCH   3   5
ATOM      5  C   UNL     1       8.702   9.301  18.698  0.00  0.00    +0.000 A 
ATOM      6  C   UNL     1       8.163  10.090  17.668  0.00  0.00    +0.000 A 
ATOM      7  C   UNL     1       8.443  11.458  17.581  0.00  0.00    +0.000 A 
ATOM      8  C   UNL     1       9.261  12.027  18.538  0.00  0.00    +0.000 A 
ATOM      9  C   UNL     1       9.786  11.259  19.580  0.00  0.00    +0.000 A 
ATOM     10  C   UNL     1       9.505   9.904  19.681  0.00  0.00    +0.000 A 
ATOM     11  C   UNL     1      10.701  12.083  20.432  0.00  0.00    +0.000 C 
ATOM     12  C   UNL     1      10.271  13.506  20.047  0.00  0.00    +0.000 C 
ATOM     13  C   UNL     1       9.759  13.436  18.601  0.00  0.00    +0.000 C 
ENDBRANCH   3   5
BRANCH   2  14
ATOM     14  C   UNL     1       7.608   5.649  18.366  0.00  0.00    +0.000 C 
ATOM     15  C   UNL     1       7.783   4.788  17.129  0.00  0.00    +0.000 C 
ATOM     16  C   UNL     1       6.363   4.492  16.707  0.00  0.00    +0.000 C 
ATOM     17  O   UNL     1       6.076   4.048  15.607  0.00  0.00    +0.000 OA
ATOM     18  N   UNL     1       5.518   4.793  17.788  0.00  0.00    +0.000 N 
ATOM     19  C   UNL     1       6.287   5.193  18.948  0.00  0.00    +0.000 C 
BRANCH  18  20
ATOM     20  C   UNL     1       4.106   4.606  17.825  0.00  0.00    +0.000 A 
ATOM     21  C   UNL     1       3.234   5.696  17.966  0.00  0.00    +0.000 A 
ATOM     22  C   UNL     1       1.845   5.520  17.998  0.00  0.00    +0.000 A 
ATOM     23  C   UNL     1       1.294   4.247  17.892  0.00  0.00    +0.000 A 
ATOM     24  C   UNL     1       2.135   3.149  17.766  0.00  0.00    +0.000 A 
ATOM     25  C   UNL     1       3.519   3.329  17.737  0.00  0.00    +0.000 A 
ATOM     26  F   UNL     1       4.275   2.230  17.591  0.00  0.00    +0.000 F 
ENDBRANCH  18  20
ENDBRANCH   2  14
TORSDOF 3
ENDMDL
MODEL 5
REMARK VINA RESULT:      -8.5      5.162      6.916
REMARK  Name = 
REMARK  3 active torsions:
REMARK  status: ('A' for Active; 'I' for Inactive)
REMARK    1  A    between atoms: C_2  and  C_13
REMARK    2  A    between atoms: N_3  and  C_4
REMARK    3  A    between atoms: N_17  and  C_18
REMARK                            x       y       z     vdW  Elec       q    Type
REMARK                         _______ _______ _______ _____ _____    ______ ____
ROOT
ATOM      1  O   UNL     1       6.475   4.130  18.640  0.00  0.00    +0.000 OA
ATOM      2  C   UNL     1       5.299   4.200  18.291  0.00  0.00    +0.000 C 
ATOM      3  N   UNL     1       4.844   4.348  16.992  0.00  0.00    +0.000 N 
ATOM      4  H   UNL     1       3.858   4.532  16.852  0.00  0.00    +0.000 HD
ENDROOT
BRANCH   3   5
ATOM      5  C   UNL     1       5.635   4.442  15.825  0.00  0.00    +0.000 A 
ATOM      6  C   UNL     1       6.773   5.262  15.727  0.00  0.00    +0.000 A 
ATOM      7  C   UNL     1       7.491   5.365  14.531  0.00  0.00    +0.000 A 
ATOM      8  C   UNL     1       7.062   4.637  13.439  0.00  0.00    +0.000 A 
ATOM      9  C   UNL     1       5.945   3.802  13.527  0.00  0.00    +0.000 A 
ATOM     10  C   UNL     1       5.234   3.684  14.713  0.00  0.00    +0.000 A 
ATOM     11  C   UNL     1       5.638   3.190  12.196  0.00  0.00    +0.000 C 
ATOM     12  C   UNL     1       6.970   3.391  11.458  0.00  0.00    +0.000 C 
ATOM     13  C   UNL     1       7.616   4.652  12.049  0.00  0.00    +0.000 C 
ENDBRANCH   3   5
BRANCH   2  14
ATOM     14  C   UNL     1       4.211   4.111  19.361  0.00  0.00    +0.000 C 
ATOM     15  C   UNL     1       2.920   3.540  18.804  0.00  0.00    +0.000 C 
ATOM     16  C   UNL     1       2.131   4.771  18.424  0.00  0.00    +0.000 C 
ATOM     17  O   UNL     1       1.149   4.733  17.701  0.00  0.00    +0.000 OA
ATOM     18  N   UNL     1       2.720   5.877  19.061  0.00  0.00    +0.000 N 
ATOM     19  C   UNL     1       3.807   5.458  19.920  0.00  0.00    +0.000 C 
BRANCH  18  20
ATOM     20  C   UNL     1       2.250   7.221  19.008  0.00  0.00    +0.000 A 
ATOM     21  C   UNL     1       2.438   8.010  17.863  0.00  0.00    +0.000 A 
ATOM     22  C   UNL     1       1.975   9.330  17.802  0.00  0.00    +0.000 A 
ATOM     23  C   UNL     1       1.313   9.894  18.888  0.00  0.00    +0.000 A 
ATOM     24  C   UNL     1       1.127   9.141  20.040  0.00  0.00    +0.000 A 
ATOM     25  C   UNL     1       1.593   7.826  20.097  0.00  0.00    +0.000 A 
ATOM     26  F   UNL     1       1.361   7.145  21.229  0.00  0.00    +0.000 F 
ENDBRANCH  18  20
ENDBRANCH   2  14
TORSDOF 3
ENDMDL
MODEL 6
REMARK VINA RESULT:      -8.4      5.285      6.855
REMARK  Name = 
REMARK  3 active torsions:
REMARK  status: ('A' for Active; 'I' for Inactive)
REMARK    1  A    between atoms: C_2  and  C_13
REMARK    2  A    between atoms: N_3  and  C_4
REMARK    3  A    between atoms: N_17  and  C_18
REMARK                            x       y       z     vdW  Elec       q    Type
REMARK                         _______ _______ _______ _____ _____    ______ ____
ROOT
ATOM      1  O   UNL     1       0.679   4.232  20.060  0.00  0.00    +0.000 OA
ATOM      2  C   UNL     1       1.841   4.380  19.691  0.00  0.00    +0.000 C 
ATOM      3  N   UNL     1       2.510   5.587  19.577  0.00  0.00    +0.000 N 
ATOM      4  H   UNL     1       3.420   5.585  19.131  0.00  0.00    +0.000 HD
ENDROOT
BRANCH   3   5
ATOM      5  C   UNL     1       1.993   6.871  19.862  0.00  0.00    +0.000 A 
ATOM      6  C   UNL     1       1.368   7.199  21.077  0.00  0.00    +0.000 A 
ATOM      7  C   UNL     1       0.821   8.468  21.291  0.00  0.00    +0.000 A 
ATOM      8  C   UNL     1       0.910   9.404  20.280  0.00  0.00    +0.000 A 
ATOM      9  C   UNL     1       1.547   9.099  19.075  0.00  0.00    +0.000 A 
ATOM     10  C   UNL     1       2.104   7.846  18.858  0.00  0.00    +0.000 A 
ATOM     11  C   UNL     1       1.440  10.245  18.117  0.00  0.00    +0.000 C 
ATOM     12  C   UNL     1       1.092  11.400  19.068  0.00  0.00    +0.000 C 
ATOM     13  C   UNL     1       0.332  10.784  20.250  0.00  0.00    +0.000 C 
ENDBRANCH   3   5
BRANCH   2  14
ATOM     14  C   UNL     1       2.658   3.140  19.327  0.00  0.00    +0.000 C 
ATOM     15  C   UNL     1       3.973   3.091  20.082  0.00  0.00    +0.000 C 
ATOM     16  C   UNL     1       4.948   3.738  19.126  0.00  0.00    +0.000 C 
ATOM     17  O   UNL     1       6.053   4.125  19.466  0.00  0.00    +0.000 OA
ATOM     18  N   UNL     1       4.352   3.767  17.853  0.00  0.00    +0.000 N 
ATOM     19  C   UNL     1       3.068   3.099  17.870  0.00  0.00    +0.000 C 
BRANCH  18  20
ATOM     20  C   UNL     1       4.957   4.248  16.656  0.00  0.00    +0.000 A 
ATOM     21  C   UNL     1       5.615   3.374  15.776  0.00  0.00    +0.000 A 
ATOM     22  C   UNL     1       6.208   3.838  14.595  0.00  0.00    +0.000 A 
ATOM     23  C   UNL     1       6.159   5.189  14.267  0.00  0.00    +0.000 A 
ATOM     24  C   UNL     1       5.527   6.078  15.128  0.00  0.00    +0.000 A 
ATOM     25  C   UNL     1       4.939   5.611  16.305  0.00  0.00    +0.000 A 
ATOM     26  F   UNL     1       4.326   6.517  17.081  0.00  0.00    +0.000 F 
ENDBRANCH  18  20
ENDBRANCH   2  14
TORSDOF 3
ENDMDL
MODEL 7
REMARK VINA RESULT:      -8.4      5.324      6.885
REMARK  Name = 
REMARK  3 active torsions:
REMARK  status: ('A' for Active; 'I' for Inactive)
REMARK    1  A    between atoms: C_2  and  C_13
REMARK    2  A    between atoms: N_3  and  C_4
REMARK    3  A    between atoms: N_17  and  C_18
REMARK                            x       y       z     vdW  Elec       q    Type
REMARK                         _______ _______ _______ _____ _____    ______ ____
ROOT
ATOM      1  O   UNL     1       0.745   4.468  20.299  0.00  0.00    +0.000 OA
ATOM      2  C   UNL     1       1.836   4.585  19.745  0.00  0.00    +0.000 C 
ATOM      3  N   UNL     1       2.446   5.779  19.398  0.00  0.00    +0.000 N 
ATOM      4  H   UNL     1       3.280   5.736  18.823  0.00  0.00    +0.000 HD
ENDROOT
BRANCH   3   5
ATOM      5  C   UNL     1       1.942   7.081  19.614  0.00  0.00    +0.000 A 
ATOM      6  C   UNL     1       1.903   8.069  18.616  0.00  0.00    +0.000 A 
ATOM      7  C   UNL     1       1.447   9.362  18.893  0.00  0.00    +0.000 A 
ATOM      8  C   UNL     1       1.028   9.653  20.177  0.00  0.00    +0.000 A 
ATOM      9  C   UNL     1       1.041   8.675  21.174  0.00  0.00    +0.000 A 
ATOM     10  C   UNL     1       1.480   7.386  20.905  0.00  0.00    +0.000 A 
ATOM     11  C   UNL     1       0.620   9.256  22.488  0.00  0.00    +0.000 C 
ATOM     12  C   UNL     1      -0.085  10.543  22.035  0.00  0.00    +0.000 C 
ATOM     13  C   UNL     1       0.583  10.973  20.721  0.00  0.00    +0.000 C 
ENDBRANCH   3   5
BRANCH   2  14
ATOM     14  C   UNL     1       2.622   3.321  19.401  0.00  0.00    +0.000 C 
ATOM     15  C   UNL     1       3.938   3.255  20.155  0.00  0.00    +0.000 C 
ATOM     16  C   UNL     1       4.925   3.862  19.186  0.00  0.00    +0.000 C 
ATOM     17  O   UNL     1       6.040   4.230  19.518  0.00  0.00    +0.000 OA
ATOM     18  N   UNL     1       4.328   3.883  17.914  0.00  0.00    +0.000 N 
ATOM     19  C   UNL     1       3.029   3.245  17.945  0.00  0.00    +0.000 C 
BRANCH  18  20
ATOM     20  C   UNL     1       4.941   4.328  16.708  0.00  0.00    +0.000 A 
ATOM     21  C   UNL     1       5.606   3.430  15.859  0.00  0.00    +0.000 A 
ATOM     22  C   UNL     1       6.207   3.860  14.669  0.00  0.00    +0.000 A 
ATOM     23  C   UNL     1       6.160   5.200  14.301  0.00  0.00    +0.000 A 
ATOM     24  C   UNL     1       5.521   6.113  15.130  0.00  0.00    +0.000 A 
ATOM     25  C   UNL     1       4.925   5.680  16.316  0.00  0.00    +0.000 A 
ATOM     26  F   UNL     1       4.305   6.608  17.061  0.00  0.00    +0.000 F 
ENDBRANCH  18  20
ENDBRANCH   2  14
TORSDOF 3
ENDMDL
MODEL 8
REMARK VINA RESULT:      -8.4      4.272      6.948
REMARK  Name = 
REMARK  3 active torsions:
REMARK  status: ('A' for Active; 'I' for Inactive)
REMARK    1  A    between atoms: C_2  and  C_13
REMARK    2  A    between atoms: N_3  and  C_4
REMARK    3  A    between atoms: N_17  and  C_18
REMARK                            x       y       z     vdW  Elec       q    Type
REMARK                         _______ _______ _______ _____ _____    ______ ____
ROOT
ATOM      1  O   UNL     1       4.790   7.194  15.205  0.00  0.00    +0.000 OA
ATOM      2  C   UNL     1       5.413   6.578  16.067  0.00  0.00    +0.000 C 
ATOM      3  N   UNL     1       6.287   5.527  15.844  0.00  0.00    +0.000 N 
ATOM      4  H   UNL     1       6.630   5.016  16.649  0.00  0.00    +0.000 HD
ENDROOT
BRANCH   3   5
ATOM      5  C   UNL     1       6.632   4.965  14.594  0.00  0.00    +0.000 A 
ATOM      6  C   UNL     1       7.722   5.406  13.824  0.00  0.00    +0.000 A 
ATOM      7  C   UNL     1       7.990   4.857  12.566  0.00  0.00    +0.000 A 
ATOM      8  C   UNL     1       7.160   3.860  12.091  0.00  0.00    +0.000 A 
ATOM      9  C   UNL     1       6.086   3.397  12.855  0.00  0.00    +0.000 A 
ATOM     10  C   UNL     1       5.819   3.928  14.109  0.00  0.00    +0.000 A 
ATOM     11  C   UNL     1       5.296   2.380  12.091  0.00  0.00    +0.000 C 
ATOM     12  C   UNL     1       6.303   1.969  11.007  0.00  0.00    +0.000 C 
ATOM     13  C   UNL     1       7.201   3.188  10.755  0.00  0.00    +0.000 C 
ENDBRANCH   3   5
BRANCH   2  14
ATOM     14  C   UNL     1       5.240   6.989  17.529  0.00  0.00    +0.000 C 
ATOM     15  C   UNL     1       6.183   6.227  18.443  0.00  0.00    +0.000 C 
ATOM     16  C   UNL     1       5.347   5.056  18.906  0.00  0.00    +0.000 C 
ATOM     17  O   UNL     1       5.826   4.071  19.444  0.00  0.00    +0.000 OA
ATOM     18  N   UNL     1       4.001   5.346  18.626  0.00  0.00    +0.000 N 
ATOM     19  C   UNL     1       3.864   6.680  18.080  0.00  0.00    +0.000 C 
BRANCH  18  20
ATOM     20  C   UNL     1       2.883   4.526  18.952  0.00  0.00    +0.000 A 
ATOM     21  C   UNL     1       2.195   4.689  20.164  0.00  0.00    +0.000 A 
ATOM     22  C   UNL     1       1.091   3.890  20.490  0.00  0.00    +0.000 A 
ATOM     23  C   UNL     1       0.651   2.907  19.611  0.00  0.00    +0.000 A 
ATOM     24  C   UNL     1       1.323   2.714  18.411  0.00  0.00    +0.000 A 
ATOM     25  C   UNL     1       2.424   3.511  18.091  0.00  0.00    +0.000 A 
ATOM     26  F   UNL     1       3.015   3.289  16.907  0.00  0.00    +0.000 F 
ENDBRANCH  18  20
ENDBRANCH   2  14
TORSDOF 3
ENDMDL
MODEL 9
REMARK VINA RESULT:      -8.3      4.366      7.018
REMARK  Name = 
REMARK  3 active torsions:
REMARK  status: ('A' for Active; 'I' for Inactive)
REMARK    1  A    between atoms: C_2  and  C_13
REMARK    2  A    between atoms: N_3  and  C_4
REMARK    3  A    between atoms: N_17  and  C_18
REMARK                            x       y       z     vdW  Elec       q    Type
REMARK                         _______ _______ _______ _____ _____    ______ ____
ROOT
ATOM      1  O   UNL     1       4.755   7.161  15.184  0.00  0.00    +0.000 OA
ATOM      2  C   UNL     1       5.340   6.522  16.056  0.00  0.00    +0.000 C 
ATOM      3  N   UNL     1       6.208   5.465  15.844  0.00  0.00    +0.000 N 
ATOM      4  H   UNL     1       6.517   4.935  16.651  0.00  0.00    +0.000 HD
ENDROOT
BRANCH   3   5
ATOM      5  C   UNL     1       6.590   4.920  14.597  0.00  0.00    +0.000 A 
ATOM      6  C   UNL     1       7.686   5.389  13.853  0.00  0.00    +0.000 A 
ATOM      7  C   UNL     1       7.991   4.855  12.596  0.00  0.00    +0.000 A 
ATOM      8  C   UNL     1       7.191   3.846  12.097  0.00  0.00    +0.000 A 
ATOM      9  C   UNL     1       6.110   3.356  12.834  0.00  0.00    +0.000 A 
ATOM     10  C   UNL     1       5.808   3.871  14.087  0.00  0.00    +0.000 A 
ATOM     11  C   UNL     1       5.356   2.330  12.046  0.00  0.00    +0.000 C 
ATOM     12  C   UNL     1       6.393   1.949  10.979  0.00  0.00    +0.000 C 
ATOM     13  C   UNL     1       7.272   3.188  10.756  0.00  0.00    +0.000 C 
ENDBRANCH   3   5
BRANCH   2  14
ATOM     14  C   UNL     1       5.121   6.910  17.518  0.00  0.00    +0.000 C 
ATOM     15  C   UNL     1       6.071   6.172  18.443  0.00  0.00    +0.000 C 
ATOM     16  C   UNL     1       5.269   4.966  18.876  0.00  0.00    +0.000 C 
ATOM     17  O   UNL     1       5.772   3.993  19.413  0.00  0.00    +0.000 OA
ATOM     18  N   UNL     1       3.920   5.211  18.569  0.00  0.00    +0.000 N 
ATOM     19  C   UNL     1       3.746   6.545  18.035  0.00  0.00    +0.000 C 
BRANCH  18  20
ATOM     20  C   UNL     1       2.825   4.347  18.862  0.00  0.00    +0.000 A 
ATOM     21  C   UNL     1       2.538   3.240  18.049  0.00  0.00    +0.000 A 
ATOM     22  C   UNL     1       1.467   2.384  18.334  0.00  0.00    +0.000 A 
ATOM     23  C   UNL     1       0.655   2.617  19.439  0.00  0.00    +0.000 A 
ATOM     24  C   UNL     1       0.908   3.714  20.253  0.00  0.00    +0.000 A 
ATOM     25  C   UNL     1       1.975   4.566  19.963  0.00  0.00    +0.000 A 
ATOM     26  F   UNL     1       2.179   5.594  20.801  0.00  0.00    +0.000 F 
ENDBRANCH  18  20
ENDBRANCH   2  14
TORSDOF 3
ENDMDL
