MODEL 1
REMARK VINA RESULT:      -8.3      0.000      0.000
REMARK  Name = 
REMARK  5 active torsions:
REMARK  status: ('A' for Active; 'I' for Inactive)
REMARK    1  A    between atoms: C_1  and  C_2
REMARK    2  A    between atoms: C_2  and  N_3
REMARK    3  A    between atoms: C_2  and  C_18
REMARK    4  A    between atoms: C_4  and  C_6
REMARK    5  A    between atoms: C_9  and  C_10
REMARK                            x       y       z     vdW  Elec       q    Type
REMARK                         _______ _______ _______ _____ _____    ______ ____
ROOT
ATOM      1  N   UNL     1       4.220   5.917  17.257  0.00  0.00    +0.000 N 
ATOM      2  C   UNL     1       3.092   5.987  18.039  0.00  0.00    +0.000 C 
ATOM      3  O   UNL     1       2.574   4.983  18.521  0.00  0.00    +0.000 OA
ATOM      4  H   UNL     1       4.519   6.764  16.781  0.00  0.00    +0.000 HD
ENDROOT
BRANCH   2   5
ATOM      5  C   UNL     1       2.572   7.325  18.250  0.00  0.00    +0.000 A 
ATOM      6  C   UNL     1       2.634   8.441  17.439  0.00  0.00    +0.000 A 
ATOM      7  C   UNL     1       1.941   9.474  18.109  0.00  0.00    +0.000 A 
ATOM      8  C   UNL     1       1.496   8.947  19.306  0.00  0.00    +0.000 A 
ATOM      9  O   UNL     1       1.879   7.633  19.395  0.00  0.00    +0.000 OA
BRANCH   8  10
ATOM     10  C   UNL     1       0.753   9.506  20.438  0.00  0.00    +0.000 A 
ATOM     11  C   UNL     1       0.796   8.873  21.695  0.00  0.00    +0.000 A 
ATOM     12  C   UNL     1       0.053   9.361  22.775  0.00  0.00    +0.000 A 
ATOM     13  C   UNL     1      -0.736  10.490  22.606  0.00  0.00    +0.000 A 
ATOM     14  F   UNL     1      -1.464  10.946  23.633  0.00  0.00    +0.000 F 
ATOM     15  C   UNL     1      -0.783  11.148  21.383  0.00  0.00    +0.000 A 
ATOM     16  C   UNL     1      -0.038  10.659  20.304  0.00  0.00    +0.000 A 
ENDBRANCH   8  10
ENDBRANCH   2   5
BRANCH   1  18
ATOM     17  C   UNL     1       5.409   3.992  18.166  0.00  0.00    +0.000 C 
ATOM     18  C   UNL     1       4.869   4.664  16.907  0.00  0.00    +0.000 C 
BRANCH  18  19
ATOM     19  C   UNL     1       5.976   4.968  15.951  0.00  0.00    +0.000 A 
ATOM     20  N   UNL     1       7.043   5.703  16.211  0.00  0.00    +0.000 NA
ATOM     21  N   UNL     1       7.816   5.761  15.078  0.00  0.00    +0.000 NA
ATOM     22  C   UNL     1       7.218   5.055  14.146  0.00  0.00    +0.000 A 
ATOM     23  C   UNL     1       7.554   4.772  12.793  0.00  0.00    +0.000 A 
ATOM     24  C   UNL     1       6.753   3.972  12.062  0.00  0.00    +0.000 A 
ATOM     25  C   UNL     1       5.547   3.386  12.629  0.00  0.00    +0.000 A 
ATOM     26  C   UNL     1       5.217   3.666  13.902  0.00  0.00    +0.000 A 
ATOM     27  N   UNL     1       6.048   4.504  14.651  0.00  0.00    +0.000 N 
ENDBRANCH  18  19
ENDBRANCH   1  18
TORSDOF 4
ENDMDL
MODEL 2
REMARK VINA RESULT:      -8.3      1.084      1.346
REMARK  Name = 
REMARK  5 active torsions:
REMARK  status: ('A' for Active; 'I' for Inactive)
REMARK    1  A    between atoms: C_1  and  C_2
REMARK    2  A    between atoms: C_2  and  N_3
REMARK    3  A    between atoms: C_2  and  C_18
REMARK    4  A    between atoms: C_4  and  C_6
REMARK    5  A    between atoms: C_9  and  C_10
REMARK                            x       y       z     vdW  Elec       q    Type
REMARK                         _______ _______ _______ _____ _____    ______ ____
ROOT
ATOM      1  N   UNL     1       3.914   5.556  18.640  0.00  0.00    +0.000 N 
ATOM      2  C   UNL     1       2.638   5.880  18.246  0.00  0.00    +0.000 C 
ATOM      3  O   UNL     1       1.878   5.046  17.760  0.00  0.00    +0.000 OA
ATOM      4  H   UNL     1       4.534   6.315  18.908  0.00  0.00    +0.000 HD
ENDROOT
BRANCH   2   5
ATOM      5  C   UNL     1       2.264   7.267  18.452  0.00  0.00    +0.000 A 
ATOM      6  C   UNL     1       2.478   8.372  17.654  0.00  0.00    +0.000 A 
ATOM      7  C   UNL     1       1.883   9.474  18.311  0.00  0.00    +0.000 A 
ATOM      8  C   UNL     1       1.342   8.994  19.488  0.00  0.00    +0.000 A 
ATOM      9  O   UNL     1       1.573   7.644  19.577  0.00  0.00    +0.000 OA
BRANCH   8  10
ATOM     10  C   UNL     1       0.630   9.626  20.601  0.00  0.00    +0.000 A 
ATOM     11  C   UNL     1       0.256   8.866  21.726  0.00  0.00    +0.000 A 
ATOM     12  C   UNL     1      -0.470   9.439  22.774  0.00  0.00    +0.000 A 
ATOM     13  C   UNL     1      -0.823  10.779  22.708  0.00  0.00    +0.000 A 
ATOM     14  F   UNL     1      -1.536  11.323  23.702  0.00  0.00    +0.000 F 
ATOM     15  C   UNL     1      -0.452  11.559  21.620  0.00  0.00    +0.000 A 
ATOM     16  C   UNL     1       0.275  10.984  20.572  0.00  0.00    +0.000 A 
ENDBRANCH   8  10
ENDBRANCH   2   5
BRANCH   1  18
ATOM     17  C   UNL     1       4.725   3.603  19.857  0.00  0.00    +0.000 C 
ATOM     18  C   UNL     1       4.481   4.226  18.485  0.00  0.00    +0.000 C 
BRANCH  18  19
ATOM     19  C   UNL     1       5.761   4.356  17.726  0.00  0.00    +0.000 A 
ATOM     20  N   UNL     1       6.971   4.421  18.254  0.00  0.00    +0.000 NA
ATOM     21  N   UNL     1       7.883   4.552  17.236  0.00  0.00    +0.000 NA
ATOM     22  C   UNL     1       7.222   4.555  16.102  0.00  0.00    +0.000 A 
ATOM     23  C   UNL     1       7.640   4.667  14.747  0.00  0.00    +0.000 A 
ATOM     24  C   UNL     1       6.725   4.605  13.760  0.00  0.00    +0.000 A 
ATOM     25  C   UNL     1       5.310   4.424  14.050  0.00  0.00    +0.000 A 
ATOM     26  C   UNL     1       4.909   4.335  15.330  0.00  0.00    +0.000 A 
ATOM     27  N   UNL     1       5.863   4.409  16.349  0.00  0.00    +0.000 N 
ENDBRANCH  18  19
ENDBRANCH   1  18
TORSDOF 4
ENDMDL
MODEL 3
REMARK VINA RESULT:      -8.2      1.354      2.000
REMARK  Name = 
REMARK  5 active torsions:
REMARK  status: ('A' for Active; 'I' for Inactive)
REMARK    1  A    between atoms: C_1  and  C_2
REMARK    2  A    between atoms: C_2  and  N_3
REMARK    3  A    between atoms: C_2  and  C_18
REMARK    4  A    between atoms: C_4  and  C_6
REMARK    5  A    between atoms: C_9  and  C_10
REMARK                            x       y       z     vdW  Elec       q    Type
REMARK                         _______ _______ _______ _____ _____    ______ ____
ROOT
ATOM      1  N   UNL     1       3.622   5.685  19.062  0.00  0.00    +0.000 N 
ATOM      2  C   UNL     1       2.484   6.079  18.398  0.00  0.00    +0.000 C 
ATOM      3  O   UNL     1       1.842   5.302  17.695  0.00  0.00    +0.000 OA
ATOM      4  H   UNL     1       4.178   6.405  19.515  0.00  0.00    +0.000 HD
ENDROOT
BRANCH   2   5
ATOM      5  C   UNL     1       2.106   7.466  18.595  0.00  0.00    +0.000 A 
ATOM      6  C   UNL     1       2.368   8.577  17.819  0.00  0.00    +0.000 A 
ATOM      7  C   UNL     1       1.743   9.676  18.452  0.00  0.00    +0.000 A 
ATOM      8  C   UNL     1       1.136   9.189  19.593  0.00  0.00    +0.000 A 
ATOM      9  O   UNL     1       1.356   7.838  19.683  0.00  0.00    +0.000 OA
BRANCH   8  10
ATOM     10  C   UNL     1       0.367   9.815  20.671  0.00  0.00    +0.000 A 
ATOM     11  C   UNL     1      -0.247  11.066  20.468  0.00  0.00    +0.000 A 
ATOM     12  C   UNL     1      -0.942  11.705  21.500  0.00  0.00    +0.000 A 
ATOM     13  C   UNL     1      -1.031  11.093  22.742  0.00  0.00    +0.000 A 
ATOM     14  F   UNL     1      -1.679  11.713  23.737  0.00  0.00    +0.000 F 
ATOM     15  C   UNL     1      -0.452   9.851  22.967  0.00  0.00    +0.000 A 
ATOM     16  C   UNL     1       0.241   9.213  21.933  0.00  0.00    +0.000 A 
ENDBRANCH   8  10
ENDBRANCH   2   5
BRANCH   1  18
ATOM     17  C   UNL     1       4.308   3.735  20.355  0.00  0.00    +0.000 C 
ATOM     18  C   UNL     1       4.176   4.345  18.962  0.00  0.00    +0.000 C 
BRANCH  18  19
ATOM     19  C   UNL     1       5.511   4.446  18.300  0.00  0.00    +0.000 A 
ATOM     20  N   UNL     1       6.681   4.482  18.914  0.00  0.00    +0.000 NA
ATOM     21  N   UNL     1       7.667   4.592  17.966  0.00  0.00    +0.000 NA
ATOM     22  C   UNL     1       7.090   4.613  16.787  0.00  0.00    +0.000 A 
ATOM     23  C   UNL     1       7.609   4.718  15.466  0.00  0.00    +0.000 A 
ATOM     24  C   UNL     1       6.767   4.680  14.415  0.00  0.00    +0.000 A 
ATOM     25  C   UNL     1       5.331   4.531  14.600  0.00  0.00    +0.000 A 
ATOM     26  C   UNL     1       4.835   4.450  15.848  0.00  0.00    +0.000 A 
ATOM     27  N   UNL     1       5.714   4.499  16.934  0.00  0.00    +0.000 N 
ENDBRANCH  18  19
ENDBRANCH   1  18
TORSDOF 4
ENDMDL
MODEL 4
REMARK VINA RESULT:      -8.2      4.564     10.251
REMARK  Name = 
REMARK  5 active torsions:
REMARK  status: ('A' for Active; 'I' for Inactive)
REMARK    1  A    between atoms: C_1  and  C_2
REMARK    2  A    between atoms: C_2  and  N_3
REMARK    3  A    between atoms: C_2  and  C_18
REMARK    4  A    between atoms: C_4  and  C_6
REMARK    5  A    between atoms: C_9  and  C_10
REMARK                            x       y       z     vdW  Elec       q    Type
REMARK                         _______ _______ _______ _____ _____    ______ ____
ROOT
ATOM      1  N   UNL     1       1.140   9.821  19.757  0.00  0.00    +0.000 N 
ATOM      2  C   UNL     1       1.548   9.262  18.570  0.00  0.00    +0.000 C 
ATOM      3  O   UNL     1       1.350   9.814  17.491  0.00  0.00    +0.000 OA
ATOM      4  H   UNL     1       1.214   9.255  20.597  0.00  0.00    +0.000 HD
ENDROOT
BRANCH   2   5
ATOM      5  C   UNL     1       2.229   7.986  18.693  0.00  0.00    +0.000 A 
ATOM      6  C   UNL     1       2.245   7.086  19.739  0.00  0.00    +0.000 A 
ATOM      7  C   UNL     1       3.040   5.992  19.327  0.00  0.00    +0.000 A 
ATOM      8  C   UNL     1       3.484   6.279  18.051  0.00  0.00    +0.000 A 
ATOM      9  O   UNL     1       2.989   7.497  17.660  0.00  0.00    +0.000 OA
BRANCH   8  10
ATOM     10  C   UNL     1       4.351   5.574  17.104  0.00  0.00    +0.000 A 
ATOM     11  C   UNL     1       5.055   6.291  16.118  0.00  0.00    +0.000 A 
ATOM     12  C   UNL     1       5.847   5.632  15.173  0.00  0.00    +0.000 A 
ATOM     13  C   UNL     1       5.945   4.248  15.210  0.00  0.00    +0.000 A 
ATOM     14  F   UNL     1       6.686   3.614  14.293  0.00  0.00    +0.000 F 
ATOM     15  C   UNL     1       5.278   3.514  16.183  0.00  0.00    +0.000 A 
ATOM     16  C   UNL     1       4.487   4.176  17.129  0.00  0.00    +0.000 A 
ENDBRANCH   8  10
ENDBRANCH   2   5
BRANCH   1  18
ATOM     17  C   UNL     1       1.377  12.245  19.627  0.00  0.00    +0.000 C 
ATOM     18  C   UNL     1       0.414  11.079  19.835  0.00  0.00    +0.000 C 
BRANCH  18  19
ATOM     19  C   UNL     1      -0.231  11.157  21.180  0.00  0.00    +0.000 A 
ATOM     20  N   UNL     1       0.266  10.676  22.306  0.00  0.00    +0.000 NA
ATOM     21  N   UNL     1      -0.626  10.931  23.318  0.00  0.00    +0.000 NA
ATOM     22  C   UNL     1      -1.649  11.571  22.801  0.00  0.00    +0.000 A 
ATOM     23  C   UNL     1      -2.854  12.073  23.368  0.00  0.00    +0.000 A 
ATOM     24  C   UNL     1      -3.732  12.733  22.588  0.00  0.00    +0.000 A 
ATOM     25  C   UNL     1      -3.475  12.946  21.170  0.00  0.00    +0.000 A 
ATOM     26  C   UNL     1      -2.347  12.456  20.627  0.00  0.00    +0.000 A 
ATOM     27  N   UNL     1      -1.444  11.765  21.441  0.00  0.00    +0.000 N 
ENDBRANCH  18  19
ENDBRANCH   1  18
TORSDOF 4
ENDMDL
MODEL 5
REMARK VINA RESULT:      -8.2      3.062      3.925
REMARK  Name = 
REMARK  5 active torsions:
REMARK  status: ('A' for Active; 'I' for Inactive)
REMARK    1  A    between atoms: C_1  and  C_2
REMARK    2  A    between atoms: C_2  and  N_3
REMARK    3  A    between atoms: C_2  and  C_18
REMARK    4  A    between atoms: C_4  and  C_6
REMARK    5  A    between atoms: C_9  and  C_10
REMARK                            x       y       z     vdW  Elec       q    Type
REMARK                         _______ _______ _______ _____ _____    ______ ____
ROOT
ATOM      1  N   UNL     1       2.203   6.402  19.007  0.00  0.00    +0.000 N 
ATOM      2  C   UNL     1       2.086   7.769  18.921  0.00  0.00    +0.000 C 
ATOM      3  O   UNL     1       2.472   8.391  17.934  0.00  0.00    +0.000 OA
ATOM      4  H   UNL     1       1.990   5.965  19.899  0.00  0.00    +0.000 HD
ENDROOT
BRANCH   2   5
ATOM      5  C   UNL     1       1.474   8.408  20.071  0.00  0.00    +0.000 A 
ATOM      6  C   UNL     1       1.581   8.109  21.414  0.00  0.00    +0.000 A 
ATOM      7  C   UNL     1       0.804   9.063  22.110  0.00  0.00    +0.000 A 
ATOM      8  C   UNL     1       0.248   9.897  21.159  0.00  0.00    +0.000 A 
ATOM      9  O   UNL     1       0.657   9.500  19.911  0.00  0.00    +0.000 OA
BRANCH   8  10
ATOM     10  C   UNL     1      -0.659  11.045  21.232  0.00  0.00    +0.000 A 
ATOM     11  C   UNL     1      -1.076  11.540  22.482  0.00  0.00    +0.000 A 
ATOM     12  C   UNL     1      -1.983  12.600  22.573  0.00  0.00    +0.000 A 
ATOM     13  C   UNL     1      -2.475  13.178  21.411  0.00  0.00    +0.000 A 
ATOM     14  F   UNL     1      -3.358  14.181  21.497  0.00  0.00    +0.000 F 
ATOM     15  C   UNL     1      -2.067  12.725  20.163  0.00  0.00    +0.000 A 
ATOM     16  C   UNL     1      -1.159  11.664  20.075  0.00  0.00    +0.000 A 
ENDBRANCH   8  10
ENDBRANCH   2   5
BRANCH   1  18
ATOM     17  C   UNL     1       1.950   4.366  17.689  0.00  0.00    +0.000 C 
ATOM     18  C   UNL     1       2.818   5.589  17.970  0.00  0.00    +0.000 C 
BRANCH  18  19
ATOM     19  C   UNL     1       4.173   5.180  18.447  0.00  0.00    +0.000 A 
ATOM     20  N   UNL     1       4.450   4.107  19.167  0.00  0.00    +0.000 NA
ATOM     21  N   UNL     1       5.799   4.087  19.417  0.00  0.00    +0.000 NA
ATOM     22  C   UNL     1       6.330   5.140  18.841  0.00  0.00    +0.000 A 
ATOM     23  C   UNL     1       7.666   5.627  18.773  0.00  0.00    +0.000 A 
ATOM     24  C   UNL     1       7.933   6.743  18.067  0.00  0.00    +0.000 A 
ATOM     25  C   UNL     1       6.881   7.466  17.367  0.00  0.00    +0.000 A 
ATOM     26  C   UNL     1       5.615   7.019  17.444  0.00  0.00    +0.000 A 
ATOM     27  N   UNL     1       5.344   5.866  18.185  0.00  0.00    +0.000 N 
ENDBRANCH  18  19
ENDBRANCH   1  18
TORSDOF 4
ENDMDL
MODEL 6
REMARK VINA RESULT:      -8.2      2.400      3.428
REMARK  Name = 
REMARK  5 active torsions:
REMARK  status: ('A' for Active; 'I' for Inactive)
REMARK    1  A    between atoms: C_1  and  C_2
REMARK    2  A    between atoms: C_2  and  N_3
REMARK    3  A    between atoms: C_2  and  C_18
REMARK    4  A    between atoms: C_4  and  C_6
REMARK    5  A    between atoms: C_9  and  C_10
REMARK                            x       y       z     vdW  Elec       q    Type
REMARK                         _______ _______ _______ _____ _____    ______ ____
ROOT
ATOM      1  N   UNL     1       2.750   5.403  19.840  0.00  0.00    +0.000 N 
ATOM      2  C   UNL     1       2.423   6.484  19.057  0.00  0.00    +0.000 C 
ATOM      3  O   UNL     1       2.593   6.479  17.840  0.00  0.00    +0.000 OA
ATOM      4  H   UNL     1       2.710   5.520  20.848  0.00  0.00    +0.000 HD
ENDROOT
BRANCH   2   5
ATOM      5  C   UNL     1       1.864   7.615  19.773  0.00  0.00    +0.000 A 
ATOM      6  C   UNL     1       1.572   7.761  21.115  0.00  0.00    +0.000 A 
ATOM      7  C   UNL     1       1.073   9.072  21.286  0.00  0.00    +0.000 A 
ATOM      8  C   UNL     1       1.071   9.666  20.039  0.00  0.00    +0.000 A 
ATOM      9  O   UNL     1       1.555   8.778  19.112  0.00  0.00    +0.000 OA
BRANCH   8  10
ATOM     10  C   UNL     1       0.653  10.982  19.550  0.00  0.00    +0.000 A 
ATOM     11  C   UNL     1       1.577  11.825  18.904  0.00  0.00    +0.000 A 
ATOM     12  C   UNL     1       1.212  13.105  18.477  0.00  0.00    +0.000 A 
ATOM     13  C   UNL     1      -0.085  13.551  18.690  0.00  0.00    +0.000 A 
ATOM     14  F   UNL     1      -0.430  14.784  18.300  0.00  0.00    +0.000 F 
ATOM     15  C   UNL     1      -1.025  12.735  19.308  0.00  0.00    +0.000 A 
ATOM     16  C   UNL     1      -0.657  11.454  19.733  0.00  0.00    +0.000 A 
ENDBRANCH   8  10
ENDBRANCH   2   5
BRANCH   1  18
ATOM     17  C   UNL     1       3.268   3.074  20.347  0.00  0.00    +0.000 C 
ATOM     18  C   UNL     1       3.351   4.190  19.309  0.00  0.00    +0.000 C 
BRANCH  18  19
ATOM     19  C   UNL     1       4.774   4.491  18.968  0.00  0.00    +0.000 A 
ATOM     20  N   UNL     1       5.716   4.853  19.822  0.00  0.00    +0.000 NA
ATOM     21  N   UNL     1       6.881   5.054  19.124  0.00  0.00    +0.000 NA
ATOM     22  C   UNL     1       6.640   4.805  17.858  0.00  0.00    +0.000 A 
ATOM     23  C   UNL     1       7.460   4.854  16.697  0.00  0.00    +0.000 A 
ATOM     24  C   UNL     1       6.944   4.506  15.502  0.00  0.00    +0.000 A 
ATOM     25  C   UNL     1       5.559   4.077  15.371  0.00  0.00    +0.000 A 
ATOM     26  C   UNL     1       4.775   4.047  16.463  0.00  0.00    +0.000 A 
ATOM     27  N   UNL     1       5.316   4.418  17.698  0.00  0.00    +0.000 N 
ENDBRANCH  18  19
ENDBRANCH   1  18
TORSDOF 4
ENDMDL
MODEL 7
REMARK VINA RESULT:      -8.0      1.974      3.014
REMARK  Name = 
REMARK  5 active torsions:
REMARK  status: ('A' for Active; 'I' for Inactive)
REMARK    1  A    between atoms: C_1  and  C_2
REMARK    2  A    between atoms: C_2  and  N_3
REMARK    3  A    between atoms: C_2  and  C_18
REMARK    4  A    between atoms: C_4  and  C_6
REMARK    5  A    between atoms: C_9  and  C_10
REMARK                            x       y       z     vdW  Elec       q    Type
REMARK                         _______ _______ _______ _____ _____    ______ ____
ROOT
ATOM      1  N   UNL     1       2.183   6.721  18.583  0.00  0.00    +0.000 N 
ATOM      2  C   UNL     1       2.523   7.816  17.824  0.00  0.00    +0.000 C 
ATOM      3  O   UNL     1       3.180   7.709  16.791  0.00  0.00    +0.000 OA
ATOM      4  H   UNL     1       1.757   6.888  19.490  0.00  0.00    +0.000 HD
ENDROOT
BRANCH   2   5
ATOM      5  C   UNL     1       2.045   9.088  18.331  0.00  0.00    +0.000 A 
ATOM      6  C   UNL     1       2.315  10.372  17.903  0.00  0.00    +0.000 A 
ATOM      7  C   UNL     1       1.566  11.245  18.726  0.00  0.00    +0.000 A 
ATOM      8  C   UNL     1       0.881  10.454  19.628  0.00  0.00    +0.000 A 
ATOM      9  O   UNL     1       1.171   9.135  19.389  0.00  0.00    +0.000 OA
BRANCH   8  10
ATOM     10  C   UNL     1      -0.027  10.749  20.740  0.00  0.00    +0.000 A 
ATOM     11  C   UNL     1      -0.954  11.804  20.637  0.00  0.00    +0.000 A 
ATOM     12  C   UNL     1      -1.792  12.135  21.706  0.00  0.00    +0.000 A 
ATOM     13  C   UNL     1      -1.713  11.408  22.886  0.00  0.00    +0.000 A 
ATOM     14  F   UNL     1      -2.501  11.737  23.917  0.00  0.00    +0.000 F 
ATOM     15  C   UNL     1      -0.822  10.350  23.010  0.00  0.00    +0.000 A 
ATOM     16  C   UNL     1       0.016  10.020  21.939  0.00  0.00    +0.000 A 
ENDBRANCH   8  10
ENDBRANCH   2   5
BRANCH   1  18
ATOM     17  C   UNL     1       1.795   4.365  19.081  0.00  0.00    +0.000 C 
ATOM     18  C   UNL     1       2.598   5.366  18.255  0.00  0.00    +0.000 C 
BRANCH  18  19
ATOM     19  C   UNL     1       4.058   5.247  18.549  0.00  0.00    +0.000 A 
ATOM     20  N   UNL     1       4.625   5.397  19.733  0.00  0.00    +0.000 NA
ATOM     21  N   UNL     1       5.980   5.226  19.591  0.00  0.00    +0.000 NA
ATOM     22  C   UNL     1       6.222   4.965  18.328  0.00  0.00    +0.000 A 
ATOM     23  C   UNL     1       7.425   4.709  17.614  0.00  0.00    +0.000 A 
ATOM     24  C   UNL     1       7.372   4.433  16.296  0.00  0.00    +0.000 A 
ATOM     25  C   UNL     1       6.104   4.388  15.582  0.00  0.00    +0.000 A 
ATOM     26  C   UNL     1       4.966   4.647  16.250  0.00  0.00    +0.000 A 
ATOM     27  N   UNL     1       5.030   4.941  17.615  0.00  0.00    +0.000 N 
ENDBRANCH  18  19
ENDBRANCH   1  18
TORSDOF 4
ENDMDL
MODEL 8
REMARK VINA RESULT:      -8.0      2.663      3.272
REMARK  Name = 
REMARK  5 active torsions:
REMARK  status: ('A' for Active; 'I' for Inactive)
REMARK    1  A    between atoms: C_1  and  C_2
REMARK    2  A    between atoms: C_2  and  N_3
REMARK    3  A    between atoms: C_2  and  C_18
REMARK    4  A    between atoms: C_4  and  C_6
REMARK    5  A    between atoms: C_9  and  C_10
REMARK                            x       y       z     vdW  Elec       q    Type
REMARK                         _______ _______ _______ _____ _____    ______ ____
ROOT
ATOM      1  N   UNL     1       2.908   6.344  17.685  0.00  0.00    +0.000 N 
ATOM      2  C   UNL     1       2.553   6.795  18.934  0.00  0.00    +0.000 C 
ATOM      3  O   UNL     1       2.750   6.125  19.945  0.00  0.00    +0.000 OA
ATOM      4  H   UNL     1       2.598   6.883  16.882  0.00  0.00    +0.000 HD
ENDROOT
BRANCH   2   5
ATOM      5  C   UNL     1       1.942   8.110  18.962  0.00  0.00    +0.000 A 
ATOM      6  C   UNL     1       1.913   9.097  17.997  0.00  0.00    +0.000 A 
ATOM      7  C   UNL     1       1.157  10.167  18.528  0.00  0.00    +0.000 A 
ATOM      8  C   UNL     1       0.767   9.792  19.799  0.00  0.00    +0.000 A 
ATOM      9  O   UNL     1       1.245   8.534  20.067  0.00  0.00    +0.000 OA
BRANCH   8  10
ATOM     10  C   UNL     1       0.003  10.457  20.856  0.00  0.00    +0.000 A 
ATOM     11  C   UNL     1      -0.185   9.825  22.100  0.00  0.00    +0.000 A 
ATOM     12  C   UNL     1      -0.955  10.420  23.103  0.00  0.00    +0.000 A 
ATOM     13  C   UNL     1      -1.539  11.657  22.872  0.00  0.00    +0.000 A 
ATOM     14  F   UNL     1      -2.294  12.219  23.824  0.00  0.00    +0.000 F 
ATOM     15  C   UNL     1      -1.356  12.315  21.662  0.00  0.00    +0.000 A 
ATOM     16  C   UNL     1      -0.584  11.718  20.659  0.00  0.00    +0.000 A 
ENDBRANCH   8  10
ENDBRANCH   2   5
BRANCH   1  18
ATOM     17  C   UNL     1       2.556   3.943  17.934  0.00  0.00    +0.000 C 
ATOM     18  C   UNL     1       3.503   5.038  17.451  0.00  0.00    +0.000 C 
BRANCH  18  19
ATOM     19  C   UNL     1       4.799   4.982  18.192  0.00  0.00    +0.000 A 
ATOM     20  N   UNL     1       5.148   4.063  19.075  0.00  0.00    +0.000 NA
ATOM     21  N   UNL     1       6.402   4.365  19.545  0.00  0.00    +0.000 NA
ATOM     22  C   UNL     1       6.807   5.456  18.937  0.00  0.00    +0.000 A 
ATOM     23  C   UNL     1       8.004   6.219  19.031  0.00  0.00    +0.000 A 
ATOM     24  C   UNL     1       8.166   7.302  18.246  0.00  0.00    +0.000 A 
ATOM     25  C   UNL     1       7.140   7.711  17.297  0.00  0.00    +0.000 A 
ATOM     26  C   UNL     1       6.000   7.002  17.219  0.00  0.00    +0.000 A 
ATOM     27  N   UNL     1       5.835   5.885  18.043  0.00  0.00    +0.000 N 
ENDBRANCH  18  19
ENDBRANCH   1  18
TORSDOF 4
ENDMDL
MODEL 9
REMARK VINA RESULT:      -8.0      1.833      2.492
REMARK  Name = 
REMARK  5 active torsions:
REMARK  status: ('A' for Active; 'I' for Inactive)
REMARK    1  A    between atoms: C_1  and  C_2
REMARK    2  A    between atoms: C_2  and  N_3
REMARK    3  A    between atoms: C_2  and  C_18
REMARK    4  A    between atoms: C_4  and  C_6
REMARK    5  A    between atoms: C_9  and  C_10
REMARK                            x       y       z     vdW  Elec       q    Type
REMARK                         _______ _______ _______ _____ _____    ______ ____
ROOT
ATOM      1  N   UNL     1       2.984   6.222  19.461  0.00  0.00    +0.000 N 
ATOM      2  C   UNL     1       2.234   6.790  18.459  0.00  0.00    +0.000 C 
ATOM      3  O   UNL     1       1.870   6.147  17.477  0.00  0.00    +0.000 OA
ATOM      4  H   UNL     1       3.364   6.837  20.174  0.00  0.00    +0.000 HD
ENDROOT
BRANCH   2   5
ATOM      5  C   UNL     1       1.906   8.190  18.655  0.00  0.00    +0.000 A 
ATOM      6  C   UNL     1       2.167   9.284  17.854  0.00  0.00    +0.000 A 
ATOM      7  C   UNL     1       1.604  10.408  18.499  0.00  0.00    +0.000 A 
ATOM      8  C   UNL     1       1.032   9.953  19.672  0.00  0.00    +0.000 A 
ATOM      9  O   UNL     1       1.215   8.597  19.769  0.00  0.00    +0.000 OA
BRANCH   8  10
ATOM     10  C   UNL     1       0.329  10.615  20.773  0.00  0.00    +0.000 A 
ATOM     11  C   UNL     1      -0.140   9.864  21.867  0.00  0.00    +0.000 A 
ATOM     12  C   UNL     1      -0.859  10.468  22.903  0.00  0.00    +0.000 A 
ATOM     13  C   UNL     1      -1.109  11.832  22.854  0.00  0.00    +0.000 A 
ATOM     14  F   UNL     1      -1.815  12.409  23.835  0.00  0.00    +0.000 F 
ATOM     15  C   UNL     1      -0.642  12.604  21.798  0.00  0.00    +0.000 A 
ATOM     16  C   UNL     1       0.079  11.997  20.763  0.00  0.00    +0.000 A 
ENDBRANCH   8  10
ENDBRANCH   2   5
BRANCH   1  18
ATOM     17  C   UNL     1       3.259   4.205  20.804  0.00  0.00    +0.000 C 
ATOM     18  C   UNL     1       3.438   4.841  19.428  0.00  0.00    +0.000 C 
BRANCH  18  19
ATOM     19  C   UNL     1       4.876   4.837  19.025  0.00  0.00    +0.000 A 
ATOM     20  N   UNL     1       5.908   4.989  19.837  0.00  0.00    +0.000 NA
ATOM     21  N   UNL     1       7.059   4.942  19.089  0.00  0.00    +0.000 NA
ATOM     22  C   UNL     1       6.717   4.754  17.836  0.00  0.00    +0.000 A 
ATOM     23  C   UNL     1       7.479   4.632  16.641  0.00  0.00    +0.000 A 
ATOM     24  C   UNL     1       6.851   4.405  15.471  0.00  0.00    +0.000 A 
ATOM     25  C   UNL     1       5.403   4.279  15.401  0.00  0.00    +0.000 A 
ATOM     26  C   UNL     1       4.678   4.411  16.526  0.00  0.00    +0.000 A 
ATOM     27  N   UNL     1       5.336   4.655  17.735  0.00  0.00    +0.000 N 
ENDBRANCH  18  19
ENDBRANCH   1  18
TORSDOF 4
ENDMDL
