MODEL 1
REMARK VINA RESULT:      -8.5      0.000      0.000
REMARK  Name = 
REMARK  3 active torsions:
REMARK  status: ('A' for Active; 'I' for Inactive)
REMARK    1  A    between atoms: C_2  and  C_3
REMARK    2  A    between atoms: C_17  and  O_18
REMARK    3  A    between atoms: O_18  and  C_19
REMARK                            x       y       z     vdW  Elec       q    Type
REMARK                         _______ _______ _______ _____ _____    ______ ____
ROOT
ATOM      1  O   UNL     1       5.618   3.686  18.869  0.00  0.00    +0.000 OA
ATOM      2  C   UNL     1       5.221   4.635  18.200  0.00  0.00    +0.000 C 
ATOM      3  N   UNL     1       4.279   5.567  18.653  0.00  0.00    +0.000 N 
ATOM      4  C   UNL     1       3.859   5.512  20.044  0.00  0.00    +0.000 C 
ATOM      5  C   UNL     1       2.343   5.582  20.133  0.00  0.00    +0.000 C 
ATOM      6  C   UNL     1       1.795   6.834  19.433  0.00  0.00    +0.000 C 
ATOM      7  C   UNL     1       2.295   6.875  17.990  0.00  0.00    +0.000 C 
ATOM      8  C   UNL     1       3.809   6.740  17.910  0.00  0.00    +0.000 C 
ENDROOT
BRANCH   2   9
ATOM      9  C   UNL     1       5.806   4.813  16.812  0.00  0.00    +0.000 A 
ATOM     10  N   UNL     1       6.956   5.429  16.725  0.00  0.00    +0.000 NA
ATOM     11  N   UNL     1       7.457   5.743  15.505  0.00  0.00    +0.000 N 
ATOM     12  C   UNL     1       7.097   5.009  14.370  0.00  0.00    +0.000 A 
ATOM     13  C   UNL     1       7.850   5.104  13.198  0.00  0.00    +0.000 A 
ATOM     14  C   UNL     1       7.488   4.367  12.069  0.00  0.00    +0.000 A 
ATOM     15  C   UNL     1       6.355   3.551  12.094  0.00  0.00    +0.000 A 
ATOM     16  C   UNL     1       5.560   3.496  13.238  0.00  0.00    +0.000 A 
ATOM     17  C   UNL     1       5.936   4.236  14.359  0.00  0.00    +0.000 A 
ATOM     18  C   UNL     1       5.119   4.275  15.578  0.00  0.00    +0.000 A 
ATOM     19  O   UNL     1       3.955   3.917  15.593  0.00  0.00    +0.000 OA
ATOM     20  H   UNL     1       8.392   6.149  15.495  0.00  0.00    +0.000 HD
ENDBRANCH   2   9
BRANCH   6  21
ATOM     21  O   UNL     1       2.235   8.035  20.083  0.00  0.00    +0.000 OA
BRANCH  21  22
ATOM     22  C   UNL     1       1.288   8.764  20.747  0.00  0.00    +0.000 A 
ATOM     23  C   UNL     1       1.052   8.672  22.123  0.00  0.00    +0.000 A 
ATOM     24  C   UNL     1       0.088   9.482  22.725  0.00  0.00    +0.000 A 
ATOM     25  C   UNL     1      -0.642  10.369  21.954  0.00  0.00    +0.000 A 
ATOM     26  F   UNL     1      -1.575  11.132  22.539  0.00  0.00    +0.000 F 
ATOM     27  C   UNL     1      -0.428  10.480  20.586  0.00  0.00    +0.000 A 
ATOM     28  C   UNL     1       0.546   9.683  19.994  0.00  0.00    +0.000 A 
ATOM     29  F   UNL     1       0.751   9.795  18.673  0.00  0.00    +0.000 F 
ENDBRANCH  21  22
ENDBRANCH   6  21
TORSDOF 3
ENDMDL
MODEL 2
REMARK VINA RESULT:      -8.5      0.995      1.420
REMARK  Name = 
REMARK  3 active torsions:
REMARK  status: ('A' for Active; 'I' for Inactive)
REMARK    1  A    between atoms: C_2  and  C_3
REMARK    2  A    between atoms: C_17  and  O_18
REMARK    3  A    between atoms: O_18  and  C_19
REMARK                            x       y       z     vdW  Elec       q    Type
REMARK                         _______ _______ _______ _____ _____    ______ ____
ROOT
ATOM      1  O   UNL     1       5.997   3.762  18.778  0.00  0.00    +0.000 OA
ATOM      2  C   UNL     1       5.496   4.641  18.084  0.00  0.00    +0.000 C 
ATOM      3  N   UNL     1       4.490   5.508  18.530  0.00  0.00    +0.000 N 
ATOM      4  C   UNL     1       4.121   5.479  19.936  0.00  0.00    +0.000 C 
ATOM      5  C   UNL     1       2.608   5.420  20.075  0.00  0.00    +0.000 C 
ATOM      6  C   UNL     1       1.929   6.587  19.344  0.00  0.00    +0.000 C 
ATOM      7  C   UNL     1       2.379   6.606  17.883  0.00  0.00    +0.000 C 
ATOM      8  C   UNL     1       3.895   6.600  17.755  0.00  0.00    +0.000 C 
ENDROOT
BRANCH   2   9
ATOM      9  C   UNL     1       6.020   4.807  16.670  0.00  0.00    +0.000 A 
ATOM     10  N   UNL     1       7.162   5.427  16.526  0.00  0.00    +0.000 NA
ATOM     11  N   UNL     1       7.608   5.729  15.283  0.00  0.00    +0.000 N 
ATOM     12  C   UNL     1       7.202   4.982  14.172  0.00  0.00    +0.000 A 
ATOM     13  C   UNL     1       7.902   5.068  12.967  0.00  0.00    +0.000 A 
ATOM     14  C   UNL     1       7.494   4.318  11.862  0.00  0.00    +0.000 A 
ATOM     15  C   UNL     1       6.367   3.498  11.946  0.00  0.00    +0.000 A 
ATOM     16  C   UNL     1       5.623   3.452  13.124  0.00  0.00    +0.000 A 
ATOM     17  C   UNL     1       6.045   4.205  14.219  0.00  0.00    +0.000 A 
ATOM     18  C   UNL     1       5.282   4.254  15.473  0.00  0.00    +0.000 A 
ATOM     19  O   UNL     1       4.121   3.891  15.542  0.00  0.00    +0.000 OA
ATOM     20  H   UNL     1       8.540   6.138  15.227  0.00  0.00    +0.000 HD
ENDBRANCH   2   9
BRANCH   6  21
ATOM     21  O   UNL     1       2.281   7.850  19.926  0.00  0.00    +0.000 OA
BRANCH  21  22
ATOM     22  C   UNL     1       1.322   8.823  19.925  0.00  0.00    +0.000 A 
ATOM     23  C   UNL     1       0.918   9.523  18.782  0.00  0.00    +0.000 A 
ATOM     24  C   UNL     1      -0.097  10.477  18.866  0.00  0.00    +0.000 A 
ATOM     25  C   UNL     1      -0.695  10.738  20.086  0.00  0.00    +0.000 A 
ATOM     26  F   UNL     1      -1.659  11.665  20.159  0.00  0.00    +0.000 F 
ATOM     27  C   UNL     1      -0.313  10.058  21.236  0.00  0.00    +0.000 A 
ATOM     28  C   UNL     1       0.687   9.096  21.144  0.00  0.00    +0.000 A 
ATOM     29  F   UNL     1       1.052   8.440  22.256  0.00  0.00    +0.000 F 
ENDBRANCH  21  22
ENDBRANCH   6  21
TORSDOF 3
ENDMDL
MODEL 3
REMARK VINA RESULT:      -8.4      0.963      1.067
REMARK  Name = 
REMARK  3 active torsions:
REMARK  status: ('A' for Active; 'I' for Inactive)
REMARK    1  A    between atoms: C_2  and  C_3
REMARK    2  A    between atoms: C_17  and  O_18
REMARK    3  A    between atoms: O_18  and  C_19
REMARK                            x       y       z     vdW  Elec       q    Type
REMARK                         _______ _______ _______ _____ _____    ______ ____
ROOT
ATOM      1  O   UNL     1       6.579   4.009  18.582  0.00  0.00    +0.000 OA
ATOM      2  C   UNL     1       5.925   4.771  17.877  0.00  0.00    +0.000 C 
ATOM      3  N   UNL     1       4.869   5.559  18.352  0.00  0.00    +0.000 N 
ATOM      4  C   UNL     1       4.626   5.605  19.785  0.00  0.00    +0.000 C 
ATOM      5  C   UNL     1       3.147   5.398  20.068  0.00  0.00    +0.000 C 
ATOM      6  C   UNL     1       2.281   6.423  19.322  0.00  0.00    +0.000 C 
ATOM      7  C   UNL     1       2.599   6.371  17.828  0.00  0.00    +0.000 C 
ATOM      8  C   UNL     1       4.090   6.516  17.560  0.00  0.00    +0.000 C 
ENDROOT
BRANCH   2   9
ATOM      9  C   UNL     1       6.304   4.876  16.412  0.00  0.00    +0.000 A 
ATOM     10  N   UNL     1       7.400   5.529  16.126  0.00  0.00    +0.000 NA
ATOM     11  N   UNL     1       7.713   5.777  14.830  0.00  0.00    +0.000 N 
ATOM     12  C   UNL     1       7.236   4.954  13.805  0.00  0.00    +0.000 A 
ATOM     13  C   UNL     1       7.814   4.998  12.535  0.00  0.00    +0.000 A 
ATOM     14  C   UNL     1       7.335   4.172  11.516  0.00  0.00    +0.000 A 
ATOM     15  C   UNL     1       6.257   3.317  11.752  0.00  0.00    +0.000 A 
ATOM     16  C   UNL     1       5.630   3.309  12.997  0.00  0.00    +0.000 A 
ATOM     17  C   UNL     1       6.122   4.138  14.005  0.00  0.00    +0.000 A 
ATOM     18  C   UNL     1       5.480   4.229  15.322  0.00  0.00    +0.000 A 
ATOM     19  O   UNL     1       4.347   3.828  15.523  0.00  0.00    +0.000 OA
ATOM     20  H   UNL     1       8.617   6.217  14.663  0.00  0.00    +0.000 HD
ENDBRANCH   2   9
BRANCH   6  21
ATOM     21  O   UNL     1       2.536   7.759  19.778  0.00  0.00    +0.000 OA
BRANCH  21  22
ATOM     22  C   UNL     1       1.460   8.594  19.886  0.00  0.00    +0.000 A 
ATOM     23  C   UNL     1       0.627   8.657  21.008  0.00  0.00    +0.000 A 
ATOM     24  C   UNL     1      -0.430   9.568  21.048  0.00  0.00    +0.000 A 
ATOM     25  C   UNL     1      -0.659  10.401  19.967  0.00  0.00    +0.000 A 
ATOM     26  F   UNL     1      -1.685  11.261  20.009  0.00  0.00    +0.000 F 
ATOM     27  C   UNL     1       0.152  10.359  18.840  0.00  0.00    +0.000 A 
ATOM     28  C   UNL     1       1.214   9.462  18.813  0.00  0.00    +0.000 A 
ATOM     29  F   UNL     1       1.997   9.426  17.724  0.00  0.00    +0.000 F 
ENDBRANCH  21  22
ENDBRANCH   6  21
TORSDOF 3
ENDMDL
MODEL 4
REMARK VINA RESULT:      -7.9      2.697      4.103
REMARK  Name = 
REMARK  3 active torsions:
REMARK  status: ('A' for Active; 'I' for Inactive)
REMARK    1  A    between atoms: C_2  and  C_3
REMARK    2  A    between atoms: C_17  and  O_18
REMARK    3  A    between atoms: O_18  and  C_19
REMARK                            x       y       z     vdW  Elec       q    Type
REMARK                         _______ _______ _______ _____ _____    ______ ____
ROOT
ATOM      1  O   UNL     1       2.033   5.378  20.836  0.00  0.00    +0.000 OA
ATOM      2  C   UNL     1       2.364   6.054  19.866  0.00  0.00    +0.000 C 
ATOM      3  N   UNL     1       2.054   7.412  19.722  0.00  0.00    +0.000 N 
ATOM      4  C   UNL     1       1.446   8.109  20.844  0.00  0.00    +0.000 C 
ATOM      5  C   UNL     1       0.247   8.914  20.367  0.00  0.00    +0.000 C 
ATOM      6  C   UNL     1       0.632   9.889  19.246  0.00  0.00    +0.000 C 
ATOM      7  C   UNL     1       1.307   9.122  18.109  0.00  0.00    +0.000 C 
ATOM      8  C   UNL     1       2.465   8.271  18.608  0.00  0.00    +0.000 C 
ENDROOT
BRANCH   2   9
ATOM      9  C   UNL     1       3.175   5.377  18.778  0.00  0.00    +0.000 A 
ATOM     10  N   UNL     1       2.511   4.828  17.795  0.00  0.00    +0.000 NA
ATOM     11  N   UNL     1       3.171   4.087  16.871  0.00  0.00    +0.000 N 
ATOM     12  C   UNL     1       4.529   4.305  16.612  0.00  0.00    +0.000 A 
ATOM     13  C   UNL     1       5.119   3.796  15.455  0.00  0.00    +0.000 A 
ATOM     14  C   UNL     1       6.474   4.018  15.200  0.00  0.00    +0.000 A 
ATOM     15  C   UNL     1       7.254   4.729  16.115  0.00  0.00    +0.000 A 
ATOM     16  C   UNL     1       6.692   5.188  17.305  0.00  0.00    +0.000 A 
ATOM     17  C   UNL     1       5.337   4.960  17.543  0.00  0.00    +0.000 A 
ATOM     18  C   UNL     1       4.686   5.361  18.797  0.00  0.00    +0.000 A 
ATOM     19  O   UNL     1       5.321   5.644  19.797  0.00  0.00    +0.000 OA
ATOM     20  H   UNL     1       2.617   3.752  16.084  0.00  0.00    +0.000 HD
ENDBRANCH   2   9
BRANCH   6  21
ATOM     21  O   UNL     1       1.555  10.886  19.709  0.00  0.00    +0.000 OA
BRANCH  21  22
ATOM     22  C   UNL     1       1.228  12.191  19.474  0.00  0.00    +0.000 A 
ATOM     23  C   UNL     1       0.181  12.864  20.112  0.00  0.00    +0.000 A 
ATOM     24  C   UNL     1      -0.059  14.211  19.836  0.00  0.00    +0.000 A 
ATOM     25  C   UNL     1       0.735  14.877  18.920  0.00  0.00    +0.000 A 
ATOM     26  F   UNL     1       0.488  16.166  18.651  0.00  0.00    +0.000 F 
ATOM     27  C   UNL     1       1.781  14.233  18.271  0.00  0.00    +0.000 A 
ATOM     28  C   UNL     1       2.027  12.895  18.563  0.00  0.00    +0.000 A 
ATOM     29  F   UNL     1       3.040  12.277  17.936  0.00  0.00    +0.000 F 
ENDBRANCH  21  22
ENDBRANCH   6  21
TORSDOF 3
ENDMDL
MODEL 5
REMARK VINA RESULT:      -7.6      2.605      4.131
REMARK  Name = 
REMARK  3 active torsions:
REMARK  status: ('A' for Active; 'I' for Inactive)
REMARK    1  A    between atoms: C_2  and  C_3
REMARK    2  A    between atoms: C_17  and  O_18
REMARK    3  A    between atoms: O_18  and  C_19
REMARK                            x       y       z     vdW  Elec       q    Type
REMARK                         _______ _______ _______ _____ _____    ______ ____
ROOT
ATOM      1  O   UNL     1       1.983   5.238  20.877  0.00  0.00    +0.000 OA
ATOM      2  C   UNL     1       2.327   5.952  19.940  0.00  0.00    +0.000 C 
ATOM      3  N   UNL     1       2.027   7.317  19.849  0.00  0.00    +0.000 N 
ATOM      4  C   UNL     1       1.414   7.971  20.994  0.00  0.00    +0.000 C 
ATOM      5  C   UNL     1       0.224   8.803  20.541  0.00  0.00    +0.000 C 
ATOM      6  C   UNL     1       0.626   9.821  19.464  0.00  0.00    +0.000 C 
ATOM      7  C   UNL     1       1.305   9.097  18.302  0.00  0.00    +0.000 C 
ATOM      8  C   UNL     1       2.453   8.218  18.775  0.00  0.00    +0.000 C 
ENDROOT
BRANCH   2   9
ATOM      9  C   UNL     1       3.142   5.315  18.831  0.00  0.00    +0.000 A 
ATOM     10  N   UNL     1       2.482   4.781  17.837  0.00  0.00    +0.000 NA
ATOM     11  N   UNL     1       3.149   4.075  16.892  0.00  0.00    +0.000 N 
ATOM     12  C   UNL     1       4.502   4.318  16.633  0.00  0.00    +0.000 A 
ATOM     13  C   UNL     1       5.094   3.847  15.461  0.00  0.00    +0.000 A 
ATOM     14  C   UNL     1       6.445   4.095  15.207  0.00  0.00    +0.000 A 
ATOM     15  C   UNL     1       7.219   4.793  16.137  0.00  0.00    +0.000 A 
ATOM     16  C   UNL     1       6.655   5.213  17.340  0.00  0.00    +0.000 A 
ATOM     17  C   UNL     1       5.304   4.960  17.578  0.00  0.00    +0.000 A 
ATOM     18  C   UNL     1       4.654   5.319  18.843  0.00  0.00    +0.000 A 
ATOM     19  O   UNL     1       5.289   5.585  19.849  0.00  0.00    +0.000 OA
ATOM     20  H   UNL     1       2.596   3.752  16.098  0.00  0.00    +0.000 HD
ENDBRANCH   2   9
BRANCH   6  21
ATOM     21  O   UNL     1       1.551  10.791  19.976  0.00  0.00    +0.000 OA
BRANCH  21  22
ATOM     22  C   UNL     1       1.371  12.088  19.584  0.00  0.00    +0.000 A 
ATOM     23  C   UNL     1       2.141  12.723  18.603  0.00  0.00    +0.000 A 
ATOM     24  C   UNL     1       1.863  14.041  18.238  0.00  0.00    +0.000 A 
ATOM     25  C   UNL     1       0.831  14.723  18.860  0.00  0.00    +0.000 A 
ATOM     26  F   UNL     1       0.582  15.993  18.513  0.00  0.00    +0.000 F 
ATOM     27  C   UNL     1       0.053  14.117  19.837  0.00  0.00    +0.000 A 
ATOM     28  C   UNL     1       0.322  12.797  20.184  0.00  0.00    +0.000 A 
ATOM     29  F   UNL     1      -0.433  12.214  21.127  0.00  0.00    +0.000 F 
ENDBRANCH  21  22
ENDBRANCH   6  21
TORSDOF 3
ENDMDL
MODEL 6
REMARK VINA RESULT:      -7.4      1.591      2.177
REMARK  Name = 
REMARK  3 active torsions:
REMARK  status: ('A' for Active; 'I' for Inactive)
REMARK    1  A    between atoms: C_2  and  C_3
REMARK    2  A    between atoms: C_17  and  O_18
REMARK    3  A    between atoms: O_18  and  C_19
REMARK                            x       y       z     vdW  Elec       q    Type
REMARK                         _______ _______ _______ _____ _____    ______ ____
ROOT
ATOM      1  O   UNL     1       6.131   3.933  19.004  0.00  0.00    +0.000 OA
ATOM      2  C   UNL     1       5.519   4.534  18.126  0.00  0.00    +0.000 C 
ATOM      3  N   UNL     1       4.516   5.478  18.384  0.00  0.00    +0.000 N 
ATOM      4  C   UNL     1       4.289   5.893  19.759  0.00  0.00    +0.000 C 
ATOM      5  C   UNL     1       2.802   5.853  20.075  0.00  0.00    +0.000 C 
ATOM      6  C   UNL     1       1.994   6.711  19.091  0.00  0.00    +0.000 C 
ATOM      7  C   UNL     1       2.296   6.270  17.659  0.00  0.00    +0.000 C 
ATOM      8  C   UNL     1       3.790   6.253  17.374  0.00  0.00    +0.000 C 
ENDROOT
BRANCH   2   9
ATOM      9  C   UNL     1       5.891   4.249  16.684  0.00  0.00    +0.000 A 
ATOM     10  N   UNL     1       5.188   3.342  16.056  0.00  0.00    +0.000 NA
ATOM     11  N   UNL     1       5.564   2.944  14.816  0.00  0.00    +0.000 N 
ATOM     12  C   UNL     1       6.312   3.787  13.986  0.00  0.00    +0.000 A 
ATOM     13  C   UNL     1       6.410   3.527  12.618  0.00  0.00    +0.000 A 
ATOM     14  C   UNL     1       7.155   4.372  11.794  0.00  0.00    +0.000 A 
ATOM     15  C   UNL     1       7.830   5.468  12.337  0.00  0.00    +0.000 A 
ATOM     16  C   UNL     1       7.792   5.702  13.710  0.00  0.00    +0.000 A 
ATOM     17  C   UNL     1       7.041   4.850  14.519  0.00  0.00    +0.000 A 
ATOM     18  C   UNL     1       7.000   4.996  15.979  0.00  0.00    +0.000 A 
ATOM     19  O   UNL     1       7.818   5.661  16.590  0.00  0.00    +0.000 OA
ATOM     20  H   UNL     1       4.935   2.297  14.342  0.00  0.00    +0.000 HD
ENDBRANCH   2   9
BRANCH   6  21
ATOM     21  O   UNL     1       2.333   8.101  19.203  0.00  0.00    +0.000 OA
BRANCH  21  22
ATOM     22  C   UNL     1       1.299   8.984  19.329  0.00  0.00    +0.000 A 
ATOM     23  C   UNL     1       0.698   9.646  18.252  0.00  0.00    +0.000 A 
ATOM     24  C   UNL     1      -0.380  10.505  18.469  0.00  0.00    +0.000 A 
ATOM     25  C   UNL     1      -0.846  10.711  19.755  0.00  0.00    +0.000 A 
ATOM     26  F   UNL     1      -1.872  11.548  19.955  0.00  0.00    +0.000 F 
ATOM     27  C   UNL     1      -0.268  10.068  20.843  0.00  0.00    +0.000 A 
ATOM     28  C   UNL     1       0.795   9.198  20.619  0.00  0.00    +0.000 A 
ATOM     29  F   UNL     1       1.349   8.577  21.670  0.00  0.00    +0.000 F 
ENDBRANCH  21  22
ENDBRANCH   6  21
TORSDOF 3
ENDMDL
MODEL 7
REMARK VINA RESULT:      -7.4      1.285      1.629
REMARK  Name = 
REMARK  3 active torsions:
REMARK  status: ('A' for Active; 'I' for Inactive)
REMARK    1  A    between atoms: C_2  and  C_3
REMARK    2  A    between atoms: C_17  and  O_18
REMARK    3  A    between atoms: O_18  and  C_19
REMARK                            x       y       z     vdW  Elec       q    Type
REMARK                         _______ _______ _______ _____ _____    ______ ____
ROOT
ATOM      1  O   UNL     1       6.061   3.825  19.017  0.00  0.00    +0.000 OA
ATOM      2  C   UNL     1       5.445   4.441  18.152  0.00  0.00    +0.000 C 
ATOM      3  N   UNL     1       4.427   5.363  18.430  0.00  0.00    +0.000 N 
ATOM      4  C   UNL     1       4.186   5.737  19.814  0.00  0.00    +0.000 C 
ATOM      5  C   UNL     1       2.699   5.666  20.121  0.00  0.00    +0.000 C 
ATOM      6  C   UNL     1       1.883   6.539  19.156  0.00  0.00    +0.000 C 
ATOM      7  C   UNL     1       2.199   6.142  17.715  0.00  0.00    +0.000 C 
ATOM      8  C   UNL     1       3.695   6.155  17.437  0.00  0.00    +0.000 C 
ENDROOT
BRANCH   2   9
ATOM      9  C   UNL     1       5.829   4.201  16.705  0.00  0.00    +0.000 A 
ATOM     10  N   UNL     1       5.096   3.357  16.027  0.00  0.00    +0.000 NA
ATOM     11  N   UNL     1       5.475   2.995  14.777  0.00  0.00    +0.000 N 
ATOM     12  C   UNL     1       6.276   3.836  13.996  0.00  0.00    +0.000 A 
ATOM     13  C   UNL     1       6.385   3.631  12.620  0.00  0.00    +0.000 A 
ATOM     14  C   UNL     1       7.183   4.475  11.845  0.00  0.00    +0.000 A 
ATOM     15  C   UNL     1       7.899   5.514  12.446  0.00  0.00    +0.000 A 
ATOM     16  C   UNL     1       7.847   5.690  13.828  0.00  0.00    +0.000 A 
ATOM     17  C   UNL     1       7.043   4.840  14.587  0.00  0.00    +0.000 A 
ATOM     18  C   UNL     1       6.983   4.925  16.051  0.00  0.00    +0.000 A 
ATOM     19  O   UNL     1       7.820   5.524  16.703  0.00  0.00    +0.000 OA
ATOM     20  H   UNL     1       4.825   2.399  14.265  0.00  0.00    +0.000 HD
ENDBRANCH   2   9
BRANCH   6  21
ATOM     21  O   UNL     1       2.201   7.930  19.308  0.00  0.00    +0.000 OA
BRANCH  21  22
ATOM     22  C   UNL     1       1.367   8.676  20.092  0.00  0.00    +0.000 A 
ATOM     23  C   UNL     1       1.257   8.530  21.479  0.00  0.00    +0.000 A 
ATOM     24  C   UNL     1       0.405   9.361  22.207  0.00  0.00    +0.000 A 
ATOM     25  C   UNL     1      -0.342  10.323  21.550  0.00  0.00    +0.000 A 
ATOM     26  F   UNL     1      -1.169  11.106  22.256  0.00  0.00    +0.000 F 
ATOM     27  C   UNL     1      -0.254  10.488  20.174  0.00  0.00    +0.000 A 
ATOM     28  C   UNL     1       0.610   9.669  19.456  0.00  0.00    +0.000 A 
ATOM     29  F   UNL     1       0.695   9.834  18.127  0.00  0.00    +0.000 F 
ENDBRANCH  21  22
ENDBRANCH   6  21
TORSDOF 3
ENDMDL
MODEL 8
REMARK VINA RESULT:      -7.3      2.423      3.626
REMARK  Name = 
REMARK  3 active torsions:
REMARK  status: ('A' for Active; 'I' for Inactive)
REMARK    1  A    between atoms: C_2  and  C_3
REMARK    2  A    between atoms: C_17  and  O_18
REMARK    3  A    between atoms: O_18  and  C_19
REMARK                            x       y       z     vdW  Elec       q    Type
REMARK                         _______ _______ _______ _____ _____    ______ ____
ROOT
ATOM      1  O   UNL     1       2.292   5.291  20.866  0.00  0.00    +0.000 OA
ATOM      2  C   UNL     1       2.538   5.986  19.884  0.00  0.00    +0.000 C 
ATOM      3  N   UNL     1       2.158   7.329  19.765  0.00  0.00    +0.000 N 
ATOM      4  C   UNL     1       1.580   7.993  20.922  0.00  0.00    +0.000 C 
ATOM      5  C   UNL     1       0.321   8.743  20.516  0.00  0.00    +0.000 C 
ATOM      6  C   UNL     1       0.600   9.739  19.382  0.00  0.00    +0.000 C 
ATOM      7  C   UNL     1       1.246   9.008  18.205  0.00  0.00    +0.000 C 
ATOM      8  C   UNL     1       2.468   8.209  18.635  0.00  0.00    +0.000 C 
ENDROOT
BRANCH   2   9
ATOM      9  C   UNL     1       3.319   5.351  18.750  0.00  0.00    +0.000 A 
ATOM     10  N   UNL     1       2.628   4.811  17.780  0.00  0.00    +0.000 NA
ATOM     11  N   UNL     1       3.266   4.106  16.814  0.00  0.00    +0.000 N 
ATOM     12  C   UNL     1       4.609   4.358  16.508  0.00  0.00    +0.000 A 
ATOM     13  C   UNL     1       5.163   3.887  15.317  0.00  0.00    +0.000 A 
ATOM     14  C   UNL     1       6.502   4.143  15.016  0.00  0.00    +0.000 A 
ATOM     15  C   UNL     1       7.304   4.848  15.917  0.00  0.00    +0.000 A 
ATOM     16  C   UNL     1       6.779   5.268  17.138  0.00  0.00    +0.000 A 
ATOM     17  C   UNL     1       5.439   5.007  17.423  0.00  0.00    +0.000 A 
ATOM     18  C   UNL     1       4.830   5.365  18.710  0.00  0.00    +0.000 A 
ATOM     19  O   UNL     1       5.498   5.638  19.692  0.00  0.00    +0.000 OA
ATOM     20  H   UNL     1       2.688   3.778  16.041  0.00  0.00    +0.000 HD
ENDBRANCH   2   9
BRANCH   6  21
ATOM     21  O   UNL     1       1.500  10.775  19.801  0.00  0.00    +0.000 OA
BRANCH  21  22
ATOM     22  C   UNL     1       0.968  11.800  20.532  0.00  0.00    +0.000 A 
ATOM     23  C   UNL     1      -0.202  11.695  21.292  0.00  0.00    +0.000 A 
ATOM     24  C   UNL     1      -0.653  12.783  22.040  0.00  0.00    +0.000 A 
ATOM     25  C   UNL     1       0.054  13.972  22.018  0.00  0.00    +0.000 A 
ATOM     26  F   UNL     1      -0.395  15.016  22.727  0.00  0.00    +0.000 F 
ATOM     27  C   UNL     1       1.219  14.104  21.272  0.00  0.00    +0.000 A 
ATOM     28  C   UNL     1       1.674  13.010  20.542  0.00  0.00    +0.000 A 
ATOM     29  F   UNL     1       2.800  13.140  19.825  0.00  0.00    +0.000 F 
ENDBRANCH  21  22
ENDBRANCH   6  21
TORSDOF 3
ENDMDL
MODEL 9
REMARK VINA RESULT:      -7.2      5.108     10.969
REMARK  Name = 
REMARK  3 active torsions:
REMARK  status: ('A' for Active; 'I' for Inactive)
REMARK    1  A    between atoms: C_2  and  C_3
REMARK    2  A    between atoms: C_17  and  O_18
REMARK    3  A    between atoms: O_18  and  C_19
REMARK                            x       y       z     vdW  Elec       q    Type
REMARK                         _______ _______ _______ _____ _____    ______ ____
ROOT
ATOM      1  O   UNL     1      -0.630  13.900  19.897  0.00  0.00    +0.000 OA
ATOM      2  C   UNL     1      -1.115  12.798  19.660  0.00  0.00    +0.000 C 
ATOM      3  N   UNL     1      -0.353  11.648  19.415  0.00  0.00    +0.000 N 
ATOM      4  C   UNL     1       1.087  11.716  19.605  0.00  0.00    +0.000 C 
ATOM      5  C   UNL     1       1.799  11.108  18.406  0.00  0.00    +0.000 C 
ATOM      6  C   UNL     1       1.336   9.667  18.147  0.00  0.00    +0.000 C 
ATOM      7  C   UNL     1      -0.184   9.636  17.998  0.00  0.00    +0.000 C 
ATOM      8  C   UNL     1      -0.884  10.304  19.173  0.00  0.00    +0.000 C 
ENDROOT
BRANCH   2   9
ATOM      9  C   UNL     1      -2.626  12.678  19.656  0.00  0.00    +0.000 A 
ATOM     10  N   UNL     1      -3.178  12.129  18.605  0.00  0.00    +0.000 NA
ATOM     11  N   UNL     1      -4.528  12.124  18.482  0.00  0.00    +0.000 N 
ATOM     12  C   UNL     1      -5.353  12.191  19.611  0.00  0.00    +0.000 A 
ATOM     13  C   UNL     1      -6.704  11.852  19.520  0.00  0.00    +0.000 A 
ATOM     14  C   UNL     1      -7.522  11.918  20.649  0.00  0.00    +0.000 A 
ATOM     15  C   UNL     1      -7.001  12.350  21.871  0.00  0.00    +0.000 A 
ATOM     16  C   UNL     1      -5.669  12.751  21.960  0.00  0.00    +0.000 A 
ATOM     17  C   UNL     1      -4.864  12.677  20.824  0.00  0.00    +0.000 A 
ATOM     18  C   UNL     1      -3.470  13.136  20.823  0.00  0.00    +0.000 A 
ATOM     19  O   UNL     1      -3.023  13.858  21.697  0.00  0.00    +0.000 OA
ATOM     20  H   UNL     1      -4.905  11.612  17.685  0.00  0.00    +0.000 HD
ENDBRANCH   2   9
BRANCH   6  21
ATOM     21  O   UNL     1       1.687   8.799  19.234  0.00  0.00    +0.000 OA
BRANCH  21  22
ATOM     22  C   UNL     1       2.391   7.669  18.923  0.00  0.00    +0.000 A 
ATOM     23  C   UNL     1       3.212   7.543  17.798  0.00  0.00    +0.000 A 
ATOM     24  C   UNL     1       3.925   6.363  17.578  0.00  0.00    +0.000 A 
ATOM     25  C   UNL     1       3.805   5.312  18.470  0.00  0.00    +0.000 A 
ATOM     26  F   UNL     1       4.481   4.178  18.242  0.00  0.00    +0.000 F 
ATOM     27  C   UNL     1       2.995   5.410  19.594  0.00  0.00    +0.000 A 
ATOM     28  C   UNL     1       2.302   6.595  19.819  0.00  0.00    +0.000 A 
ATOM     29  F   UNL     1       1.523   6.687  20.907  0.00  0.00    +0.000 F 
ENDBRANCH  21  22
ENDBRANCH   6  21
TORSDOF 3
ENDMDL
