MODEL 1
REMARK VINA RESULT:      -9.4      0.000      0.000
REMARK  Name = 
REMARK  6 active torsions:
REMARK  status: ('A' for Active; 'I' for Inactive)
REMARK    1  A    between atoms: C_1  and  C_2
REMARK    2  A    between atoms: C_6  and  N_7
REMARK    3  A    between atoms: N_7  and  S_8
REMARK    4  A    between atoms: S_8  and  C_11
REMARK    5  A    between atoms: C_14  and  C_15
REMARK    6  A    between atoms: C_29  and  C_30
REMARK                            x       y       z     vdW  Elec       q    Type
REMARK                         _______ _______ _______ _____ _____    ______ ____
ROOT
ATOM      1  C   UNL     1       4.490   5.652  18.002  0.00  0.00    +0.000 A 
ATOM      2  C   UNL     1       3.814   5.821  19.215  0.00  0.00    +0.000 A 
ATOM      3  C   UNL     1       2.939   6.910  19.379  0.00  0.00    +0.000 A 
ATOM      4  C   UNL     1       2.750   7.837  18.342  0.00  0.00    +0.000 A 
ATOM      5  C   UNL     1       3.499   7.694  17.160  0.00  0.00    +0.000 A 
ATOM      6  C   UNL     1       4.357   6.603  16.988  0.00  0.00    +0.000 A 
ENDROOT
BRANCH   4   7
ATOM      7  C   UNL     1       1.742   8.955  18.488  0.00  0.00    +0.000 C 
ATOM      8  O   UNL     1       1.542   9.709  17.544  0.00  0.00    +0.000 OA
ATOM      9  N   UNL     1       1.189   9.017  19.752  0.00  0.00    +0.000 N 
ATOM     10  C   UNL     1       0.265   9.930  20.210  0.00  0.00    +0.000 A 
ATOM     11  N   UNL     1      -0.385  10.912  19.623  0.00  0.00    +0.000 NA
ATOM     12  C   UNL     1      -1.086  11.561  20.634  0.00  0.00    +0.000 A 
ATOM     13  C   UNL     1      -1.911  12.699  20.611  0.00  0.00    +0.000 A 
ATOM     14  C   UNL     1      -2.424  13.191  21.828  0.00  0.00    +0.000 A 
ATOM     15  C   UNL     1      -2.139  12.559  23.038  0.00  0.00    +0.000 A 
ATOM     16  C   UNL     1      -1.368  11.395  23.075  0.00  0.00    +0.000 A 
ATOM     17  C   UNL     1      -0.867  10.938  21.855  0.00  0.00    +0.000 A 
ATOM     18  N   UNL     1      -0.095   9.858  21.534  0.00  0.00    +0.000 N 
ATOM     19  H   UNL     1       1.577   8.406  20.453  0.00  0.00    +0.000 HD
ATOM     20  H   UNL     1       0.209   9.152  22.184  0.00  0.00    +0.000 HD
ENDBRANCH   4   7
BRANCH   1  21
ATOM     21  S   UNL     1       5.627   4.300  17.748  0.00  0.00    +0.000 S 
ATOM     22  O   UNL     1       6.509   4.250  18.895  0.00  0.00    +0.000 OA
ATOM     23  O   UNL     1       6.159   4.432  16.408  0.00  0.00    +0.000 OA
BRANCH  21  24
ATOM     24  N   UNL     1       4.694   2.893  17.835  0.00  0.00    +0.000 N 
ATOM     25  H   UNL     1       5.273   2.074  18.018  0.00  0.00    +0.000 HD
BRANCH  24  31
ATOM     26  C   UNL     1       1.568   2.374  21.755  0.00  0.00    +0.000 C 
ATOM     27  C   UNL     1       1.866   2.640  20.301  0.00  0.00    +0.000 A 
ATOM     28  C   UNL     1       0.795   2.917  19.436  0.00  0.00    +0.000 A 
ATOM     29  C   UNL     1       1.021   3.196  18.092  0.00  0.00    +0.000 A 
ATOM     30  C   UNL     1       2.322   3.201  17.599  0.00  0.00    +0.000 A 
ATOM     31  C   UNL     1       3.404   2.917  18.440  0.00  0.00    +0.000 A 
ATOM     32  C   UNL     1       3.194   2.635  19.802  0.00  0.00    +0.000 A 
ATOM     33  C   UNL     1       4.336   2.375  20.752  0.00  0.00    +0.000 C 
ENDBRANCH  24  31
ENDBRANCH  21  24
ENDBRANCH   1  21
TORSDOF 4
ENDMDL
MODEL 2
REMARK VINA RESULT:      -9.4      2.499      3.918
REMARK  Name = 
REMARK  6 active torsions:
REMARK  status: ('A' for Active; 'I' for Inactive)
REMARK    1  A    between atoms: C_1  and  C_2
REMARK    2  A    between atoms: C_6  and  N_7
REMARK    3  A    between atoms: N_7  and  S_8
REMARK    4  A    between atoms: S_8  and  C_11
REMARK    5  A    between atoms: C_14  and  C_15
REMARK    6  A    between atoms: C_29  and  C_30
REMARK                            x       y       z     vdW  Elec       q    Type
REMARK                         _______ _______ _______ _____ _____    ______ ____
ROOT
ATOM      1  C   UNL     1       2.371   4.664  18.870  0.00  0.00    +0.000 A 
ATOM      2  C   UNL     1       2.071   4.701  20.236  0.00  0.00    +0.000 A 
ATOM      3  C   UNL     1       1.807   5.935  20.859  0.00  0.00    +0.000 A 
ATOM      4  C   UNL     1       1.858   7.130  20.124  0.00  0.00    +0.000 A 
ATOM      5  C   UNL     1       2.239   7.080  18.771  0.00  0.00    +0.000 A 
ATOM      6  C   UNL     1       2.485   5.853  18.147  0.00  0.00    +0.000 A 
ENDROOT
BRANCH   4   7
ATOM      7  C   UNL     1       1.487   8.445  20.773  0.00  0.00    +0.000 C 
ATOM      8  O   UNL     1       1.318   8.489  21.985  0.00  0.00    +0.000 OA
ATOM      9  N   UNL     1       1.322   9.467  19.859  0.00  0.00    +0.000 N 
ATOM     10  C   UNL     1       0.962  10.770  20.125  0.00  0.00    +0.000 A 
ATOM     11  N   UNL     1       0.743  11.423  21.246  0.00  0.00    +0.000 NA
ATOM     12  C   UNL     1       0.286  12.682  20.869  0.00  0.00    +0.000 A 
ATOM     13  C   UNL     1      -0.144  13.782  21.631  0.00  0.00    +0.000 A 
ATOM     14  C   UNL     1      -0.648  14.915  20.963  0.00  0.00    +0.000 A 
ATOM     15  C   UNL     1      -0.707  14.964  19.571  0.00  0.00    +0.000 A 
ATOM     16  C   UNL     1      -0.232  13.904  18.795  0.00  0.00    +0.000 A 
ATOM     17  C   UNL     1       0.252  12.792  19.486  0.00  0.00    +0.000 A 
ATOM     18  N   UNL     1       0.779  11.608  19.052  0.00  0.00    +0.000 N 
ATOM     19  H   UNL     1       1.358   9.219  18.883  0.00  0.00    +0.000 HD
ATOM     20  H   UNL     1       0.949  11.370  18.090  0.00  0.00    +0.000 HD
ENDBRANCH   4   7
BRANCH   1  21
ATOM     21  S   UNL     1       2.733   3.128  18.036  0.00  0.00    +0.000 S 
ATOM     22  O   UNL     1       2.344   3.283  16.649  0.00  0.00    +0.000 OA
ATOM     23  O   UNL     1       2.185   2.060  18.845  0.00  0.00    +0.000 OA
BRANCH  21  24
ATOM     24  N   UNL     1       4.418   3.000  18.021  0.00  0.00    +0.000 N 
ATOM     25  H   UNL     1       4.716   2.025  18.022  0.00  0.00    +0.000 HD
BRANCH  24  31
ATOM     26  C   UNL     1       7.404   7.034  17.554  0.00  0.00    +0.000 C 
ATOM     27  C   UNL     1       6.620   5.873  16.999  0.00  0.00    +0.000 A 
ATOM     28  C   UNL     1       6.628   5.659  15.611  0.00  0.00    +0.000 A 
ATOM     29  C   UNL     1       5.943   4.585  15.053  0.00  0.00    +0.000 A 
ATOM     30  C   UNL     1       5.239   3.714  15.877  0.00  0.00    +0.000 A 
ATOM     31  C   UNL     1       5.207   3.913  17.263  0.00  0.00    +0.000 A 
ATOM     32  C   UNL     1       5.897   4.992  17.844  0.00  0.00    +0.000 A 
ATOM     33  C   UNL     1       5.929   5.212  19.335  0.00  0.00    +0.000 C 
ENDBRANCH  24  31
ENDBRANCH  21  24
ENDBRANCH   1  21
TORSDOF 4
ENDMDL
MODEL 3
REMARK VINA RESULT:      -9.2      2.278      3.861
REMARK  Name = 
REMARK  6 active torsions:
REMARK  status: ('A' for Active; 'I' for Inactive)
REMARK    1  A    between atoms: C_1  and  C_2
REMARK    2  A    between atoms: C_6  and  N_7
REMARK    3  A    between atoms: N_7  and  S_8
REMARK    4  A    between atoms: S_8  and  C_11
REMARK    5  A    between atoms: C_14  and  C_15
REMARK    6  A    between atoms: C_29  and  C_30
REMARK                            x       y       z     vdW  Elec       q    Type
REMARK                         _______ _______ _______ _____ _____    ______ ____
ROOT
ATOM      1  C   UNL     1       2.418   4.765  18.939  0.00  0.00    +0.000 A 
ATOM      2  C   UNL     1       2.552   5.992  18.281  0.00  0.00    +0.000 A 
ATOM      3  C   UNL     1       2.203   7.181  18.946  0.00  0.00    +0.000 A 
ATOM      4  C   UNL     1       1.706   7.146  20.259  0.00  0.00    +0.000 A 
ATOM      5  C   UNL     1       1.504   5.897  20.874  0.00  0.00    +0.000 A 
ATOM      6  C   UNL     1       1.866   4.715  20.220  0.00  0.00    +0.000 A 
ENDROOT
BRANCH   4   7
ATOM      7  C   UNL     1       1.416   8.429  21.004  0.00  0.00    +0.000 C 
ATOM      8  O   UNL     1       1.920   8.611  22.105  0.00  0.00    +0.000 OA
ATOM      9  N   UNL     1       0.529   9.250  20.334  0.00  0.00    +0.000 N 
ATOM     10  C   UNL     1       0.046  10.469  20.755  0.00  0.00    +0.000 A 
ATOM     11  N   UNL     1       0.302  11.215  21.807  0.00  0.00    +0.000 NA
ATOM     12  C   UNL     1      -0.592  12.278  21.748  0.00  0.00    +0.000 A 
ATOM     13  C   UNL     1      -0.813  13.358  22.619  0.00  0.00    +0.000 A 
ATOM     14  C   UNL     1      -1.870  14.249  22.343  0.00  0.00    +0.000 A 
ATOM     15  C   UNL     1      -2.678  14.082  21.219  0.00  0.00    +0.000 A 
ATOM     16  C   UNL     1      -2.439  13.048  20.310  0.00  0.00    +0.000 A 
ATOM     17  C   UNL     1      -1.391  12.177  20.616  0.00  0.00    +0.000 A 
ATOM     18  N   UNL     1      -0.895  11.085  19.964  0.00  0.00    +0.000 N 
ATOM     19  H   UNL     1       0.097   8.877  19.503  0.00  0.00    +0.000 HD
ATOM     20  H   UNL     1      -1.213  10.752  19.070  0.00  0.00    +0.000 HD
ENDBRANCH   4   7
BRANCH   1  21
ATOM     21  S   UNL     1       2.828   3.225  18.134  0.00  0.00    +0.000 S 
ATOM     22  O   UNL     1       2.441   3.344  16.743  0.00  0.00    +0.000 OA
ATOM     23  O   UNL     1       2.306   2.157  18.960  0.00  0.00    +0.000 OA
BRANCH  21  24
ATOM     24  N   UNL     1       4.516   3.145  18.128  0.00  0.00    +0.000 N 
ATOM     25  H   UNL     1       4.842   2.180  18.167  0.00  0.00    +0.000 HD
BRANCH  24  31
ATOM     26  C   UNL     1       7.480   7.178  17.529  0.00  0.00    +0.000 C 
ATOM     27  C   UNL     1       6.682   6.010  17.010  0.00  0.00    +0.000 A 
ATOM     28  C   UNL     1       6.651   5.780  15.625  0.00  0.00    +0.000 A 
ATOM     29  C   UNL     1       5.951   4.699  15.099  0.00  0.00    +0.000 A 
ATOM     30  C   UNL     1       5.273   3.836  15.953  0.00  0.00    +0.000 A 
ATOM     31  C   UNL     1       5.280   4.051  17.337  0.00  0.00    +0.000 A 
ATOM     32  C   UNL     1       5.985   5.137  17.886  0.00  0.00    +0.000 A 
ATOM     33  C   UNL     1       6.060   5.374  19.372  0.00  0.00    +0.000 C 
ENDBRANCH  24  31
ENDBRANCH  21  24
ENDBRANCH   1  21
TORSDOF 4
ENDMDL
MODEL 4
REMARK VINA RESULT:      -9.2      6.519      8.073
REMARK  Name = 
REMARK  6 active torsions:
REMARK  status: ('A' for Active; 'I' for Inactive)
REMARK    1  A    between atoms: C_1  and  C_2
REMARK    2  A    between atoms: C_6  and  N_7
REMARK    3  A    between atoms: N_7  and  S_8
REMARK    4  A    between atoms: S_8  and  C_11
REMARK    5  A    between atoms: C_14  and  C_15
REMARK    6  A    between atoms: C_29  and  C_30
REMARK                            x       y       z     vdW  Elec       q    Type
REMARK                         _______ _______ _______ _____ _____    ______ ____
ROOT
ATOM      1  C   UNL     1       7.331   6.522  17.542  0.00  0.00    +0.000 A 
ATOM      2  C   UNL     1       7.096   7.751  16.917  0.00  0.00    +0.000 A 
ATOM      3  C   UNL     1       7.671   8.922  17.443  0.00  0.00    +0.000 A 
ATOM      4  C   UNL     1       8.465   8.870  18.600  0.00  0.00    +0.000 A 
ATOM      5  C   UNL     1       8.625   7.637  19.258  0.00  0.00    +0.000 A 
ATOM      6  C   UNL     1       8.068   6.469  18.727  0.00  0.00    +0.000 A 
ENDROOT
BRANCH   4   7
ATOM      7  C   UNL     1       9.155  10.114  19.113  0.00  0.00    +0.000 C 
ATOM      8  O   UNL     1       9.300  10.265  20.319  0.00  0.00    +0.000 OA
ATOM      9  N   UNL     1       9.501  10.990  18.103  0.00  0.00    +0.000 N 
ATOM     10  C   UNL     1      10.116  12.215  18.240  0.00  0.00    +0.000 A 
ATOM     11  N   UNL     1      10.592  12.862  19.282  0.00  0.00    +0.000 NA
ATOM     12  C   UNL     1      10.978  14.112  18.810  0.00  0.00    +0.000 A 
ATOM     13  C   UNL     1      11.510  15.233  19.471  0.00  0.00    +0.000 A 
ATOM     14  C   UNL     1      11.723  16.417  18.737  0.00  0.00    +0.000 A 
ATOM     15  C   UNL     1      11.432  16.482  17.375  0.00  0.00    +0.000 A 
ATOM     16  C   UNL     1      10.956  15.363  16.688  0.00  0.00    +0.000 A 
ATOM     17  C   UNL     1      10.746  14.208  17.445  0.00  0.00    +0.000 A 
ATOM     18  N   UNL     1      10.299  12.964  17.103  0.00  0.00    +0.000 N 
ATOM     19  H   UNL     1       9.175  10.772  17.174  0.00  0.00    +0.000 HD
ATOM     20  H   UNL     1      10.082  12.665  16.167  0.00  0.00    +0.000 HD
ENDBRANCH   4   7
BRANCH   1  21
ATOM     21  S   UNL     1       6.610   5.009  16.927  0.00  0.00    +0.000 S 
ATOM     22  O   UNL     1       7.691   4.178  16.438  0.00  0.00    +0.000 OA
ATOM     23  O   UNL     1       5.509   5.379  16.062  0.00  0.00    +0.000 OA
BRANCH  21  24
ATOM     24  N   UNL     1       6.001   4.207  18.283  0.00  0.00    +0.000 N 
ATOM     25  H   UNL     1       6.702   4.140  19.021  0.00  0.00    +0.000 HD
BRANCH  24  31
ATOM     26  C   UNL     1       1.161   2.832  18.587  0.00  0.00    +0.000 C 
ATOM     27  C   UNL     1       2.303   3.785  18.828  0.00  0.00    +0.000 A 
ATOM     28  C   UNL     1       2.041   4.993  19.494  0.00  0.00    +0.000 A 
ATOM     29  C   UNL     1       3.067   5.893  19.765  0.00  0.00    +0.000 A 
ATOM     30  C   UNL     1       4.367   5.595  19.370  0.00  0.00    +0.000 A 
ATOM     31  C   UNL     1       4.650   4.402  18.694  0.00  0.00    +0.000 A 
ATOM     32  C   UNL     1       3.626   3.480  18.415  0.00  0.00    +0.000 A 
ATOM     33  C   UNL     1       3.898   2.162  17.736  0.00  0.00    +0.000 C 
ENDBRANCH  24  31
ENDBRANCH  21  24
ENDBRANCH   1  21
TORSDOF 4
ENDMDL
MODEL 5
REMARK VINA RESULT:      -9.0      2.007      2.565
REMARK  Name = 
REMARK  6 active torsions:
REMARK  status: ('A' for Active; 'I' for Inactive)
REMARK    1  A    between atoms: C_1  and  C_2
REMARK    2  A    between atoms: C_6  and  N_7
REMARK    3  A    between atoms: N_7  and  S_8
REMARK    4  A    between atoms: S_8  and  C_11
REMARK    5  A    between atoms: C_14  and  C_15
REMARK    6  A    between atoms: C_29  and  C_30
REMARK                            x       y       z     vdW  Elec       q    Type
REMARK                         _______ _______ _______ _____ _____    ______ ____
ROOT
ATOM      1  C   UNL     1       4.218   6.012  18.111  0.00  0.00    +0.000 A 
ATOM      2  C   UNL     1       3.683   6.035  19.403  0.00  0.00    +0.000 A 
ATOM      3  C   UNL     1       2.721   7.003  19.742  0.00  0.00    +0.000 A 
ATOM      4  C   UNL     1       2.305   7.957  18.799  0.00  0.00    +0.000 A 
ATOM      5  C   UNL     1       2.912   7.966  17.531  0.00  0.00    +0.000 A 
ATOM      6  C   UNL     1       3.856   6.994  17.186  0.00  0.00    +0.000 A 
ENDROOT
BRANCH   4   7
ATOM      7  C   UNL     1       1.207   8.940  19.137  0.00  0.00    +0.000 C 
ATOM      8  O   UNL     1       1.154   9.417  20.264  0.00  0.00    +0.000 OA
ATOM      9  N   UNL     1       0.326   9.141  18.092  0.00  0.00    +0.000 N 
ATOM     10  C   UNL     1      -0.788   9.951  18.089  0.00  0.00    +0.000 A 
ATOM     11  N   UNL     1      -1.293  10.777  18.979  0.00  0.00    +0.000 NA
ATOM     12  C   UNL     1      -2.503  11.213  18.451  0.00  0.00    +0.000 A 
ATOM     13  C   UNL     1      -3.492  12.066  18.970  0.00  0.00    +0.000 A 
ATOM     14  C   UNL     1      -4.678  12.259  18.234  0.00  0.00    +0.000 A 
ATOM     15  C   UNL     1      -4.870  11.636  17.002  0.00  0.00    +0.000 A 
ATOM     16  C   UNL     1      -3.876  10.831  16.442  0.00  0.00    +0.000 A 
ATOM     17  C   UNL     1      -2.717  10.651  17.200  0.00  0.00    +0.000 A 
ATOM     18  N   UNL     1      -1.573   9.943  16.961  0.00  0.00    +0.000 N 
ATOM     19  H   UNL     1       0.436   8.553  17.281  0.00  0.00    +0.000 HD
ATOM     20  H   UNL     1      -1.369   9.446  16.111  0.00  0.00    +0.000 HD
ENDBRANCH   4   7
BRANCH   1  21
ATOM     21  S   UNL     1       5.455   4.817  17.634  0.00  0.00    +0.000 S 
ATOM     22  O   UNL     1       6.458   4.787  18.679  0.00  0.00    +0.000 OA
ATOM     23  O   UNL     1       5.822   5.102  16.263  0.00  0.00    +0.000 OA
BRANCH  21  24
ATOM     24  N   UNL     1       4.690   3.312  17.699  0.00  0.00    +0.000 N 
ATOM     25  H   UNL     1       5.362   2.559  17.843  0.00  0.00    +0.000 HD
BRANCH  24  31
ATOM     26  C   UNL     1       1.742   2.168  21.624  0.00  0.00    +0.000 C 
ATOM     27  C   UNL     1       1.971   2.594  20.197  0.00  0.00    +0.000 A 
ATOM     28  C   UNL     1       0.854   2.863  19.389  0.00  0.00    +0.000 A 
ATOM     29  C   UNL     1       1.015   3.286  18.073  0.00  0.00    +0.000 A 
ATOM     30  C   UNL     1       2.294   3.444  17.551  0.00  0.00    +0.000 A 
ATOM     31  C   UNL     1       3.422   3.172  18.335  0.00  0.00    +0.000 A 
ATOM     32  C   UNL     1       3.279   2.746  19.667  0.00  0.00    +0.000 A 
ATOM     33  C   UNL     1       4.467   2.492  20.559  0.00  0.00    +0.000 C 
ENDBRANCH  24  31
ENDBRANCH  21  24
ENDBRANCH   1  21
TORSDOF 4
ENDMDL
MODEL 6
REMARK VINA RESULT:      -9.0      0.676      1.762
REMARK  Name = 
REMARK  6 active torsions:
REMARK  status: ('A' for Active; 'I' for Inactive)
REMARK    1  A    between atoms: C_1  and  C_2
REMARK    2  A    between atoms: C_6  and  N_7
REMARK    3  A    between atoms: N_7  and  S_8
REMARK    4  A    between atoms: S_8  and  C_11
REMARK    5  A    between atoms: C_14  and  C_15
REMARK    6  A    between atoms: C_29  and  C_30
REMARK                            x       y       z     vdW  Elec       q    Type
REMARK                         _______ _______ _______ _____ _____    ______ ____
ROOT
ATOM      1  C   UNL     1       4.602   6.007  18.454  0.00  0.00    +0.000 A 
ATOM      2  C   UNL     1       4.373   6.849  17.361  0.00  0.00    +0.000 A 
ATOM      3  C   UNL     1       3.303   7.762  17.396  0.00  0.00    +0.000 A 
ATOM      4  C   UNL     1       2.453   7.822  18.512  0.00  0.00    +0.000 A 
ATOM      5  C   UNL     1       2.652   6.913  19.566  0.00  0.00    +0.000 A 
ATOM      6  C   UNL     1       3.725   6.017  19.541  0.00  0.00    +0.000 A 
ENDROOT
BRANCH   4   7
ATOM      7  C   UNL     1       1.359   8.863  18.586  0.00  0.00    +0.000 C 
ATOM      8  O   UNL     1       0.934   9.361  17.551  0.00  0.00    +0.000 OA
ATOM      9  N   UNL     1       1.001   9.174  19.883  0.00  0.00    +0.000 N 
ATOM     10  C   UNL     1       0.060  10.095  20.287  0.00  0.00    +0.000 A 
ATOM     11  N   UNL     1      -0.779  10.862  19.625  0.00  0.00    +0.000 NA
ATOM     12  C   UNL     1      -1.387  11.673  20.578  0.00  0.00    +0.000 A 
ATOM     13  C   UNL     1      -2.329  12.708  20.454  0.00  0.00    +0.000 A 
ATOM     14  C   UNL     1      -2.703  13.428  21.606  0.00  0.00    +0.000 A 
ATOM     15  C   UNL     1      -2.168  13.115  22.856  0.00  0.00    +0.000 A 
ATOM     16  C   UNL     1      -1.274  12.054  23.009  0.00  0.00    +0.000 A 
ATOM     17  C   UNL     1      -0.915  11.366  21.847  0.00  0.00    +0.000 A 
ATOM     18  N   UNL     1      -0.084  10.303  21.638  0.00  0.00    +0.000 N 
ATOM     19  H   UNL     1       1.558   8.772  20.621  0.00  0.00    +0.000 HD
ATOM     20  H   UNL     1       0.394   9.792  22.361  0.00  0.00    +0.000 HD
ENDBRANCH   4   7
BRANCH   1  21
ATOM     21  S   UNL     1       5.934   4.818  18.453  0.00  0.00    +0.000 S 
ATOM     22  O   UNL     1       6.527   4.827  19.774  0.00  0.00    +0.000 OA
ATOM     23  O   UNL     1       6.739   5.075  17.277  0.00  0.00    +0.000 OA
BRANCH  21  24
ATOM     24  N   UNL     1       5.198   3.305  18.298  0.00  0.00    +0.000 N 
ATOM     25  H   UNL     1       5.891   2.565  18.188  0.00  0.00    +0.000 HD
BRANCH  24  31
ATOM     26  C   UNL     1       0.217   2.758  18.837  0.00  0.00    +0.000 C 
ATOM     27  C   UNL     1       1.632   2.748  19.355  0.00  0.00    +0.000 A 
ATOM     28  C   UNL     1       1.851   2.421  20.703  0.00  0.00    +0.000 A 
ATOM     29  C   UNL     1       3.142   2.371  21.221  0.00  0.00    +0.000 A 
ATOM     30  C   UNL     1       4.227   2.648  20.397  0.00  0.00    +0.000 A 
ATOM     31  C   UNL     1       4.032   2.987  19.052  0.00  0.00    +0.000 A 
ATOM     32  C   UNL     1       2.735   3.040  18.511  0.00  0.00    +0.000 A 
ATOM     33  C   UNL     1       2.485   3.350  17.057  0.00  0.00    +0.000 C 
ENDBRANCH  24  31
ENDBRANCH  21  24
ENDBRANCH   1  21
TORSDOF 4
ENDMDL
MODEL 7
REMARK VINA RESULT:      -9.0      2.097      3.559
REMARK  Name = 
REMARK  6 active torsions:
REMARK  status: ('A' for Active; 'I' for Inactive)
REMARK    1  A    between atoms: C_1  and  C_2
REMARK    2  A    between atoms: C_6  and  N_7
REMARK    3  A    between atoms: N_7  and  S_8
REMARK    4  A    between atoms: S_8  and  C_11
REMARK    5  A    between atoms: C_14  and  C_15
REMARK    6  A    between atoms: C_29  and  C_30
REMARK                            x       y       z     vdW  Elec       q    Type
REMARK                         _______ _______ _______ _____ _____    ______ ____
ROOT
ATOM      1  C   UNL     1       2.979   4.805  19.046  0.00  0.00    +0.000 A 
ATOM      2  C   UNL     1       2.730   5.461  17.836  0.00  0.00    +0.000 A 
ATOM      3  C   UNL     1       2.272   6.791  17.845  0.00  0.00    +0.000 A 
ATOM      4  C   UNL     1       2.048   7.461  19.058  0.00  0.00    +0.000 A 
ATOM      5  C   UNL     1       2.229   6.759  20.264  0.00  0.00    +0.000 A 
ATOM      6  C   UNL     1       2.700   5.442  20.257  0.00  0.00    +0.000 A 
ENDROOT
BRANCH   4   7
ATOM      7  C   UNL     1       1.642   8.917  19.066  0.00  0.00    +0.000 C 
ATOM      8  O   UNL     1       2.051   9.658  18.181  0.00  0.00    +0.000 OA
ATOM      9  N   UNL     1       0.867   9.253  20.160  0.00  0.00    +0.000 N 
ATOM     10  C   UNL     1       0.362  10.496  20.469  0.00  0.00    +0.000 A 
ATOM     11  N   UNL     1       0.393  11.652  19.843  0.00  0.00    +0.000 NA
ATOM     12  C   UNL     1      -0.182  12.572  20.714  0.00  0.00    +0.000 A 
ATOM     13  C   UNL     1      -0.378  13.959  20.606  0.00  0.00    +0.000 A 
ATOM     14  C   UNL     1      -0.915  14.658  21.705  0.00  0.00    +0.000 A 
ATOM     15  C   UNL     1      -1.266  13.992  22.880  0.00  0.00    +0.000 A 
ATOM     16  C   UNL     1      -1.131  12.607  22.987  0.00  0.00    +0.000 A 
ATOM     17  C   UNL     1      -0.588  11.944  21.884  0.00  0.00    +0.000 A 
ATOM     18  N   UNL     1      -0.322  10.625  21.654  0.00  0.00    +0.000 N 
ATOM     19  H   UNL     1       0.747   8.548  20.870  0.00  0.00    +0.000 HD
ATOM     20  H   UNL     1      -0.543   9.872  22.285  0.00  0.00    +0.000 HD
ENDBRANCH   4   7
BRANCH   1  21
ATOM     21  S   UNL     1       3.542   3.112  19.092  0.00  0.00    +0.000 S 
ATOM     22  O   UNL     1       2.898   2.409  18.001  0.00  0.00    +0.000 OA
ATOM     23  O   UNL     1       3.403   2.649  20.457  0.00  0.00    +0.000 OA
BRANCH  21  24
ATOM     24  N   UNL     1       5.182   3.162  18.690  0.00  0.00    +0.000 N 
ATOM     25  H   UNL     1       5.586   2.226  18.657  0.00  0.00    +0.000 HD
BRANCH  24  31
ATOM     26  C   UNL     1       7.571   7.406  17.390  0.00  0.00    +0.000 C 
ATOM     27  C   UNL     1       6.780   6.162  17.078  0.00  0.00    +0.000 A 
ATOM     28  C   UNL     1       6.455   5.890  15.739  0.00  0.00    +0.000 A 
ATOM     29  C   UNL     1       5.750   4.740  15.398  0.00  0.00    +0.000 A 
ATOM     30  C   UNL     1       5.362   3.849  16.393  0.00  0.00    +0.000 A 
ATOM     31  C   UNL     1       5.665   4.105  17.736  0.00  0.00    +0.000 A 
ATOM     32  C   UNL     1       6.380   5.261  18.098  0.00  0.00    +0.000 A 
ATOM     33  C   UNL     1       6.770   5.546  19.526  0.00  0.00    +0.000 C 
ENDBRANCH  24  31
ENDBRANCH  21  24
ENDBRANCH   1  21
TORSDOF 4
ENDMDL
MODEL 8
REMARK VINA RESULT:      -8.9      5.871      7.109
REMARK  Name = 
REMARK  6 active torsions:
REMARK  status: ('A' for Active; 'I' for Inactive)
REMARK    1  A    between atoms: C_1  and  C_2
REMARK    2  A    between atoms: C_6  and  N_7
REMARK    3  A    between atoms: N_7  and  S_8
REMARK    4  A    between atoms: S_8  and  C_11
REMARK    5  A    between atoms: C_14  and  C_15
REMARK    6  A    between atoms: C_29  and  C_30
REMARK                            x       y       z     vdW  Elec       q    Type
REMARK                         _______ _______ _______ _____ _____    ______ ____
ROOT
ATOM      1  C   UNL     1       6.806   6.273  17.845  0.00  0.00    +0.000 A 
ATOM      2  C   UNL     1       7.840   6.262  18.788  0.00  0.00    +0.000 A 
ATOM      3  C   UNL     1       8.558   7.443  19.048  0.00  0.00    +0.000 A 
ATOM      4  C   UNL     1       8.258   8.628  18.358  0.00  0.00    +0.000 A 
ATOM      5  C   UNL     1       7.269   8.598  17.358  0.00  0.00    +0.000 A 
ATOM      6  C   UNL     1       6.542   7.430  17.109  0.00  0.00    +0.000 A 
ENDROOT
BRANCH   4   7
ATOM      7  C   UNL     1       8.969   9.917  18.702  0.00  0.00    +0.000 C 
ATOM      8  O   UNL     1       9.892   9.896  19.507  0.00  0.00    +0.000 OA
ATOM      9  N   UNL     1       8.421  11.018  18.073  0.00  0.00    +0.000 N 
ATOM     10  C   UNL     1       8.821  12.330  18.196  0.00  0.00    +0.000 A 
ATOM     11  N   UNL     1       9.812  12.903  18.844  0.00  0.00    +0.000 NA
ATOM     12  C   UNL     1       9.625  14.273  18.692  0.00  0.00    +0.000 A 
ATOM     13  C   UNL     1      10.340  15.371  19.198  0.00  0.00    +0.000 A 
ATOM     14  C   UNL     1       9.855  16.671  18.950  0.00  0.00    +0.000 A 
ATOM     15  C   UNL     1       8.696  16.876  18.201  0.00  0.00    +0.000 A 
ATOM     16  C   UNL     1       8.003  15.801  17.642  0.00  0.00    +0.000 A 
ATOM     17  C   UNL     1       8.503  14.525  17.914  0.00  0.00    +0.000 A 
ATOM     18  N   UNL     1       8.082  13.282  17.537  0.00  0.00    +0.000 N 
ATOM     19  H   UNL     1       7.569  10.872  17.555  0.00  0.00    +0.000 HD
ATOM     20  H   UNL     1       7.311  13.097  16.917  0.00  0.00    +0.000 HD
ENDBRANCH   4   7
BRANCH   1  21
ATOM     21  S   UNL     1       5.877   4.797  17.462  0.00  0.00    +0.000 S 
ATOM     22  O   UNL     1       5.866   3.969  18.650  0.00  0.00    +0.000 OA
ATOM     23  O   UNL     1       6.382   4.285  16.206  0.00  0.00    +0.000 OA
BRANCH  21  24
ATOM     24  N   UNL     1       4.279   5.304  17.250  0.00  0.00    +0.000 N 
ATOM     25  H   UNL     1       3.979   5.190  16.282  0.00  0.00    +0.000 HD
BRANCH  24  31
ATOM     26  C   UNL     1       0.636   2.561  19.397  0.00  0.00    +0.000 C 
ATOM     27  C   UNL     1       1.518   3.779  19.300  0.00  0.00    +0.000 A 
ATOM     28  C   UNL     1       1.374   4.792  20.261  0.00  0.00    +0.000 A 
ATOM     29  C   UNL     1       2.185   5.922  20.230  0.00  0.00    +0.000 A 
ATOM     30  C   UNL     1       3.148   6.052  19.235  0.00  0.00    +0.000 A 
ATOM     31  C   UNL     1       3.302   5.060  18.259  0.00  0.00    +0.000 A 
ATOM     32  C   UNL     1       2.494   3.909  18.277  0.00  0.00    +0.000 A 
ATOM     33  C   UNL     1       2.663   2.795  17.276  0.00  0.00    +0.000 C 
ENDBRANCH  24  31
ENDBRANCH  21  24
ENDBRANCH   1  21
TORSDOF 4
ENDMDL
MODEL 9
REMARK VINA RESULT:      -8.9      6.504      8.040
REMARK  Name = 
REMARK  6 active torsions:
REMARK  status: ('A' for Active; 'I' for Inactive)
REMARK    1  A    between atoms: C_1  and  C_2
REMARK    2  A    between atoms: C_6  and  N_7
REMARK    3  A    between atoms: N_7  and  S_8
REMARK    4  A    between atoms: S_8  and  C_11
REMARK    5  A    between atoms: C_14  and  C_15
REMARK    6  A    between atoms: C_29  and  C_30
REMARK                            x       y       z     vdW  Elec       q    Type
REMARK                         _______ _______ _______ _____ _____    ______ ____
ROOT
ATOM      1  C   UNL     1       7.077   6.548  17.726  0.00  0.00    +0.000 A 
ATOM      2  C   UNL     1       7.987   6.460  18.786  0.00  0.00    +0.000 A 
ATOM      3  C   UNL     1       8.675   7.611  19.211  0.00  0.00    +0.000 A 
ATOM      4  C   UNL     1       8.469   8.843  18.570  0.00  0.00    +0.000 A 
ATOM      5  C   UNL     1       7.611   8.894  17.457  0.00  0.00    +0.000 A 
ATOM      6  C   UNL     1       6.913   7.755  17.043  0.00  0.00    +0.000 A 
ENDROOT
BRANCH   4   7
ATOM      7  C   UNL     1       9.141  10.096  19.085  0.00  0.00    +0.000 C 
ATOM      8  O   UNL     1       9.256  10.262  20.293  0.00  0.00    +0.000 OA
ATOM      9  N   UNL     1       9.508  10.963  18.074  0.00  0.00    +0.000 N 
ATOM     10  C   UNL     1      10.114  12.192  18.213  0.00  0.00    +0.000 A 
ATOM     11  N   UNL     1      10.562  12.852  19.258  0.00  0.00    +0.000 NA
ATOM     12  C   UNL     1      10.954  14.099  18.781  0.00  0.00    +0.000 A 
ATOM     13  C   UNL     1      11.466  15.229  19.442  0.00  0.00    +0.000 A 
ATOM     14  C   UNL     1      11.691  16.405  18.700  0.00  0.00    +0.000 A 
ATOM     15  C   UNL     1      11.433  16.454  17.331  0.00  0.00    +0.000 A 
ATOM     16  C   UNL     1      10.979  15.325  16.645  0.00  0.00    +0.000 A 
ATOM     17  C   UNL     1      10.756  14.178  17.410  0.00  0.00    +0.000 A 
ATOM     18  N   UNL     1      10.322  12.928  17.071  0.00  0.00    +0.000 N 
ATOM     19  H   UNL     1       9.205  10.732  17.141  0.00  0.00    +0.000 HD
ATOM     20  H   UNL     1      10.129  12.618  16.134  0.00  0.00    +0.000 HD
ENDBRANCH   4   7
BRANCH   1  21
ATOM     21  S   UNL     1       6.193   5.115  17.135  0.00  0.00    +0.000 S 
ATOM     22  O   UNL     1       6.165   4.145  18.210  0.00  0.00    +0.000 OA
ATOM     23  O   UNL     1       6.745   4.773  15.841  0.00  0.00    +0.000 OA
BRANCH  21  24
ATOM     24  N   UNL     1       4.591   5.614  16.936  0.00  0.00    +0.000 N 
ATOM     25  H   UNL     1       4.281   5.493  15.971  0.00  0.00    +0.000 HD
BRANCH  24  31
ATOM     26  C   UNL     1       0.960   2.884  19.121  0.00  0.00    +0.000 C 
ATOM     27  C   UNL     1       1.848   4.098  19.015  0.00  0.00    +0.000 A 
ATOM     28  C   UNL     1       1.720   5.109  19.981  0.00  0.00    +0.000 A 
ATOM     29  C   UNL     1       2.536   6.236  19.942  0.00  0.00    +0.000 A 
ATOM     30  C   UNL     1       3.488   6.363  18.936  0.00  0.00    +0.000 A 
ATOM     31  C   UNL     1       3.625   5.373  17.956  0.00  0.00    +0.000 A 
ATOM     32  C   UNL     1       2.811   4.226  17.982  0.00  0.00    +0.000 A 
ATOM     33  C   UNL     1       2.963   3.114  16.976  0.00  0.00    +0.000 C 
ENDBRANCH  24  31
ENDBRANCH  21  24
ENDBRANCH   1  21
TORSDOF 4
ENDMDL
