MODEL 1
REMARK VINA RESULT:      -7.9      0.000      0.000
REMARK  Name = 
REMARK  5 active torsions:
REMARK  status: ('A' for Active; 'I' for Inactive)
REMARK    1  A    between atoms: C_2  and  C_3
REMARK    2  A    between atoms: C_3  and  N_4
REMARK    3  A    between atoms: N_19  and  C_20
REMARK    4  A    between atoms: C_25  and  O_26
REMARK    5  A    between atoms: O_26  and  C_27
REMARK                            x       y       z     vdW  Elec       q    Type
REMARK                         _______ _______ _______ _____ _____    ______ ____
ROOT
ATOM      1  N   UNL     1       3.616   4.554  18.820  0.00  0.00    +0.000 N 
ATOM      2  C   UNL     1       4.608   5.241  19.446  0.00  0.00    +0.000 C 
ATOM      3  O   UNL     1       5.701   4.818  19.767  0.00  0.00    +0.000 OA
ATOM      4  N   UNL     1       4.183   6.529  19.647  0.00  0.00    +0.000 N 
ATOM      5  C   UNL     1       2.931   6.781  18.976  0.00  0.00    +0.000 C 
ATOM      6  C   UNL     1       3.122   7.570  17.661  0.00  0.00    +0.000 C 
ATOM      7  C   UNL     1       2.089   8.706  17.641  0.00  0.00    +0.000 C 
ATOM      8  C   UNL     1       1.543   8.710  19.032  0.00  0.00    +0.000 A 
ATOM      9  C   UNL     1       0.672   9.644  19.574  0.00  0.00    +0.000 A 
ATOM     10  C   UNL     1       0.268   9.486  20.899  0.00  0.00    +0.000 A 
ATOM     11  C   UNL     1       0.729   8.401  21.659  0.00  0.00    +0.000 A 
ATOM     12  C   UNL     1       1.596   7.459  21.100  0.00  0.00    +0.000 A 
ATOM     13  C   UNL     1       1.994   7.619  19.779  0.00  0.00    +0.000 A 
ATOM     14  C   UNL     1       2.513   5.348  18.627  0.00  0.00    +0.000 C 
ATOM     15  O   UNL     1       1.441   4.987  18.167  0.00  0.00    +0.000 OA
ATOM     16  H   UNL     1       4.795   7.241  20.018  0.00  0.00    +0.000 HD
ENDROOT
BRANCH   1  17
ATOM     17  C   UNL     1       3.801   3.238  18.265  0.00  0.00    +0.000 C 
BRANCH  17  19
ATOM     18  O   UNL     1       3.245   3.523  15.933  0.00  0.00    +0.000 OA
ATOM     19  C   UNL     1       4.127   3.474  16.786  0.00  0.00    +0.000 C 
ATOM     20  N   UNL     1       5.474   3.709  16.554  0.00  0.00    +0.000 N 
ATOM     21  H   UNL     1       6.112   3.565  17.327  0.00  0.00    +0.000 HD
BRANCH  20  22
ATOM     22  C   UNL     1       6.049   4.013  15.304  0.00  0.00    +0.000 A 
ATOM     23  C   UNL     1       5.585   3.341  14.160  0.00  0.00    +0.000 A 
ATOM     24  C   UNL     1       6.111   3.614  12.895  0.00  0.00    +0.000 A 
ATOM     25  C   UNL     1       7.135   4.542  12.761  0.00  0.00    +0.000 A 
ATOM     26  C   UNL     1       7.606   5.212  13.889  0.00  0.00    +0.000 A 
ATOM     27  C   UNL     1       7.053   4.989  15.161  0.00  0.00    +0.000 A 
BRANCH  27  28
ATOM     28  O   UNL     1       7.697   5.717  16.125  0.00  0.00    +0.000 OA
BRANCH  28  29
ATOM     29  C   UNL     1       6.996   6.635  16.939  0.00  0.00    +0.000 C 
ATOM     30  F   UNL     1       7.756   7.729  17.189  0.00  0.00    +0.000 F 
ATOM     31  F   UNL     1       5.882   7.060  16.293  0.00  0.00    +0.000 F 
ENDBRANCH  28  29
ENDBRANCH  27  28
ENDBRANCH  20  22
ENDBRANCH  17  19
ENDBRANCH   1  17
TORSDOF 5
ENDMDL
MODEL 2
REMARK VINA RESULT:      -7.7      4.784      7.293
REMARK  Name = 
REMARK  5 active torsions:
REMARK  status: ('A' for Active; 'I' for Inactive)
REMARK    1  A    between atoms: C_2  and  C_3
REMARK    2  A    between atoms: C_3  and  N_4
REMARK    3  A    between atoms: N_19  and  C_20
REMARK    4  A    between atoms: C_25  and  O_26
REMARK    5  A    between atoms: O_26  and  C_27
REMARK                            x       y       z     vdW  Elec       q    Type
REMARK                         _______ _______ _______ _____ _____    ______ ____
ROOT
ATOM      1  N   UNL     1       0.077  10.975  19.810  0.00  0.00    +0.000 N 
ATOM      2  C   UNL     1      -0.391  11.092  18.539  0.00  0.00    +0.000 C 
ATOM      3  O   UNL     1      -0.925  10.227  17.872  0.00  0.00    +0.000 OA
ATOM      4  N   UNL     1      -0.182  12.380  18.117  0.00  0.00    +0.000 N 
ATOM      5  C   UNL     1       0.280  13.219  19.197  0.00  0.00    +0.000 C 
ATOM      6  C   UNL     1      -0.849  14.109  19.766  0.00  0.00    +0.000 C 
ATOM      7  C   UNL     1      -0.298  15.537  19.897  0.00  0.00    +0.000 C 
ATOM      8  C   UNL     1       0.998  15.485  19.154  0.00  0.00    +0.000 A 
ATOM      9  C   UNL     1       1.822  16.559  18.858  0.00  0.00    +0.000 A 
ATOM     10  C   UNL     1       3.000  16.319  18.151  0.00  0.00    +0.000 A 
ATOM     11  C   UNL     1       3.340  15.017  17.756  0.00  0.00    +0.000 A 
ATOM     12  C   UNL     1       2.509  13.939  18.071  0.00  0.00    +0.000 A 
ATOM     13  C   UNL     1       1.338  14.183  18.778  0.00  0.00    +0.000 A 
ATOM     14  C   UNL     1       0.632  12.153  20.241  0.00  0.00    +0.000 C 
ATOM     15  O   UNL     1       1.206  12.329  21.304  0.00  0.00    +0.000 OA
ATOM     16  H   UNL     1      -0.533  12.715  17.232  0.00  0.00    +0.000 HD
ENDROOT
BRANCH   1  17
ATOM     17  C   UNL     1      -0.173   9.822  20.636  0.00  0.00    +0.000 C 
BRANCH  17  19
ATOM     18  O   UNL     1       1.826   8.770  21.486  0.00  0.00    +0.000 OA
ATOM     19  C   UNL     1       1.095   8.969  20.520  0.00  0.00    +0.000 C 
ATOM     20  N   UNL     1       1.257   8.398  19.267  0.00  0.00    +0.000 N 
ATOM     21  H   UNL     1       0.629   8.700  18.532  0.00  0.00    +0.000 HD
BRANCH  20  22
ATOM     22  C   UNL     1       2.297   7.523  18.893  0.00  0.00    +0.000 A 
ATOM     23  C   UNL     1       3.152   7.893  17.841  0.00  0.00    +0.000 A 
ATOM     24  C   UNL     1       4.207   7.070  17.440  0.00  0.00    +0.000 A 
ATOM     25  C   UNL     1       4.401   5.846  18.066  0.00  0.00    +0.000 A 
ATOM     26  C   UNL     1       3.557   5.467  19.109  0.00  0.00    +0.000 A 
ATOM     27  C   UNL     1       2.524   6.305  19.560  0.00  0.00    +0.000 A 
BRANCH  27  28
ATOM     28  O   UNL     1       1.795   5.714  20.556  0.00  0.00    +0.000 OA
BRANCH  28  29
ATOM     29  C   UNL     1       1.809   4.312  20.741  0.00  0.00    +0.000 C 
ATOM     30  F   UNL     1       2.219   3.999  21.994  0.00  0.00    +0.000 F 
ATOM     31  F   UNL     1       0.553   3.821  20.595  0.00  0.00    +0.000 F 
ENDBRANCH  28  29
ENDBRANCH  27  28
ENDBRANCH  20  22
ENDBRANCH  17  19
ENDBRANCH   1  17
TORSDOF 5
ENDMDL
MODEL 3
REMARK VINA RESULT:      -7.6      2.457      3.661
REMARK  Name = 
REMARK  5 active torsions:
REMARK  status: ('A' for Active; 'I' for Inactive)
REMARK    1  A    between atoms: C_2  and  C_3
REMARK    2  A    between atoms: C_3  and  N_4
REMARK    3  A    between atoms: N_19  and  C_20
REMARK    4  A    between atoms: C_25  and  O_26
REMARK    5  A    between atoms: O_26  and  C_27
REMARK                            x       y       z     vdW  Elec       q    Type
REMARK                         _______ _______ _______ _____ _____    ______ ____
ROOT
ATOM      1  N   UNL     1       3.878   4.390  17.978  0.00  0.00    +0.000 N 
ATOM      2  C   UNL     1       2.661   4.199  17.401  0.00  0.00    +0.000 C 
ATOM      3  O   UNL     1       2.343   3.305  16.643  0.00  0.00    +0.000 OA
ATOM      4  N   UNL     1       1.816   5.187  17.836  0.00  0.00    +0.000 N 
ATOM      5  C   UNL     1       2.421   5.974  18.883  0.00  0.00    +0.000 C 
ATOM      6  C   UNL     1       1.893   5.586  20.283  0.00  0.00    +0.000 C 
ATOM      7  C   UNL     1       1.547   6.882  21.030  0.00  0.00    +0.000 C 
ATOM      8  C   UNL     1       1.614   7.931  19.967  0.00  0.00    +0.000 A 
ATOM      9  C   UNL     1       1.247   9.262  20.097  0.00  0.00    +0.000 A 
ATOM     10  C   UNL     1       1.379  10.098  18.989  0.00  0.00    +0.000 A 
ATOM     11  C   UNL     1       1.876   9.601  17.776  0.00  0.00    +0.000 A 
ATOM     12  C   UNL     1       2.255   8.261  17.659  0.00  0.00    +0.000 A 
ATOM     13  C   UNL     1       2.125   7.432  18.767  0.00  0.00    +0.000 A 
ATOM     14  C   UNL     1       3.878   5.512  18.767  0.00  0.00    +0.000 C 
ATOM     15  O   UNL     1       4.845   5.983  19.345  0.00  0.00    +0.000 OA
ATOM     16  H   UNL     1       0.834   5.190  17.602  0.00  0.00    +0.000 HD
ENDROOT
BRANCH   1  17
ATOM     17  C   UNL     1       4.939   3.418  17.913  0.00  0.00    +0.000 C 
BRANCH  17  19
ATOM     18  O   UNL     1       7.045   4.439  17.322  0.00  0.00    +0.000 OA
ATOM     19  C   UNL     1       5.960   4.012  16.937  0.00  0.00    +0.000 C 
ATOM     20  N   UNL     1       5.563   3.924  15.611  0.00  0.00    +0.000 N 
ATOM     21  H   UNL     1       4.614   3.623  15.427  0.00  0.00    +0.000 HD
BRANCH  20  22
ATOM     22  C   UNL     1       6.325   4.336  14.499  0.00  0.00    +0.000 A 
ATOM     23  C   UNL     1       7.296   5.338  14.672  0.00  0.00    +0.000 A 
ATOM     24  C   UNL     1       8.087   5.772  13.606  0.00  0.00    +0.000 A 
ATOM     25  C   UNL     1       7.896   5.233  12.341  0.00  0.00    +0.000 A 
ATOM     26  C   UNL     1       6.933   4.241  12.157  0.00  0.00    +0.000 A 
ATOM     27  C   UNL     1       6.164   3.754  13.227  0.00  0.00    +0.000 A 
BRANCH  27  28
ATOM     28  O   UNL     1       5.255   2.821  12.810  0.00  0.00    +0.000 OA
BRANCH  28  29
ATOM     29  C   UNL     1       5.015   2.596  11.436  0.00  0.00    +0.000 C 
ATOM     30  F   UNL     1       5.327   1.320  11.100  0.00  0.00    +0.000 F 
ATOM     31  F   UNL     1       3.697   2.771  11.168  0.00  0.00    +0.000 F 
ENDBRANCH  28  29
ENDBRANCH  27  28
ENDBRANCH  20  22
ENDBRANCH  17  19
ENDBRANCH   1  17
TORSDOF 5
ENDMDL
MODEL 4
REMARK VINA RESULT:      -7.6      2.609      4.012
REMARK  Name = 
REMARK  5 active torsions:
REMARK  status: ('A' for Active; 'I' for Inactive)
REMARK    1  A    between atoms: C_2  and  C_3
REMARK    2  A    between atoms: C_3  and  N_4
REMARK    3  A    between atoms: N_19  and  C_20
REMARK    4  A    between atoms: C_25  and  O_26
REMARK    5  A    between atoms: O_26  and  C_27
REMARK                            x       y       z     vdW  Elec       q    Type
REMARK                         _______ _______ _______ _____ _____    ______ ____
ROOT
ATOM      1  N   UNL     1       4.427   6.411  17.828  0.00  0.00    +0.000 N 
ATOM      2  C   UNL     1       3.227   7.044  17.925  0.00  0.00    +0.000 C 
ATOM      3  O   UNL     1       2.980   8.194  17.622  0.00  0.00    +0.000 OA
ATOM      4  N   UNL     1       2.306   6.153  18.414  0.00  0.00    +0.000 N 
ATOM      5  C   UNL     1       2.849   4.819  18.483  0.00  0.00    +0.000 C 
ATOM      6  C   UNL     1       2.361   3.930  17.315  0.00  0.00    +0.000 C 
ATOM      7  C   UNL     1       1.913   2.585  17.906  0.00  0.00    +0.000 C 
ATOM      8  C   UNL     1       1.889   2.837  19.379  0.00  0.00    +0.000 A 
ATOM      9  C   UNL     1       1.416   1.974  20.356  0.00  0.00    +0.000 A 
ATOM     10  C   UNL     1       1.473   2.382  21.688  0.00  0.00    +0.000 A 
ATOM     11  C   UNL     1       2.004   3.635  22.026  0.00  0.00    +0.000 A 
ATOM     12  C   UNL     1       2.491   4.492  21.036  0.00  0.00    +0.000 A 
ATOM     13  C   UNL     1       2.434   4.079  19.710  0.00  0.00    +0.000 A 
ATOM     14  C   UNL     1       4.338   5.117  18.277  0.00  0.00    +0.000 C 
ATOM     15  O   UNL     1       5.267   4.331  18.388  0.00  0.00    +0.000 OA
ATOM     16  H   UNL     1       1.326   6.385  18.484  0.00  0.00    +0.000 HD
ENDROOT
BRANCH   1  17
ATOM     17  C   UNL     1       5.563   6.981  17.153  0.00  0.00    +0.000 C 
BRANCH  17  19
ATOM     18  O   UNL     1       4.999   7.251  14.821  0.00  0.00    +0.000 OA
ATOM     19  C   UNL     1       5.436   6.512  15.699  0.00  0.00    +0.000 C 
ATOM     20  N   UNL     1       5.942   5.239  15.490  0.00  0.00    +0.000 N 
ATOM     21  H   UNL     1       6.203   4.700  16.307  0.00  0.00    +0.000 HD
BRANCH  20  22
ATOM     22  C   UNL     1       6.009   4.578  14.247  0.00  0.00    +0.000 A 
ATOM     23  C   UNL     1       4.932   3.768  13.847  0.00  0.00    +0.000 A 
ATOM     24  C   UNL     1       4.942   3.103  12.619  0.00  0.00    +0.000 A 
ATOM     25  C   UNL     1       6.047   3.210  11.786  0.00  0.00    +0.000 A 
ATOM     26  C   UNL     1       7.124   4.007  12.174  0.00  0.00    +0.000 A 
ATOM     27  C   UNL     1       7.109   4.726  13.381  0.00  0.00    +0.000 A 
BRANCH  27  28
ATOM     28  O   UNL     1       8.283   5.400  13.579  0.00  0.00    +0.000 OA
BRANCH  28  29
ATOM     29  C   UNL     1       8.976   5.996  12.501  0.00  0.00    +0.000 C 
ATOM     30  F   UNL     1       8.128   6.713  11.725  0.00  0.00    +0.000 F 
ATOM     31  F   UNL     1       9.909   6.857  12.979  0.00  0.00    +0.000 F 
ENDBRANCH  28  29
ENDBRANCH  27  28
ENDBRANCH  20  22
ENDBRANCH  17  19
ENDBRANCH   1  17
TORSDOF 5
ENDMDL
MODEL 5
REMARK VINA RESULT:      -7.6      2.890      4.089
REMARK  Name = 
REMARK  5 active torsions:
REMARK  status: ('A' for Active; 'I' for Inactive)
REMARK    1  A    between atoms: C_2  and  C_3
REMARK    2  A    between atoms: C_3  and  N_4
REMARK    3  A    between atoms: N_19  and  C_20
REMARK    4  A    between atoms: C_25  and  O_26
REMARK    5  A    between atoms: O_26  and  C_27
REMARK                            x       y       z     vdW  Elec       q    Type
REMARK                         _______ _______ _______ _____ _____    ______ ____
ROOT
ATOM      1  N   UNL     1       5.390   5.810  17.628  0.00  0.00    +0.000 N 
ATOM      2  C   UNL     1       4.254   6.513  17.376  0.00  0.00    +0.000 C 
ATOM      3  O   UNL     1       4.170   7.602  16.842  0.00  0.00    +0.000 OA
ATOM      4  N   UNL     1       3.183   5.776  17.810  0.00  0.00    +0.000 N 
ATOM      5  C   UNL     1       3.584   4.448  18.207  0.00  0.00    +0.000 C 
ATOM      6  C   UNL     1       3.248   3.391  17.130  0.00  0.00    +0.000 C 
ATOM      7  C   UNL     1       2.581   2.200  17.834  0.00  0.00    +0.000 C 
ATOM      8  C   UNL     1       2.302   2.714  19.209  0.00  0.00    +0.000 A 
ATOM      9  C   UNL     1       1.580   2.068  20.200  0.00  0.00    +0.000 A 
ATOM     10  C   UNL     1       1.421   2.705  21.430  0.00  0.00    +0.000 A 
ATOM     11  C   UNL     1       1.986   3.968  21.656  0.00  0.00    +0.000 A 
ATOM     12  C   UNL     1       2.724   4.606  20.654  0.00  0.00    +0.000 A 
ATOM     13  C   UNL     1       2.882   3.965  19.432  0.00  0.00    +0.000 A 
ATOM     14  C   UNL     1       5.106   4.624  18.258  0.00  0.00    +0.000 C 
ATOM     15  O   UNL     1       5.924   3.823  18.682  0.00  0.00    +0.000 OA
ATOM     16  H   UNL     1       2.231   6.069  17.643  0.00  0.00    +0.000 HD
ENDROOT
BRANCH   1  17
ATOM     17  C   UNL     1       6.679   6.188  17.109  0.00  0.00    +0.000 C 
BRANCH  17  19
ATOM     18  O   UNL     1       7.841   4.352  16.055  0.00  0.00    +0.000 OA
ATOM     19  C   UNL     1       6.954   5.198  15.972  0.00  0.00    +0.000 C 
ATOM     20  N   UNL     1       6.056   5.308  14.922  0.00  0.00    +0.000 N 
ATOM     21  H   UNL     1       5.418   6.095  14.934  0.00  0.00    +0.000 HD
BRANCH  20  22
ATOM     22  C   UNL     1       6.032   4.491  13.774  0.00  0.00    +0.000 A 
ATOM     23  C   UNL     1       4.863   3.772  13.473  0.00  0.00    +0.000 A 
ATOM     24  C   UNL     1       4.782   2.958  12.341  0.00  0.00    +0.000 A 
ATOM     25  C   UNL     1       5.885   2.827  11.508  0.00  0.00    +0.000 A 
ATOM     26  C   UNL     1       7.052   3.532  11.798  0.00  0.00    +0.000 A 
ATOM     27  C   UNL     1       7.134   4.395  12.903  0.00  0.00    +0.000 A 
BRANCH  27  28
ATOM     28  O   UNL     1       8.381   4.945  13.021  0.00  0.00    +0.000 OA
BRANCH  28  29
ATOM     29  C   UNL     1       8.598   6.324  12.800  0.00  0.00    +0.000 C 
ATOM     30  F   UNL     1       9.906   6.635  12.967  0.00  0.00    +0.000 F 
ATOM     31  F   UNL     1       8.270   6.639  11.523  0.00  0.00    +0.000 F 
ENDBRANCH  28  29
ENDBRANCH  27  28
ENDBRANCH  20  22
ENDBRANCH  17  19
ENDBRANCH   1  17
TORSDOF 5
ENDMDL
MODEL 6
REMARK VINA RESULT:      -7.6      2.372      7.182
REMARK  Name = 
REMARK  5 active torsions:
REMARK  status: ('A' for Active; 'I' for Inactive)
REMARK    1  A    between atoms: C_2  and  C_3
REMARK    2  A    between atoms: C_3  and  N_4
REMARK    3  A    between atoms: N_19  and  C_20
REMARK    4  A    between atoms: C_25  and  O_26
REMARK    5  A    between atoms: O_26  and  C_27
REMARK                            x       y       z     vdW  Elec       q    Type
REMARK                         _______ _______ _______ _____ _____    ______ ____
ROOT
ATOM      1  N   UNL     1       6.563   5.753  17.461  0.00  0.00    +0.000 N 
ATOM      2  C   UNL     1       7.617   4.897  17.528  0.00  0.00    +0.000 C 
ATOM      3  O   UNL     1       8.298   4.649  18.503  0.00  0.00    +0.000 OA
ATOM      4  N   UNL     1       7.787   4.322  16.295  0.00  0.00    +0.000 N 
ATOM      5  C   UNL     1       6.704   4.658  15.403  0.00  0.00    +0.000 C 
ATOM      6  C   UNL     1       5.688   3.502  15.258  0.00  0.00    +0.000 C 
ATOM      7  C   UNL     1       5.393   3.322  13.762  0.00  0.00    +0.000 C 
ATOM      8  C   UNL     1       6.432   4.162  13.094  0.00  0.00    +0.000 A 
ATOM      9  C   UNL     1       6.687   4.232  11.732  0.00  0.00    +0.000 A 
ATOM     10  C   UNL     1       7.703   5.077  11.289  0.00  0.00    +0.000 A 
ATOM     11  C   UNL     1       8.444   5.840  12.202  0.00  0.00    +0.000 A 
ATOM     12  C   UNL     1       8.172   5.772  13.571  0.00  0.00    +0.000 A 
ATOM     13  C   UNL     1       7.156   4.931  14.008  0.00  0.00    +0.000 A 
ATOM     14  C   UNL     1       6.040   5.792  16.193  0.00  0.00    +0.000 C 
ATOM     15  O   UNL     1       5.145   6.528  15.808  0.00  0.00    +0.000 OA
ATOM     16  H   UNL     1       8.460   3.585  16.138  0.00  0.00    +0.000 HD
ENDROOT
BRANCH   1  17
ATOM     17  C   UNL     1       5.972   6.363  18.624  0.00  0.00    +0.000 C 
BRANCH  17  19
ATOM     18  O   UNL     1       5.314   4.610  20.148  0.00  0.00    +0.000 OA
ATOM     19  C   UNL     1       5.013   5.305  19.181  0.00  0.00    +0.000 C 
ATOM     20  N   UNL     1       3.780   5.296  18.546  0.00  0.00    +0.000 N 
ATOM     21  H   UNL     1       3.681   5.863  17.712  0.00  0.00    +0.000 HD
BRANCH  20  22
ATOM     22  C   UNL     1       2.689   4.472  18.887  0.00  0.00    +0.000 A 
ATOM     23  C   UNL     1       2.401   3.356  18.081  0.00  0.00    +0.000 A 
ATOM     24  C   UNL     1       1.340   2.499  18.382  0.00  0.00    +0.000 A 
ATOM     25  C   UNL     1       0.529   2.765  19.477  0.00  0.00    +0.000 A 
ATOM     26  C   UNL     1       0.803   3.871  20.281  0.00  0.00    +0.000 A 
ATOM     27  C   UNL     1       1.896   4.714  20.024  0.00  0.00    +0.000 A 
BRANCH  27  28
ATOM     28  O   UNL     1       1.946   5.757  20.908  0.00  0.00    +0.000 OA
BRANCH  28  29
ATOM     29  C   UNL     1       1.488   7.045  20.548  0.00  0.00    +0.000 C 
ATOM     30  F   UNL     1       1.258   7.796  21.652  0.00  0.00    +0.000 F 
ATOM     31  F   UNL     1       2.440   7.681  19.821  0.00  0.00    +0.000 F 
ENDBRANCH  28  29
ENDBRANCH  27  28
ENDBRANCH  20  22
ENDBRANCH  17  19
ENDBRANCH   1  17
TORSDOF 5
ENDMDL
MODEL 7
REMARK VINA RESULT:      -7.5      3.597      5.619
REMARK  Name = 
REMARK  5 active torsions:
REMARK  status: ('A' for Active; 'I' for Inactive)
REMARK    1  A    between atoms: C_2  and  C_3
REMARK    2  A    between atoms: C_3  and  N_4
REMARK    3  A    between atoms: N_19  and  C_20
REMARK    4  A    between atoms: C_25  and  O_26
REMARK    5  A    between atoms: O_26  and  C_27
REMARK                            x       y       z     vdW  Elec       q    Type
REMARK                         _______ _______ _______ _____ _____    ______ ____
ROOT
ATOM      1  N   UNL     1       0.966  10.194  19.421  0.00  0.00    +0.000 N 
ATOM      2  C   UNL     1       1.174  11.269  18.615  0.00  0.00    +0.000 C 
ATOM      3  O   UNL     1       2.245  11.738  18.283  0.00  0.00    +0.000 OA
ATOM      4  N   UNL     1      -0.045  11.744  18.205  0.00  0.00    +0.000 N 
ATOM      5  C   UNL     1      -1.114  10.859  18.595  0.00  0.00    +0.000 C 
ATOM      6  C   UNL     1      -1.608   9.987  17.417  0.00  0.00    +0.000 C 
ATOM      7  C   UNL     1      -3.143  10.038  17.408  0.00  0.00    +0.000 C 
ATOM      8  C   UNL     1      -3.466  11.133  18.373  0.00  0.00    +0.000 A 
ATOM      9  C   UNL     1      -4.719  11.670  18.622  0.00  0.00    +0.000 A 
ATOM     10  C   UNL     1      -4.829  12.694  19.562  0.00  0.00    +0.000 A 
ATOM     11  C   UNL     1      -3.695  13.160  20.243  0.00  0.00    +0.000 A 
ATOM     12  C   UNL     1      -2.438  12.603  19.995  0.00  0.00    +0.000 A 
ATOM     13  C   UNL     1      -2.334  11.581  19.059  0.00  0.00    +0.000 A 
ATOM     14  C   UNL     1      -0.375   9.958  19.590  0.00  0.00    +0.000 C 
ATOM     15  O   UNL     1      -0.868   9.115  20.324  0.00  0.00    +0.000 OA
ATOM     16  H   UNL     1      -0.126  12.488  17.526  0.00  0.00    +0.000 HD
ENDROOT
BRANCH   1  17
ATOM     17  C   UNL     1       2.026   9.321  19.855  0.00  0.00    +0.000 C 
BRANCH  17  19
ATOM     18  O   UNL     1       1.814   8.402  17.633  0.00  0.00    +0.000 OA
ATOM     19  C   UNL     1       2.059   8.193  18.818  0.00  0.00    +0.000 C 
ATOM     20  N   UNL     1       2.474   6.979  19.344  0.00  0.00    +0.000 N 
ATOM     21  H   UNL     1       2.571   6.915  20.350  0.00  0.00    +0.000 HD
BRANCH  20  22
ATOM     22  C   UNL     1       2.653   5.787  18.612  0.00  0.00    +0.000 A 
ATOM     23  C   UNL     1       1.562   4.915  18.454  0.00  0.00    +0.000 A 
ATOM     24  C   UNL     1       1.681   3.729  17.727  0.00  0.00    +0.000 A 
ATOM     25  C   UNL     1       2.906   3.380  17.174  0.00  0.00    +0.000 A 
ATOM     26  C   UNL     1       3.997   4.236  17.328  0.00  0.00    +0.000 A 
ATOM     27  C   UNL     1       3.882   5.458  18.011  0.00  0.00    +0.000 A 
BRANCH  27  28
ATOM     28  O   UNL     1       5.082   6.111  18.080  0.00  0.00    +0.000 OA
BRANCH  28  29
ATOM     29  C   UNL     1       5.657   6.708  16.935  0.00  0.00    +0.000 C 
ATOM     30  F   UNL     1       4.694   7.170  16.102  0.00  0.00    +0.000 F 
ATOM     31  F   UNL     1       6.411   7.773  17.306  0.00  0.00    +0.000 F 
ENDBRANCH  28  29
ENDBRANCH  27  28
ENDBRANCH  20  22
ENDBRANCH  17  19
ENDBRANCH   1  17
TORSDOF 5
ENDMDL
MODEL 8
REMARK VINA RESULT:      -7.5      4.161      6.307
REMARK  Name = 
REMARK  5 active torsions:
REMARK  status: ('A' for Active; 'I' for Inactive)
REMARK    1  A    between atoms: C_2  and  C_3
REMARK    2  A    between atoms: C_3  and  N_4
REMARK    3  A    between atoms: N_19  and  C_20
REMARK    4  A    between atoms: C_25  and  O_26
REMARK    5  A    between atoms: O_26  and  C_27
REMARK                            x       y       z     vdW  Elec       q    Type
REMARK                         _______ _______ _______ _____ _____    ______ ____
ROOT
ATOM      1  N   UNL     1       0.751  10.251  19.517  0.00  0.00    +0.000 N 
ATOM      2  C   UNL     1       0.977  11.347  18.744  0.00  0.00    +0.000 C 
ATOM      3  O   UNL     1       2.052  11.857  18.493  0.00  0.00    +0.000 OA
ATOM      4  N   UNL     1      -0.226  11.791  18.259  0.00  0.00    +0.000 N 
ATOM      5  C   UNL     1      -1.290  10.864  18.561  0.00  0.00    +0.000 C 
ATOM      6  C   UNL     1      -1.674   9.999  17.339  0.00  0.00    +0.000 C 
ATOM      7  C   UNL     1      -3.205  10.001  17.226  0.00  0.00    +0.000 C 
ATOM      8  C   UNL     1      -3.629  11.066  18.184  0.00  0.00    +0.000 A 
ATOM      9  C   UNL     1      -4.913  11.559  18.356  0.00  0.00    +0.000 A 
ATOM     10  C   UNL     1      -5.120  12.561  19.302  0.00  0.00    +0.000 A 
ATOM     11  C   UNL     1      -4.051  13.051  20.066  0.00  0.00    +0.000 A 
ATOM     12  C   UNL     1      -2.762  12.539  19.895  0.00  0.00    +0.000 A 
ATOM     13  C   UNL     1      -2.562  11.539  18.952  0.00  0.00    +0.000 A 
ATOM     14  C   UNL     1      -0.590   9.969  19.590  0.00  0.00    +0.000 C 
ATOM     15  O   UNL     1      -1.103   9.098  20.275  0.00  0.00    +0.000 OA
ATOM     16  H   UNL     1      -0.286  12.544  17.588  0.00  0.00    +0.000 HD
ENDROOT
BRANCH   1  17
ATOM     17  C   UNL     1       1.808   9.405  20.008  0.00  0.00    +0.000 C 
BRANCH  17  19
ATOM     18  O   UNL     1       1.687   8.542  17.756  0.00  0.00    +0.000 OA
ATOM     19  C   UNL     1       1.989   8.332  18.928  0.00  0.00    +0.000 C 
ATOM     20  N   UNL     1       2.597   7.179  19.401  0.00  0.00    +0.000 N 
ATOM     21  H   UNL     1       2.727   7.097  20.402  0.00  0.00    +0.000 HD
BRANCH  20  22
ATOM     22  C   UNL     1       2.940   6.056  18.622  0.00  0.00    +0.000 A 
ATOM     23  C   UNL     1       4.034   6.144  17.744  0.00  0.00    +0.000 A 
ATOM     24  C   UNL     1       4.425   5.056  16.960  0.00  0.00    +0.000 A 
ATOM     25  C   UNL     1       3.703   3.871  17.018  0.00  0.00    +0.000 A 
ATOM     26  C   UNL     1       2.614   3.773  17.883  0.00  0.00    +0.000 A 
ATOM     27  C   UNL     1       2.239   4.839  18.717  0.00  0.00    +0.000 A 
BRANCH  27  28
ATOM     28  O   UNL     1       1.119   4.540  19.444  0.00  0.00    +0.000 OA
BRANCH  28  29
ATOM     29  C   UNL     1       1.212   3.899  20.701  0.00  0.00    +0.000 C 
ATOM     30  F   UNL     1       1.063   2.559  20.567  0.00  0.00    +0.000 F 
ATOM     31  F   UNL     1       2.440   4.115  21.233  0.00  0.00    +0.000 F 
ENDBRANCH  28  29
ENDBRANCH  27  28
ENDBRANCH  20  22
ENDBRANCH  17  19
ENDBRANCH   1  17
TORSDOF 5
ENDMDL
MODEL 9
REMARK VINA RESULT:      -7.5      4.436      8.405
REMARK  Name = 
REMARK  5 active torsions:
REMARK  status: ('A' for Active; 'I' for Inactive)
REMARK    1  A    between atoms: C_2  and  C_3
REMARK    2  A    between atoms: C_3  and  N_4
REMARK    3  A    between atoms: N_19  and  C_20
REMARK    4  A    between atoms: C_25  and  O_26
REMARK    5  A    between atoms: O_26  and  C_27
REMARK                            x       y       z     vdW  Elec       q    Type
REMARK                         _______ _______ _______ _____ _____    ______ ____
ROOT
ATOM      1  N   UNL     1       2.035   8.058  19.397  0.00  0.00    +0.000 N 
ATOM      2  C   UNL     1       2.263   7.997  18.058  0.00  0.00    +0.000 C 
ATOM      3  O   UNL     1       2.136   8.897  17.251  0.00  0.00    +0.000 OA
ATOM      4  N   UNL     1       2.691   6.731  17.748  0.00  0.00    +0.000 N 
ATOM      5  C   UNL     1       2.937   5.953  18.938  0.00  0.00    +0.000 C 
ATOM      6  C   UNL     1       4.444   5.853  19.267  0.00  0.00    +0.000 C 
ATOM      7  C   UNL     1       4.758   4.382  19.580  0.00  0.00    +0.000 C 
ATOM      8  C   UNL     1       3.522   3.659  19.154  0.00  0.00    +0.000 A 
ATOM      9  C   UNL     1       3.347   2.284  19.100  0.00  0.00    +0.000 A 
ATOM     10  C   UNL     1       2.117   1.786  18.675  0.00  0.00    +0.000 A 
ATOM     11  C   UNL     1       1.080   2.661  18.317  0.00  0.00    +0.000 A 
ATOM     12  C   UNL     1       1.261   4.045  18.388  0.00  0.00    +0.000 A 
ATOM     13  C   UNL     1       2.489   4.536  18.815  0.00  0.00    +0.000 A 
ATOM     14  C   UNL     1       2.268   6.843  19.991  0.00  0.00    +0.000 C 
ATOM     15  O   UNL     1       2.069   6.570  21.165  0.00  0.00    +0.000 OA
ATOM     16  H   UNL     1       3.003   6.486  16.820  0.00  0.00    +0.000 HD
ENDROOT
BRANCH   1  17
ATOM     17  C   UNL     1       1.783   9.292  20.095  0.00  0.00    +0.000 C 
BRANCH  17  19
ATOM     18  O   UNL     1      -0.470   9.000  20.912  0.00  0.00    +0.000 OA
ATOM     19  C   UNL     1       0.262   9.471  20.045  0.00  0.00    +0.000 C 
ATOM     20  N   UNL     1      -0.160  10.277  18.999  0.00  0.00    +0.000 N 
ATOM     21  H   UNL     1       0.531  10.541  18.306  0.00  0.00    +0.000 HD
BRANCH  20  22
ATOM     22  C   UNL     1      -1.492  10.659  18.744  0.00  0.00    +0.000 A 
ATOM     23  C   UNL     1      -2.285   9.851  17.911  0.00  0.00    +0.000 A 
ATOM     24  C   UNL     1      -3.615  10.176  17.637  0.00  0.00    +0.000 A 
ATOM     25  C   UNL     1      -4.163  11.337  18.168  0.00  0.00    +0.000 A 
ATOM     26  C   UNL     1      -3.385  12.148  18.993  0.00  0.00    +0.000 A 
ATOM     27  C   UNL     1      -2.062  11.809  19.321  0.00  0.00    +0.000 A 
BRANCH  27  28
ATOM     28  O   UNL     1      -1.476  12.768  20.102  0.00  0.00    +0.000 OA
BRANCH  28  29
ATOM     29  C   UNL     1      -1.298  12.573  21.491  0.00  0.00    +0.000 C 
ATOM     30  F   UNL     1      -2.070  11.551  21.933  0.00  0.00    +0.000 F 
ATOM     31  F   UNL     1      -0.007  12.239  21.742  0.00  0.00    +0.000 F 
ENDBRANCH  28  29
ENDBRANCH  27  28
ENDBRANCH  20  22
ENDBRANCH  17  19
ENDBRANCH   1  17
TORSDOF 5
ENDMDL
