MODEL 1
REMARK VINA RESULT:      -9.2      0.000      0.000
REMARK  Name = 
REMARK  6 active torsions:
REMARK  status: ('A' for Active; 'I' for Inactive)
REMARK    1  A    between atoms: C_2  and  C_4
REMARK    2  A    between atoms: C_8  and  O_9
REMARK    3  A    between atoms: O_9  and  C_10
REMARK    4  A    between atoms: C_13  and  N_14
REMARK    5  A    between atoms: C_15  and  C_17
REMARK    6  A    between atoms: C_23  and  O_24
REMARK                            x       y       z     vdW  Elec       q    Type
REMARK                         _______ _______ _______ _____ _____    ______ ____
ROOT
ATOM      1  C   UNL     1       0.522  10.777  21.308  0.00  0.00    +0.000 A 
ATOM      2  C   UNL     1       0.740   9.712  22.178  0.00  0.00    +0.000 A 
ATOM      3  C   UNL     1       1.302   8.522  21.715  0.00  0.00    +0.000 A 
ATOM      4  C   UNL     1       1.595   8.335  20.365  0.00  0.00    +0.000 A 
ATOM      5  C   UNL     1       1.276   9.369  19.471  0.00  0.00    +0.000 A 
ATOM      6  C   UNL     1       0.748  10.586  19.944  0.00  0.00    +0.000 A 
ENDROOT
BRANCH   4   7
ATOM      7  N   UNL     1       2.185   7.151  19.857  0.00  0.00    +0.000 N 
ATOM      8  C   UNL     1       1.826   5.847  20.175  0.00  0.00    +0.000 C 
ATOM      9  O   UNL     1       0.953   5.534  20.988  0.00  0.00    +0.000 OA
ATOM     10  H   UNL     1       2.974   7.282  19.236  0.00  0.00    +0.000 HD
BRANCH   8  11
ATOM     11  C   UNL     1       2.590   4.748  19.419  0.00  0.00    +0.000 C 
ATOM     12  C   UNL     1       2.257   3.351  20.027  0.00  0.00    +0.000 C 
ATOM     13  C   UNL     1       2.992   2.232  19.273  0.00  0.00    +0.000 C 
ATOM     14  C   UNL     1       2.565   2.258  17.797  0.00  0.00    +0.000 C 
ATOM     15  C   UNL     1       2.911   3.620  17.172  0.00  0.00    +0.000 C 
ATOM     16  C   UNL     1       4.422   3.862  17.284  0.00  0.00    +0.000 C 
ATOM     17  C   UNL     1       4.855   3.838  18.761  0.00  0.00    +0.000 C 
ATOM     18  C   UNL     1       4.505   2.470  19.371  0.00  0.00    +0.000 C 
ATOM     19  C   UNL     1       4.116   4.950  19.526  0.00  0.00    +0.000 C 
ATOM     20  C   UNL     1       2.171   4.733  17.932  0.00  0.00    +0.000 C 
BRANCH  17  21
ATOM     21  O   UNL     1       6.252   4.074  18.856  0.00  0.00    +0.000 OA
ATOM     22  H   UNL     1       6.712   3.364  18.375  0.00  0.00    +0.000 HD
ENDBRANCH  17  21
ENDBRANCH   8  11
ENDBRANCH   4   7
BRANCH   1  23
ATOM     23  O   UNL     1       0.050  12.013  21.703  0.00  0.00    +0.000 OA
BRANCH  23  28
ATOM     24  C   UNL     1      -3.338  12.644  22.949  0.00  0.00    +0.000 A 
ATOM     25  C   UNL     1      -4.044  12.877  21.762  0.00  0.00    +0.000 A 
ATOM     26  C   UNL     1      -3.395  12.764  20.533  0.00  0.00    +0.000 A 
ATOM     27  C   UNL     1      -2.041  12.430  20.486  0.00  0.00    +0.000 A 
ATOM     28  C   UNL     1      -1.308  12.273  21.668  0.00  0.00    +0.000 A 
ATOM     29  C   UNL     1      -1.967  12.342  22.897  0.00  0.00    +0.000 A 
BRANCH  24  31
ATOM     30  N   UNL     1      -3.701  13.881  25.026  0.00  0.00    +0.000 N 
ATOM     31  C   UNL     1      -3.996  12.773  24.276  0.00  0.00    +0.000 C 
ATOM     32  O   UNL     1      -4.787  11.934  24.686  0.00  0.00    +0.000 OA
ATOM     33  H   UNL     1      -4.202  13.982  25.899  0.00  0.00    +0.000 HD
ATOM     34  H   UNL     1      -3.248  14.699  24.646  0.00  0.00    +0.000 HD
ENDBRANCH  24  31
ENDBRANCH  23  28
ENDBRANCH   1  23
TORSDOF 6
ENDMDL
MODEL 2
REMARK VINA RESULT:      -9.0      1.007      1.383
REMARK  Name = 
REMARK  6 active torsions:
REMARK  status: ('A' for Active; 'I' for Inactive)
REMARK    1  A    between atoms: C_2  and  C_4
REMARK    2  A    between atoms: C_8  and  O_9
REMARK    3  A    between atoms: O_9  and  C_10
REMARK    4  A    between atoms: C_13  and  N_14
REMARK    5  A    between atoms: C_15  and  C_17
REMARK    6  A    between atoms: C_23  and  O_24
REMARK                            x       y       z     vdW  Elec       q    Type
REMARK                         _______ _______ _______ _____ _____    ______ ____
ROOT
ATOM      1  C   UNL     1       0.176  11.180  21.150  0.00  0.00    +0.000 A 
ATOM      2  C   UNL     1       0.577  10.924  19.841  0.00  0.00    +0.000 A 
ATOM      3  C   UNL     1       1.036   9.659  19.475  0.00  0.00    +0.000 A 
ATOM      4  C   UNL     1       1.175   8.637  20.414  0.00  0.00    +0.000 A 
ATOM      5  C   UNL     1       0.873   8.927  21.754  0.00  0.00    +0.000 A 
ATOM      6  C   UNL     1       0.370  10.191  22.117  0.00  0.00    +0.000 A 
ENDROOT
BRANCH   4   7
ATOM      7  N   UNL     1       1.617   7.333  20.080  0.00  0.00    +0.000 N 
ATOM      8  C   UNL     1       2.502   6.996  19.063  0.00  0.00    +0.000 C 
ATOM      9  O   UNL     1       3.004   7.796  18.271  0.00  0.00    +0.000 OA
ATOM     10  H   UNL     1       1.207   6.577  20.614  0.00  0.00    +0.000 HD
BRANCH   8  11
ATOM     11  C   UNL     1       2.864   5.505  18.969  0.00  0.00    +0.000 C 
ATOM     12  C   UNL     1       2.506   4.783  20.304  0.00  0.00    +0.000 C 
ATOM     13  C   UNL     1       2.838   3.284  20.226  0.00  0.00    +0.000 C 
ATOM     14  C   UNL     1       2.038   2.653  19.076  0.00  0.00    +0.000 C 
ATOM     15  C   UNL     1       2.399   3.335  17.746  0.00  0.00    +0.000 C 
ATOM     16  C   UNL     1       3.904   3.178  17.485  0.00  0.00    +0.000 C 
ATOM     17  C   UNL     1       4.710   3.810  18.634  0.00  0.00    +0.000 C 
ATOM     18  C   UNL     1       4.340   3.117  19.956  0.00  0.00    +0.000 C 
ATOM     19  C   UNL     1       4.375   5.309  18.725  0.00  0.00    +0.000 C 
ATOM     20  C   UNL     1       2.063   4.832  17.833  0.00  0.00    +0.000 C 
BRANCH  17  21
ATOM     21  O   UNL     1       6.100   3.670  18.380  0.00  0.00    +0.000 OA
ATOM     22  H   UNL     1       6.562   3.639  19.235  0.00  0.00    +0.000 HD
ENDBRANCH  17  21
ENDBRANCH   8  11
ENDBRANCH   4   7
BRANCH   1  23
ATOM     23  O   UNL     1      -0.367  12.377  21.572  0.00  0.00    +0.000 OA
BRANCH  23  28
ATOM     24  C   UNL     1      -3.698  12.714  23.061  0.00  0.00    +0.000 A 
ATOM     25  C   UNL     1      -4.503  12.898  21.929  0.00  0.00    +0.000 A 
ATOM     26  C   UNL     1      -3.936  12.850  20.657  0.00  0.00    +0.000 A 
ATOM     27  C   UNL     1      -2.566  12.631  20.510  0.00  0.00    +0.000 A 
ATOM     28  C   UNL     1      -1.740  12.524  21.636  0.00  0.00    +0.000 A 
ATOM     29  C   UNL     1      -2.315  12.527  22.909  0.00  0.00    +0.000 A 
BRANCH  24  31
ATOM     30  N   UNL     1      -3.927  13.846  25.215  0.00  0.00    +0.000 N 
ATOM     31  C   UNL     1      -4.269  12.776  24.432  0.00  0.00    +0.000 C 
ATOM     32  O   UNL     1      -5.033  11.915  24.851  0.00  0.00    +0.000 OA
ATOM     33  H   UNL     1      -4.370  13.902  26.122  0.00  0.00    +0.000 HD
ATOM     34  H   UNL     1      -3.499  14.683  24.847  0.00  0.00    +0.000 HD
ENDBRANCH  24  31
ENDBRANCH  23  28
ENDBRANCH   1  23
TORSDOF 6
ENDMDL
MODEL 3
REMARK VINA RESULT:      -9.0      7.020     10.768
REMARK  Name = 
REMARK  6 active torsions:
REMARK  status: ('A' for Active; 'I' for Inactive)
REMARK    1  A    between atoms: C_2  and  C_4
REMARK    2  A    between atoms: C_8  and  O_9
REMARK    3  A    between atoms: O_9  and  C_10
REMARK    4  A    between atoms: C_13  and  N_14
REMARK    5  A    between atoms: C_15  and  C_17
REMARK    6  A    between atoms: C_23  and  O_24
REMARK                            x       y       z     vdW  Elec       q    Type
REMARK                         _______ _______ _______ _____ _____    ______ ____
ROOT
ATOM      1  C   UNL     1       7.069   6.019  17.942  0.00  0.00    +0.000 A 
ATOM      2  C   UNL     1       6.571   7.027  17.119  0.00  0.00    +0.000 A 
ATOM      3  C   UNL     1       7.130   8.305  17.146  0.00  0.00    +0.000 A 
ATOM      4  C   UNL     1       8.148   8.633  18.041  0.00  0.00    +0.000 A 
ATOM      5  C   UNL     1       8.576   7.648  18.944  0.00  0.00    +0.000 A 
ATOM      6  C   UNL     1       8.042   6.346  18.888  0.00  0.00    +0.000 A 
ENDROOT
BRANCH   4   7
ATOM      7  N   UNL     1       8.757   9.912  18.086  0.00  0.00    +0.000 N 
ATOM      8  C   UNL     1       9.378  10.493  19.185  0.00  0.00    +0.000 C 
ATOM      9  O   UNL     1       9.451   9.982  20.305  0.00  0.00    +0.000 OA
ATOM     10  H   UNL     1       8.687  10.465  17.240  0.00  0.00    +0.000 HD
BRANCH   8  11
ATOM     11  C   UNL     1      10.019  11.867  18.932  0.00  0.00    +0.000 C 
ATOM     12  C   UNL     1       8.984  12.999  19.210  0.00  0.00    +0.000 C 
ATOM     13  C   UNL     1       9.609  14.385  18.986  0.00  0.00    +0.000 C 
ATOM     14  C   UNL     1      10.810  14.551  19.930  0.00  0.00    +0.000 C 
ATOM     15  C   UNL     1      11.855  13.458  19.652  0.00  0.00    +0.000 C 
ATOM     16  C   UNL     1      12.320  13.558  18.192  0.00  0.00    +0.000 C 
ATOM     17  C   UNL     1      11.121  13.390  17.241  0.00  0.00    +0.000 C 
ATOM     18  C   UNL     1      10.085  14.491  17.530  0.00  0.00    +0.000 C 
ATOM     19  C   UNL     1      10.482  12.009  17.466  0.00  0.00    +0.000 C 
ATOM     20  C   UNL     1      11.222  12.076  19.879  0.00  0.00    +0.000 C 
BRANCH  17  21
ATOM     21  O   UNL     1      11.560  13.473  15.894  0.00  0.00    +0.000 OA
ATOM     22  H   UNL     1      11.639  14.414  15.659  0.00  0.00    +0.000 HD
ENDBRANCH  17  21
ENDBRANCH   8  11
ENDBRANCH   4   7
BRANCH   1  23
ATOM     23  O   UNL     1       6.628   4.711  17.915  0.00  0.00    +0.000 OA
BRANCH  23  28
ATOM     24  C   UNL     1       3.207   4.693  19.228  0.00  0.00    +0.000 A 
ATOM     25  C   UNL     1       2.508   4.042  18.205  0.00  0.00    +0.000 A 
ATOM     26  C   UNL     1       3.195   3.553  17.095  0.00  0.00    +0.000 A 
ATOM     27  C   UNL     1       4.577   3.722  16.998  0.00  0.00    +0.000 A 
ATOM     28  C   UNL     1       5.274   4.441  17.977  0.00  0.00    +0.000 A 
ATOM     29  C   UNL     1       4.593   4.891  19.110  0.00  0.00    +0.000 A 
BRANCH  24  31
ATOM     30  N   UNL     1       2.288   6.593  20.461  0.00  0.00    +0.000 N 
ATOM     31  C   UNL     1       2.502   5.240  20.417  0.00  0.00    +0.000 C 
ATOM     32  O   UNL     1       2.107   4.516  21.321  0.00  0.00    +0.000 OA
ATOM     33  H   UNL     1       1.755   6.940  21.248  0.00  0.00    +0.000 HD
ATOM     34  H   UNL     1       2.382   7.192  19.655  0.00  0.00    +0.000 HD
ENDBRANCH  24  31
ENDBRANCH  23  28
ENDBRANCH   1  23
TORSDOF 6
ENDMDL
MODEL 4
REMARK VINA RESULT:      -8.9      1.382      2.085
REMARK  Name = 
REMARK  6 active torsions:
REMARK  status: ('A' for Active; 'I' for Inactive)
REMARK    1  A    between atoms: C_2  and  C_4
REMARK    2  A    between atoms: C_8  and  O_9
REMARK    3  A    between atoms: O_9  and  C_10
REMARK    4  A    between atoms: C_13  and  N_14
REMARK    5  A    between atoms: C_15  and  C_17
REMARK    6  A    between atoms: C_23  and  O_24
REMARK                            x       y       z     vdW  Elec       q    Type
REMARK                         _______ _______ _______ _____ _____    ______ ____
ROOT
ATOM      1  C   UNL     1       0.489  10.958  21.289  0.00  0.00    +0.000 A 
ATOM      2  C   UNL     1       0.834  10.598  19.989  0.00  0.00    +0.000 A 
ATOM      3  C   UNL     1       1.194   9.284  19.689  0.00  0.00    +0.000 A 
ATOM      4  C   UNL     1       1.289   8.312  20.684  0.00  0.00    +0.000 A 
ATOM      5  C   UNL     1       1.045   8.700  22.010  0.00  0.00    +0.000 A 
ATOM      6  C   UNL     1       0.640  10.016  22.308  0.00  0.00    +0.000 A 
ENDROOT
BRANCH   4   7
ATOM      7  N   UNL     1       1.630   6.962  20.418  0.00  0.00    +0.000 N 
ATOM      8  C   UNL     1       2.441   6.503  19.389  0.00  0.00    +0.000 C 
ATOM      9  O   UNL     1       2.955   7.216  18.524  0.00  0.00    +0.000 OA
ATOM     10  H   UNL     1       1.197   6.271  21.019  0.00  0.00    +0.000 HD
BRANCH   8  11
ATOM     11  C   UNL     1       2.702   4.988  19.379  0.00  0.00    +0.000 C 
ATOM     12  C   UNL     1       1.834   4.303  18.280  0.00  0.00    +0.000 C 
ATOM     13  C   UNL     1       2.094   2.790  18.234  0.00  0.00    +0.000 C 
ATOM     14  C   UNL     1       3.581   2.546  17.932  0.00  0.00    +0.000 C 
ATOM     15  C   UNL     1       4.454   3.192  19.022  0.00  0.00    +0.000 C 
ATOM     16  C   UNL     1       4.091   2.589  20.386  0.00  0.00    +0.000 C 
ATOM     17  C   UNL     1       2.603   2.832  20.695  0.00  0.00    +0.000 C 
ATOM     18  C   UNL     1       1.743   2.179  19.599  0.00  0.00    +0.000 C 
ATOM     19  C   UNL     1       2.331   4.345  20.732  0.00  0.00    +0.000 C 
ATOM     20  C   UNL     1       4.187   4.704  19.059  0.00  0.00    +0.000 C 
BRANCH  17  21
ATOM     21  O   UNL     1       2.279   2.281  21.963  0.00  0.00    +0.000 OA
ATOM     22  H   UNL     1       3.105   1.992  22.387  0.00  0.00    +0.000 HD
ENDBRANCH  17  21
ENDBRANCH   8  11
ENDBRANCH   4   7
BRANCH   1  23
ATOM     23  O   UNL     1       0.042  12.213  21.651  0.00  0.00    +0.000 OA
BRANCH  23  28
ATOM     24  C   UNL     1      -3.301  12.807  23.029  0.00  0.00    +0.000 A 
ATOM     25  C   UNL     1      -4.043  13.092  21.876  0.00  0.00    +0.000 A 
ATOM     26  C   UNL     1      -3.434  13.026  20.623  0.00  0.00    +0.000 A 
ATOM     27  C   UNL     1      -2.084  12.689  20.519  0.00  0.00    +0.000 A 
ATOM     28  C   UNL     1      -1.314  12.480  21.670  0.00  0.00    +0.000 A 
ATOM     29  C   UNL     1      -1.935  12.502  22.921  0.00  0.00    +0.000 A 
BRANCH  24  31
ATOM     30  N   UNL     1      -4.826  11.917  24.720  0.00  0.00    +0.000 N 
ATOM     31  C   UNL     1      -3.916  12.884  24.380  0.00  0.00    +0.000 C 
ATOM     32  O   UNL     1      -3.615  13.764  25.176  0.00  0.00    +0.000 OA
ATOM     33  H   UNL     1      -5.190  11.951  25.663  0.00  0.00    +0.000 HD
ATOM     34  H   UNL     1      -4.934  11.057  24.204  0.00  0.00    +0.000 HD
ENDBRANCH  24  31
ENDBRANCH  23  28
ENDBRANCH   1  23
TORSDOF 6
ENDMDL
MODEL 5
REMARK VINA RESULT:      -8.9      0.737      1.119
REMARK  Name = 
REMARK  6 active torsions:
REMARK  status: ('A' for Active; 'I' for Inactive)
REMARK    1  A    between atoms: C_2  and  C_4
REMARK    2  A    between atoms: C_8  and  O_9
REMARK    3  A    between atoms: O_9  and  C_10
REMARK    4  A    between atoms: C_13  and  N_14
REMARK    5  A    between atoms: C_15  and  C_17
REMARK    6  A    between atoms: C_23  and  O_24
REMARK                            x       y       z     vdW  Elec       q    Type
REMARK                         _______ _______ _______ _____ _____    ______ ____
ROOT
ATOM      1  C   UNL     1       0.476  10.767  21.388  0.00  0.00    +0.000 A 
ATOM      2  C   UNL     1       0.595   9.602  22.142  0.00  0.00    +0.000 A 
ATOM      3  C   UNL     1       1.191   8.464  21.598  0.00  0.00    +0.000 A 
ATOM      4  C   UNL     1       1.618   8.432  20.271  0.00  0.00    +0.000 A 
ATOM      5  C   UNL     1       1.401   9.571  19.480  0.00  0.00    +0.000 A 
ATOM      6  C   UNL     1       0.838  10.734  20.041  0.00  0.00    +0.000 A 
ENDROOT
BRANCH   4   7
ATOM      7  N   UNL     1       2.246   7.304  19.687  0.00  0.00    +0.000 N 
ATOM      8  C   UNL     1       2.002   5.971  19.994  0.00  0.00    +0.000 C 
ATOM      9  O   UNL     1       1.219   5.579  20.862  0.00  0.00    +0.000 OA
ATOM     10  H   UNL     1       2.974   7.504  19.011  0.00  0.00    +0.000 HD
BRANCH   8  11
ATOM     11  C   UNL     1       2.778   4.946  19.152  0.00  0.00    +0.000 C 
ATOM     12  C   UNL     1       1.796   4.155  18.234  0.00  0.00    +0.000 C 
ATOM     13  C   UNL     1       2.551   3.139  17.364  0.00  0.00    +0.000 C 
ATOM     14  C   UNL     1       3.572   3.886  16.492  0.00  0.00    +0.000 C 
ATOM     15  C   UNL     1       4.567   4.650  17.382  0.00  0.00    +0.000 C 
ATOM     16  C   UNL     1       5.292   3.658  18.303  0.00  0.00    +0.000 C 
ATOM     17  C   UNL     1       4.274   2.907  19.180  0.00  0.00    +0.000 C 
ATOM     18  C   UNL     1       3.287   2.147  18.276  0.00  0.00    +0.000 C 
ATOM     19  C   UNL     1       3.505   3.919  20.047  0.00  0.00    +0.000 C 
ATOM     20  C   UNL     1       3.803   5.664  18.247  0.00  0.00    +0.000 C 
BRANCH  17  21
ATOM     21  O   UNL     1       4.953   2.000  20.035  0.00  0.00    +0.000 OA
ATOM     22  H   UNL     1       5.432   2.518  20.705  0.00  0.00    +0.000 HD
ENDBRANCH  17  21
ENDBRANCH   8  11
ENDBRANCH   4   7
BRANCH   1  23
ATOM     23  O   UNL     1      -0.022  11.957  21.879  0.00  0.00    +0.000 OA
BRANCH  23  28
ATOM     24  C   UNL     1      -3.447  12.543  23.045  0.00  0.00    +0.000 A 
ATOM     25  C   UNL     1      -4.120  12.804  21.845  0.00  0.00    +0.000 A 
ATOM     26  C   UNL     1      -3.437  12.726  20.632  0.00  0.00    +0.000 A 
ATOM     27  C   UNL     1      -2.080  12.399  20.615  0.00  0.00    +0.000 A 
ATOM     28  C   UNL     1      -1.379  12.213  21.813  0.00  0.00    +0.000 A 
ATOM     29  C   UNL     1      -2.074  12.248  23.024  0.00  0.00    +0.000 A 
BRANCH  24  31
ATOM     30  N   UNL     1      -3.869  13.719  25.146  0.00  0.00    +0.000 N 
ATOM     31  C   UNL     1      -4.143  12.634  24.355  0.00  0.00    +0.000 C 
ATOM     32  O   UNL     1      -4.946  11.785  24.718  0.00  0.00    +0.000 OA
ATOM     33  H   UNL     1      -4.395  13.796  26.006  0.00  0.00    +0.000 HD
ATOM     34  H   UNL     1      -3.405  14.548  24.803  0.00  0.00    +0.000 HD
ENDBRANCH  24  31
ENDBRANCH  23  28
ENDBRANCH   1  23
TORSDOF 6
ENDMDL
MODEL 6
REMARK VINA RESULT:      -8.9      2.070     10.305
REMARK  Name = 
REMARK  6 active torsions:
REMARK  status: ('A' for Active; 'I' for Inactive)
REMARK    1  A    between atoms: C_2  and  C_4
REMARK    2  A    between atoms: C_8  and  O_9
REMARK    3  A    between atoms: O_9  and  C_10
REMARK    4  A    between atoms: C_13  and  N_14
REMARK    5  A    between atoms: C_15  and  C_17
REMARK    6  A    between atoms: C_23  and  O_24
REMARK                            x       y       z     vdW  Elec       q    Type
REMARK                         _______ _______ _______ _____ _____    ______ ____
ROOT
ATOM      1  C   UNL     1       1.870   8.033  19.736  0.00  0.00    +0.000 A 
ATOM      2  C   UNL     1       1.346   9.068  18.965  0.00  0.00    +0.000 A 
ATOM      3  C   UNL     1       0.432   9.968  19.514  0.00  0.00    +0.000 A 
ATOM      4  C   UNL     1      -0.037   9.822  20.818  0.00  0.00    +0.000 A 
ATOM      5  C   UNL     1       0.410   8.717  21.560  0.00  0.00    +0.000 A 
ATOM      6  C   UNL     1       1.364   7.832  21.021  0.00  0.00    +0.000 A 
ENDROOT
BRANCH   4   7
ATOM      7  N   UNL     1      -0.948  10.725  21.420  0.00  0.00    +0.000 N 
ATOM      8  C   UNL     1      -0.651  11.988  21.918  0.00  0.00    +0.000 C 
ATOM      9  O   UNL     1       0.474  12.490  21.942  0.00  0.00    +0.000 OA
ATOM     10  H   UNL     1      -1.896  10.388  21.531  0.00  0.00    +0.000 HD
BRANCH   8  11
ATOM     11  C   UNL     1      -1.851  12.785  22.454  0.00  0.00    +0.000 C 
ATOM     12  C   UNL     1      -1.353  14.018  23.268  0.00  0.00    +0.000 C 
ATOM     13  C   UNL     1      -2.535  14.846  23.796  0.00  0.00    +0.000 C 
ATOM     14  C   UNL     1      -3.378  15.330  22.606  0.00  0.00    +0.000 C 
ATOM     15  C   UNL     1      -3.902  14.125  21.806  0.00  0.00    +0.000 C 
ATOM     16  C   UNL     1      -4.753  13.237  22.723  0.00  0.00    +0.000 C 
ATOM     17  C   UNL     1      -3.913  12.747  23.917  0.00  0.00    +0.000 C 
ATOM     18  C   UNL     1      -3.398  13.962  24.708  0.00  0.00    +0.000 C 
ATOM     19  C   UNL     1      -2.721  11.926  23.396  0.00  0.00    +0.000 C 
ATOM     20  C   UNL     1      -2.713  13.305  21.282  0.00  0.00    +0.000 C 
BRANCH  17  21
ATOM     21  O   UNL     1      -4.705  11.918  24.754  0.00  0.00    +0.000 OA
ATOM     22  H   UNL     1      -4.114  11.476  25.387  0.00  0.00    +0.000 HD
ENDBRANCH  17  21
ENDBRANCH   8  11
ENDBRANCH   4   7
BRANCH   1  23
ATOM     23  O   UNL     1       2.839   7.155  19.294  0.00  0.00    +0.000 OA
BRANCH  23  28
ATOM     24  C   UNL     1       2.406   3.608  20.109  0.00  0.00    +0.000 A 
ATOM     25  C   UNL     1       1.857   3.104  18.923  0.00  0.00    +0.000 A 
ATOM     26  C   UNL     1       1.685   3.944  17.823  0.00  0.00    +0.000 A 
ATOM     27  C   UNL     1       2.050   5.289  17.908  0.00  0.00    +0.000 A 
ATOM     28  C   UNL     1       2.525   5.821  19.112  0.00  0.00    +0.000 A 
ATOM     29  C   UNL     1       2.739   4.970  20.199  0.00  0.00    +0.000 A 
BRANCH  24  31
ATOM     30  N   UNL     1       1.510   2.574  22.134  0.00  0.00    +0.000 N 
ATOM     31  C   UNL     1       2.586   2.743  21.304  0.00  0.00    +0.000 C 
ATOM     32  O   UNL     1       3.649   2.182  21.538  0.00  0.00    +0.000 OA
ATOM     33  H   UNL     1       1.633   1.936  22.909  0.00  0.00    +0.000 HD
ATOM     34  H   UNL     1       0.566   2.817  21.869  0.00  0.00    +0.000 HD
ENDBRANCH  24  31
ENDBRANCH  23  28
ENDBRANCH   1  23
TORSDOF 6
ENDMDL
MODEL 7
REMARK VINA RESULT:      -8.8      2.322      2.983
REMARK  Name = 
REMARK  6 active torsions:
REMARK  status: ('A' for Active; 'I' for Inactive)
REMARK    1  A    between atoms: C_2  and  C_4
REMARK    2  A    between atoms: C_8  and  O_9
REMARK    3  A    between atoms: O_9  and  C_10
REMARK    4  A    between atoms: C_13  and  N_14
REMARK    5  A    between atoms: C_15  and  C_17
REMARK    6  A    between atoms: C_23  and  O_24
REMARK                            x       y       z     vdW  Elec       q    Type
REMARK                         _______ _______ _______ _____ _____    ______ ____
ROOT
ATOM      1  C   UNL     1       0.499  11.218  19.670  0.00  0.00    +0.000 A 
ATOM      2  C   UNL     1       1.208  10.978  18.495  0.00  0.00    +0.000 A 
ATOM      3  C   UNL     1       1.763   9.723  18.247  0.00  0.00    +0.000 A 
ATOM      4  C   UNL     1       1.690   8.697  19.188  0.00  0.00    +0.000 A 
ATOM      5  C   UNL     1       1.068   8.972  20.417  0.00  0.00    +0.000 A 
ATOM      6  C   UNL     1       0.471  10.226  20.651  0.00  0.00    +0.000 A 
ENDROOT
BRANCH   4   7
ATOM      7  N   UNL     1       2.221   7.402  18.967  0.00  0.00    +0.000 N 
ATOM      8  C   UNL     1       2.064   6.293  19.788  0.00  0.00    +0.000 C 
ATOM      9  O   UNL     1       1.462   6.292  20.865  0.00  0.00    +0.000 OA
ATOM     10  H   UNL     1       2.808   7.300  18.148  0.00  0.00    +0.000 HD
BRANCH   8  11
ATOM     11  C   UNL     1       2.691   4.990  19.267  0.00  0.00    +0.000 C 
ATOM     12  C   UNL     1       2.293   3.798  20.191  0.00  0.00    +0.000 C 
ATOM     13  C   UNL     1       2.890   2.479  19.677  0.00  0.00    +0.000 C 
ATOM     14  C   UNL     1       2.372   2.215  18.255  0.00  0.00    +0.000 C 
ATOM     15  C   UNL     1       2.780   3.368  17.322  0.00  0.00    +0.000 C 
ATOM     16  C   UNL     1       4.310   3.494  17.308  0.00  0.00    +0.000 C 
ATOM     17  C   UNL     1       4.834   3.760  18.730  0.00  0.00    +0.000 C 
ATOM     18  C   UNL     1       4.420   2.598  19.650  0.00  0.00    +0.000 C 
ATOM     19  C   UNL     1       4.233   5.074  19.257  0.00  0.00    +0.000 C 
ATOM     20  C   UNL     1       2.178   4.683  17.843  0.00  0.00    +0.000 C 
BRANCH  17  21
ATOM     21  O   UNL     1       6.248   3.885  18.706  0.00  0.00    +0.000 OA
ATOM     22  H   UNL     1       6.632   3.005  18.859  0.00  0.00    +0.000 HD
ENDBRANCH  17  21
ENDBRANCH   8  11
ENDBRANCH   4   7
BRANCH   1  23
ATOM     23  O   UNL     1      -0.150  12.404  19.952  0.00  0.00    +0.000 OA
BRANCH  23  28
ATOM     24  C   UNL     1      -3.578  11.994  18.723  0.00  0.00    +0.000 A 
ATOM     25  C   UNL     1      -4.333  12.397  19.832  0.00  0.00    +0.000 A 
ATOM     26  C   UNL     1      -3.691  12.866  20.977  0.00  0.00    +0.000 A 
ATOM     27  C   UNL     1      -2.297  12.922  21.024  0.00  0.00    +0.000 A 
ATOM     28  C   UNL     1      -1.532  12.447  19.951  0.00  0.00    +0.000 A 
ATOM     29  C   UNL     1      -2.176  12.020  18.788  0.00  0.00    +0.000 A 
BRANCH  24  31
ATOM     30  N   UNL     1      -3.527  11.544  16.321  0.00  0.00    +0.000 N 
ATOM     31  C   UNL     1      -4.232  11.474  17.494  0.00  0.00    +0.000 C 
ATOM     32  O   UNL     1      -5.353  10.982  17.519  0.00  0.00    +0.000 OA
ATOM     33  H   UNL     1      -3.962  11.133  15.507  0.00  0.00    +0.000 HD
ATOM     34  H   UNL     1      -2.533  11.720  16.286  0.00  0.00    +0.000 HD
ENDBRANCH  24  31
ENDBRANCH  23  28
ENDBRANCH   1  23
TORSDOF 6
ENDMDL
MODEL 8
REMARK VINA RESULT:      -8.8      2.744     10.762
REMARK  Name = 
REMARK  6 active torsions:
REMARK  status: ('A' for Active; 'I' for Inactive)
REMARK    1  A    between atoms: C_2  and  C_4
REMARK    2  A    between atoms: C_8  and  O_9
REMARK    3  A    between atoms: O_9  and  C_10
REMARK    4  A    between atoms: C_13  and  N_14
REMARK    5  A    between atoms: C_15  and  C_17
REMARK    6  A    between atoms: C_23  and  O_24
REMARK                            x       y       z     vdW  Elec       q    Type
REMARK                         _______ _______ _______ _____ _____    ______ ____
ROOT
ATOM      1  C   UNL     1       2.639   6.505  18.635  0.00  0.00    +0.000 A 
ATOM      2  C   UNL     1       2.224   6.562  19.963  0.00  0.00    +0.000 A 
ATOM      3  C   UNL     1       1.616   7.712  20.468  0.00  0.00    +0.000 A 
ATOM      4  C   UNL     1       1.470   8.858  19.688  0.00  0.00    +0.000 A 
ATOM      5  C   UNL     1       1.985   8.837  18.382  0.00  0.00    +0.000 A 
ATOM      6  C   UNL     1       2.560   7.663  17.858  0.00  0.00    +0.000 A 
ENDROOT
BRANCH   4   7
ATOM      7  N   UNL     1       0.840  10.038  20.155  0.00  0.00    +0.000 N 
ATOM      8  C   UNL     1      -0.411  10.509  19.780  0.00  0.00    +0.000 C 
ATOM      9  O   UNL     1      -1.145   9.977  18.944  0.00  0.00    +0.000 OA
ATOM     10  H   UNL     1       1.385  10.607  20.791  0.00  0.00    +0.000 HD
BRANCH   8  11
ATOM     11  C   UNL     1      -0.881  11.784  20.501  0.00  0.00    +0.000 C 
ATOM     12  C   UNL     1      -1.026  11.511  22.030  0.00  0.00    +0.000 C 
ATOM     13  C   UNL     1      -1.473  12.777  22.776  0.00  0.00    +0.000 C 
ATOM     14  C   UNL     1      -0.430  13.884  22.554  0.00  0.00    +0.000 C 
ATOM     15  C   UNL     1      -0.293  14.186  21.053  0.00  0.00    +0.000 C 
ATOM     16  C   UNL     1      -1.653  14.630  20.497  0.00  0.00    +0.000 C 
ATOM     17  C   UNL     1      -2.702  13.525  20.715  0.00  0.00    +0.000 C 
ATOM     18  C   UNL     1      -2.829  13.235  22.221  0.00  0.00    +0.000 C 
ATOM     19  C   UNL     1      -2.257  12.249  19.979  0.00  0.00    +0.000 C 
ATOM     20  C   UNL     1       0.155  12.915  20.315  0.00  0.00    +0.000 C 
BRANCH  17  21
ATOM     21  O   UNL     1      -3.954  13.939  20.189  0.00  0.00    +0.000 OA
ATOM     22  H   UNL     1      -4.653  13.438  20.642  0.00  0.00    +0.000 HD
ENDBRANCH  17  21
ENDBRANCH   8  11
ENDBRANCH   4   7
BRANCH   1  23
ATOM     23  O   UNL     1       3.170   5.380  18.039  0.00  0.00    +0.000 OA
BRANCH  23  28
ATOM     24  C   UNL     1       6.393   4.898  16.363  0.00  0.00    +0.000 A 
ATOM     25  C   UNL     1       7.297   5.078  17.417  0.00  0.00    +0.000 A 
ATOM     26  C   UNL     1       6.823   5.304  18.709  0.00  0.00    +0.000 A 
ATOM     27  C   UNL     1       5.450   5.361  18.949  0.00  0.00    +0.000 A 
ATOM     28  C   UNL     1       4.539   5.261  17.890  0.00  0.00    +0.000 A 
ATOM     29  C   UNL     1       5.013   4.991  16.604  0.00  0.00    +0.000 A 
BRANCH  24  31
ATOM     30  N   UNL     1       6.328   3.618  14.281  0.00  0.00    +0.000 N 
ATOM     31  C   UNL     1       6.866   4.672  14.972  0.00  0.00    +0.000 C 
ATOM     32  O   UNL     1       7.693   5.405  14.446  0.00  0.00    +0.000 OA
ATOM     33  H   UNL     1       6.617   3.515  13.318  0.00  0.00    +0.000 HD
ATOM     34  H   UNL     1       5.492   3.135  14.576  0.00  0.00    +0.000 HD
ENDBRANCH  24  31
ENDBRANCH  23  28
ENDBRANCH   1  23
TORSDOF 6
ENDMDL
MODEL 9
REMARK VINA RESULT:      -8.8      1.794      2.352
REMARK  Name = 
REMARK  6 active torsions:
REMARK  status: ('A' for Active; 'I' for Inactive)
REMARK    1  A    between atoms: C_2  and  C_4
REMARK    2  A    between atoms: C_8  and  O_9
REMARK    3  A    between atoms: O_9  and  C_10
REMARK    4  A    between atoms: C_13  and  N_14
REMARK    5  A    between atoms: C_15  and  C_17
REMARK    6  A    between atoms: C_23  and  O_24
REMARK                            x       y       z     vdW  Elec       q    Type
REMARK                         _______ _______ _______ _____ _____    ______ ____
ROOT
ATOM      1  C   UNL     1       0.179  11.229  21.286  0.00  0.00    +0.000 A 
ATOM      2  C   UNL     1       0.493  10.880  19.975  0.00  0.00    +0.000 A 
ATOM      3  C   UNL     1       0.828   9.565  19.652  0.00  0.00    +0.000 A 
ATOM      4  C   UNL     1       0.929   8.580  20.634  0.00  0.00    +0.000 A 
ATOM      5  C   UNL     1       0.718   8.955  21.970  0.00  0.00    +0.000 A 
ATOM      6  C   UNL     1       0.338  10.273  22.291  0.00  0.00    +0.000 A 
ENDROOT
BRANCH   4   7
ATOM      7  N   UNL     1       1.246   7.229  20.346  0.00  0.00    +0.000 N 
ATOM      8  C   UNL     1       2.171   6.779  19.412  0.00  0.00    +0.000 C 
ATOM      9  O   UNL     1       2.827   7.505  18.662  0.00  0.00    +0.000 OA
ATOM     10  H   UNL     1       0.707   6.533  20.846  0.00  0.00    +0.000 HD
BRANCH   8  11
ATOM     11  C   UNL     1       2.367   5.255  19.357  0.00  0.00    +0.000 C 
ATOM     12  C   UNL     1       1.619   4.577  20.546  0.00  0.00    +0.000 C 
ATOM     13  C   UNL     1       1.781   3.049  20.500  0.00  0.00    +0.000 C 
ATOM     14  C   UNL     1       1.209   2.525  19.174  0.00  0.00    +0.000 C 
ATOM     15  C   UNL     1       1.954   3.163  17.989  0.00  0.00    +0.000 C 
ATOM     16  C   UNL     1       3.448   2.824  18.085  0.00  0.00    +0.000 C 
ATOM     17  C   UNL     1       4.027   3.349  19.411  0.00  0.00    +0.000 C 
ATOM     18  C   UNL     1       3.274   2.701  20.586  0.00  0.00    +0.000 C 
ATOM     19  C   UNL     1       3.859   4.877  19.470  0.00  0.00    +0.000 C 
ATOM     20  C   UNL     1       1.786   4.689  18.043  0.00  0.00    +0.000 C 
BRANCH  17  21
ATOM     21  O   UNL     1       5.411   3.041  19.486  0.00  0.00    +0.000 OA
ATOM     22  H   UNL     1       5.555   2.487  20.273  0.00  0.00    +0.000 HD
ENDBRANCH  17  21
ENDBRANCH   8  11
ENDBRANCH   4   7
BRANCH   1  23
ATOM     23  O   UNL     1      -0.243  12.486  21.671  0.00  0.00    +0.000 OA
BRANCH  23  28
ATOM     24  C   UNL     1      -3.875  12.832  21.332  0.00  0.00    +0.000 A 
ATOM     25  C   UNL     1      -4.277  12.987  22.664  0.00  0.00    +0.000 A 
ATOM     26  C   UNL     1      -3.321  13.035  23.678  0.00  0.00    +0.000 A 
ATOM     27  C   UNL     1      -1.966  12.917  23.366  0.00  0.00    +0.000 A 
ATOM     28  C   UNL     1      -1.559  12.683  22.047  0.00  0.00    +0.000 A 
ATOM     29  C   UNL     1      -2.513  12.680  21.027  0.00  0.00    +0.000 A 
BRANCH  24  31
ATOM     30  N   UNL     1      -4.412  12.441  18.979  0.00  0.00    +0.000 N 
ATOM     31  C   UNL     1      -4.870  12.761  20.230  0.00  0.00    +0.000 C 
ATOM     32  O   UNL     1      -6.062  12.962  20.424  0.00  0.00    +0.000 OA
ATOM     33  H   UNL     1      -5.109  12.338  18.255  0.00  0.00    +0.000 HD
ATOM     34  H   UNL     1      -3.498  12.045  18.812  0.00  0.00    +0.000 HD
ENDBRANCH  24  31
ENDBRANCH  23  28
ENDBRANCH   1  23
TORSDOF 6
ENDMDL
