MODEL 1
REMARK VINA RESULT:      -8.7      0.000      0.000
REMARK  Name = 
REMARK  6 active torsions:
REMARK  status: ('A' for Active; 'I' for Inactive)
REMARK    1  A    between atoms: C_2  and  C_3
REMARK    2  A    between atoms: C_3  and  N_4
REMARK    3  A    between atoms: C_5  and  S_6
REMARK    4  A    between atoms: S_6  and  C_7
REMARK    5  A    between atoms: C_7  and  C_8
REMARK    6  A    between atoms: N_10  and  C_11
REMARK                            x       y       z     vdW  Elec       q    Type
REMARK                         _______ _______ _______ _____ _____    ______ ____
ROOT
ATOM      1  C   UNL     1       2.728   3.668  21.663  0.00  0.00    +0.000 C 
ENDROOT
BRANCH   1   2
ATOM      2  C   UNL     1       1.962   4.740  20.889  0.00  0.00    +0.000 C 
ATOM      3  O   UNL     1       0.780   4.652  20.573  0.00  0.00    +0.000 OA
ATOM      4  N   UNL     1       2.781   5.832  20.592  0.00  0.00    +0.000 N 
ATOM      5  H   UNL     1       3.771   5.631  20.536  0.00  0.00    +0.000 HD
BRANCH   4   6
ATOM      6  C   UNL     1       2.338   6.957  19.862  0.00  0.00    +0.000 A 
ATOM      7  C   UNL     1       2.738   7.045  18.505  0.00  0.00    +0.000 A 
ATOM      8  C   UNL     1       2.327   8.107  17.692  0.00  0.00    +0.000 A 
ATOM      9  C   UNL     1       1.598   9.100  18.298  0.00  0.00    +0.000 A 
ATOM     10  N   UNL     1       1.116  10.291  17.768  0.00  0.00    +0.000 N 
ATOM     11  C   UNL     1       0.551  11.044  18.807  0.00  0.00    +0.000 A 
ATOM     12  O   UNL     1       0.087  12.170  18.715  0.00  0.00    +0.000 OA
ATOM     13  N   UNL     1       0.645  10.264  19.968  0.00  0.00    +0.000 N 
ATOM     14  C   UNL     1       1.271   9.057  19.653  0.00  0.00    +0.000 A 
ATOM     15  C   UNL     1       1.584   7.981  20.454  0.00  0.00    +0.000 A 
ATOM     16  H   UNL     1       1.177  10.606  16.817  0.00  0.00    +0.000 HD
ATOM     17  H   UNL     1       0.346  10.578  20.878  0.00  0.00    +0.000 HD
ENDBRANCH   4   6
ENDBRANCH   1   2
BRANCH   1  18
ATOM     18  S   UNL     1       3.546   2.429  20.627  0.00  0.00    +0.000 S 
BRANCH  18  20
ATOM     19  N   UNL     1       4.036   3.339  18.125  0.00  0.00    +0.000 N 
ATOM     20  C   UNL     1       4.403   3.424  19.462  0.00  0.00    +0.000 A 
ATOM     21  N   UNL     1       5.363   4.174  19.905  0.00  0.00    +0.000 NA
ATOM     22  C   UNL     1       6.059   4.973  18.990  0.00  0.00    +0.000 A 
ATOM     23  C   UNL     1       7.158   5.717  19.428  0.00  0.00    +0.000 A 
ATOM     24  C   UNL     1       7.847   6.561  18.550  0.00  0.00    +0.000 A 
ATOM     25  C   UNL     1       7.438   6.676  17.223  0.00  0.00    +0.000 A 
ATOM     26  C   UNL     1       6.359   5.923  16.767  0.00  0.00    +0.000 A 
ATOM     27  C   UNL     1       5.688   5.068  17.651  0.00  0.00    +0.000 A 
ATOM     28  C   UNL     1       4.607   4.190  17.182  0.00  0.00    +0.000 A 
ATOM     29  O   UNL     1       4.291   4.230  15.995  0.00  0.00    +0.000 OA
BRANCH  19  30
ATOM     30  C   UNL     1       3.069   2.374  17.591  0.00  0.00    +0.000 C 
BRANCH  30  32
ATOM     31  C   UNL     1       0.712   2.209  18.485  0.00  0.00    +0.000 C 
ATOM     32  C   UNL     1       1.670   2.886  17.839  0.00  0.00    +0.000 C 
ENDBRANCH  30  32
ENDBRANCH  19  30
ENDBRANCH  18  20
ENDBRANCH   1  18
TORSDOF 6
ENDMDL
MODEL 2
REMARK VINA RESULT:      -7.8      3.550      5.063
REMARK  Name = 
REMARK  6 active torsions:
REMARK  status: ('A' for Active; 'I' for Inactive)
REMARK    1  A    between atoms: C_2  and  C_3
REMARK    2  A    between atoms: C_3  and  N_4
REMARK    3  A    between atoms: C_5  and  S_6
REMARK    4  A    between atoms: S_6  and  C_7
REMARK    5  A    between atoms: C_7  and  C_8
REMARK    6  A    between atoms: N_10  and  C_11
REMARK                            x       y       z     vdW  Elec       q    Type
REMARK                         _______ _______ _______ _____ _____    ______ ____
ROOT
ATOM      1  C   UNL     1       1.537   9.253  18.569  0.00  0.00    +0.000 C 
ENDROOT
BRANCH   1   2
ATOM      2  C   UNL     1       0.186   9.958  18.674  0.00  0.00    +0.000 C 
ATOM      3  O   UNL     1      -0.190  10.592  19.655  0.00  0.00    +0.000 OA
ATOM      4  N   UNL     1      -0.565   9.790  17.507  0.00  0.00    +0.000 N 
ATOM      5  H   UNL     1      -0.350   8.961  16.967  0.00  0.00    +0.000 HD
BRANCH   4   6
ATOM      6  C   UNL     1      -1.864  10.315  17.338  0.00  0.00    +0.000 A 
ATOM      7  C   UNL     1      -2.453  10.183  16.056  0.00  0.00    +0.000 A 
ATOM      8  C   UNL     1      -3.748  10.646  15.798  0.00  0.00    +0.000 A 
ATOM      9  C   UNL     1      -4.378  11.313  16.819  0.00  0.00    +0.000 A 
ATOM     10  N   UNL     1      -5.622  11.934  16.835  0.00  0.00    +0.000 N 
ATOM     11  C   UNL     1      -5.772  12.601  18.058  0.00  0.00    +0.000 A 
ATOM     12  O   UNL     1      -6.715  13.302  18.390  0.00  0.00    +0.000 OA
ATOM     13  N   UNL     1      -4.620  12.327  18.811  0.00  0.00    +0.000 N 
ATOM     14  C   UNL     1      -3.770  11.517  18.058  0.00  0.00    +0.000 A 
ATOM     15  C   UNL     1      -2.534  10.993  18.368  0.00  0.00    +0.000 A 
ATOM     16  H   UNL     1      -6.306  11.951  16.100  0.00  0.00    +0.000 HD
ATOM     17  H   UNL     1      -4.445  12.714  19.724  0.00  0.00    +0.000 HD
ENDBRANCH   4   6
ENDBRANCH   1   2
BRANCH   1  18
ATOM     18  S   UNL     1       1.792   7.928  19.777  0.00  0.00    +0.000 S 
BRANCH  18  20
ATOM     19  N   UNL     1       2.298   5.375  19.034  0.00  0.00    +0.000 N 
ATOM     20  C   UNL     1       2.622   6.710  18.824  0.00  0.00    +0.000 A 
ATOM     21  N   UNL     1       3.523   7.115  17.985  0.00  0.00    +0.000 NA
ATOM     22  C   UNL     1       4.197   6.156  17.218  0.00  0.00    +0.000 A 
ATOM     23  C   UNL     1       5.237   6.561  16.377  0.00  0.00    +0.000 A 
ATOM     24  C   UNL     1       5.900   5.636  15.563  0.00  0.00    +0.000 A 
ATOM     25  C   UNL     1       5.522   4.294  15.575  0.00  0.00    +0.000 A 
ATOM     26  C   UNL     1       4.502   3.874  16.425  0.00  0.00    +0.000 A 
ATOM     27  C   UNL     1       3.858   4.806  17.249  0.00  0.00    +0.000 A 
ATOM     28  C   UNL     1       2.844   4.382  18.224  0.00  0.00    +0.000 A 
ATOM     29  O   UNL     1       2.560   3.189  18.294  0.00  0.00    +0.000 OA
BRANCH  19  30
ATOM     30  C   UNL     1       1.405   4.895  20.093  0.00  0.00    +0.000 C 
BRANCH  30  32
ATOM     31  C   UNL     1       2.040   3.152  21.808  0.00  0.00    +0.000 C 
ATOM     32  C   UNL     1       2.235   4.344  21.228  0.00  0.00    +0.000 C 
ENDBRANCH  30  32
ENDBRANCH  19  30
ENDBRANCH  18  20
ENDBRANCH   1  18
TORSDOF 6
ENDMDL
MODEL 3
REMARK VINA RESULT:      -7.8      5.104      7.061
REMARK  Name = 
REMARK  6 active torsions:
REMARK  status: ('A' for Active; 'I' for Inactive)
REMARK    1  A    between atoms: C_2  and  C_3
REMARK    2  A    between atoms: C_3  and  N_4
REMARK    3  A    between atoms: C_5  and  S_6
REMARK    4  A    between atoms: S_6  and  C_7
REMARK    5  A    between atoms: C_7  and  C_8
REMARK    6  A    between atoms: N_10  and  C_11
REMARK                            x       y       z     vdW  Elec       q    Type
REMARK                         _______ _______ _______ _____ _____    ______ ____
ROOT
ATOM      1  C   UNL     1       7.806   6.969  18.277  0.00  0.00    +0.000 C 
ENDROOT
BRANCH   1   2
ATOM      2  C   UNL     1       7.998   8.479  18.140  0.00  0.00    +0.000 C 
ATOM      3  O   UNL     1       7.390   9.184  17.341  0.00  0.00    +0.000 OA
ATOM      4  N   UNL     1       8.952   8.952  19.045  0.00  0.00    +0.000 N 
ATOM      5  H   UNL     1       9.643   8.275  19.342  0.00  0.00    +0.000 HD
BRANCH   4   6
ATOM      6  C   UNL     1       9.345  10.306  19.120  0.00  0.00    +0.000 A 
ATOM      7  C   UNL     1       9.409  10.890  20.409  0.00  0.00    +0.000 A 
ATOM      8  C   UNL     1       9.815  12.217  20.588  0.00  0.00    +0.000 A 
ATOM      9  C   UNL     1      10.057  12.946  19.451  0.00  0.00    +0.000 A 
ATOM     10  N   UNL     1      10.404  14.285  19.316  0.00  0.00    +0.000 N 
ATOM     11  C   UNL     1      10.407  14.610  17.952  0.00  0.00    +0.000 A 
ATOM     12  O   UNL     1      10.607  15.715  17.471  0.00  0.00    +0.000 OA
ATOM     13  N   UNL     1      10.112  13.429  17.256  0.00  0.00    +0.000 N 
ATOM     14  C   UNL     1       9.917  12.398  18.176  0.00  0.00    +0.000 A 
ATOM     15  C   UNL     1       9.607  11.071  17.973  0.00  0.00    +0.000 A 
ATOM     16  H   UNL     1      10.593  14.945  20.049  0.00  0.00    +0.000 HD
ATOM     17  H   UNL     1      10.012  13.382  16.254  0.00  0.00    +0.000 HD
ENDBRANCH   4   6
ENDBRANCH   1   2
BRANCH   1  18
ATOM     18  S   UNL     1       7.096   6.164  16.818  0.00  0.00    +0.000 S 
BRANCH  18  20
ATOM     19  N   UNL     1       5.268   4.175  16.990  0.00  0.00    +0.000 N 
ATOM     20  C   UNL     1       5.645   5.423  17.471  0.00  0.00    +0.000 A 
ATOM     21  N   UNL     1       4.975   6.093  18.356  0.00  0.00    +0.000 NA
ATOM     22  C   UNL     1       3.814   5.518  18.886  0.00  0.00    +0.000 A 
ATOM     23  C   UNL     1       3.025   6.260  19.770  0.00  0.00    +0.000 A 
ATOM     24  C   UNL     1       1.884   5.700  20.354  0.00  0.00    +0.000 A 
ATOM     25  C   UNL     1       1.522   4.385  20.065  0.00  0.00    +0.000 A 
ATOM     26  C   UNL     1       2.286   3.642  19.168  0.00  0.00    +0.000 A 
ATOM     27  C   UNL     1       3.417   4.220  18.577  0.00  0.00    +0.000 A 
ATOM     28  C   UNL     1       4.191   3.498  17.557  0.00  0.00    +0.000 A 
ATOM     29  O   UNL     1       3.833   2.366  17.241  0.00  0.00    +0.000 OA
BRANCH  19  30
ATOM     30  C   UNL     1       5.921   3.485  15.873  0.00  0.00    +0.000 C 
BRANCH  30  32
ATOM     31  C   UNL     1       5.951   3.782  13.364  0.00  0.00    +0.000 C 
ATOM     32  C   UNL     1       5.535   4.162  14.579  0.00  0.00    +0.000 C 
ENDBRANCH  30  32
ENDBRANCH  19  30
ENDBRANCH  18  20
ENDBRANCH   1  18
TORSDOF 6
ENDMDL
MODEL 4
REMARK VINA RESULT:      -7.8      3.479      5.539
REMARK  Name = 
REMARK  6 active torsions:
REMARK  status: ('A' for Active; 'I' for Inactive)
REMARK    1  A    between atoms: C_2  and  C_3
REMARK    2  A    between atoms: C_3  and  N_4
REMARK    3  A    between atoms: C_5  and  S_6
REMARK    4  A    between atoms: S_6  and  C_7
REMARK    5  A    between atoms: C_7  and  C_8
REMARK    6  A    between atoms: N_10  and  C_11
REMARK                            x       y       z     vdW  Elec       q    Type
REMARK                         _______ _______ _______ _____ _____    ______ ____
ROOT
ATOM      1  C   UNL     1       1.818   9.346  19.340  0.00  0.00    +0.000 C 
ENDROOT
BRANCH   1   2
ATOM      2  C   UNL     1       0.320   9.647  19.324  0.00  0.00    +0.000 C 
ATOM      3  O   UNL     1      -0.416   9.544  20.300  0.00  0.00    +0.000 OA
ATOM      4  N   UNL     1      -0.101  10.057  18.056  0.00  0.00    +0.000 N 
ATOM      5  H   UNL     1       0.462   9.726  17.283  0.00  0.00    +0.000 HD
BRANCH   4   6
ATOM      6  C   UNL     1      -1.442  10.376  17.750  0.00  0.00    +0.000 A 
ATOM      7  C   UNL     1      -1.989   9.804  16.575  0.00  0.00    +0.000 A 
ATOM      8  C   UNL     1      -3.318  10.038  16.202  0.00  0.00    +0.000 A 
ATOM      9  C   UNL     1      -4.030  10.918  16.978  0.00  0.00    +0.000 A 
ATOM     10  N   UNL     1      -5.328  11.389  16.818  0.00  0.00    +0.000 N 
ATOM     11  C   UNL     1      -5.566  12.377  17.783  0.00  0.00    +0.000 A 
ATOM     12  O   UNL     1      -6.579  13.049  17.897  0.00  0.00    +0.000 OA
ATOM     13  N   UNL     1      -4.409  12.458  18.572  0.00  0.00    +0.000 N 
ATOM     14  C   UNL     1      -3.469  11.545  18.091  0.00  0.00    +0.000 A 
ATOM     15  C   UNL     1      -2.195  11.265  18.532  0.00  0.00    +0.000 A 
ATOM     16  H   UNL     1      -5.996  11.115  16.120  0.00  0.00    +0.000 HD
ATOM     17  H   UNL     1      -4.290  13.119  19.323  0.00  0.00    +0.000 HD
ENDBRANCH   4   6
ENDBRANCH   1   2
BRANCH   1  18
ATOM     18  S   UNL     1       2.418   8.428  17.899  0.00  0.00    +0.000 S 
BRANCH  18  20
ATOM     19  N   UNL     1       4.028   6.297  18.338  0.00  0.00    +0.000 N 
ATOM     20  C   UNL     1       2.778   6.853  18.584  0.00  0.00    +0.000 A 
ATOM     21  N   UNL     1       1.845   6.267  19.267  0.00  0.00    +0.000 NA
ATOM     22  C   UNL     1       2.115   5.009  19.819  0.00  0.00    +0.000 A 
ATOM     23  C   UNL     1       1.094   4.318  20.478  0.00  0.00    +0.000 A 
ATOM     24  C   UNL     1       1.341   3.080  21.081  0.00  0.00    +0.000 A 
ATOM     25  C   UNL     1       2.618   2.522  21.038  0.00  0.00    +0.000 A 
ATOM     26  C   UNL     1       3.639   3.189  20.365  0.00  0.00    +0.000 A 
ATOM     27  C   UNL     1       3.374   4.420  19.750  0.00  0.00    +0.000 A 
ATOM     28  C   UNL     1       4.402   5.105  18.953  0.00  0.00    +0.000 A 
ATOM     29  O   UNL     1       5.508   4.581  18.848  0.00  0.00    +0.000 OA
BRANCH  19  30
ATOM     30  C   UNL     1       5.027   6.872  17.432  0.00  0.00    +0.000 C 
BRANCH  30  32
ATOM     31  C   UNL     1       5.696   5.481  15.432  0.00  0.00    +0.000 C 
ATOM     32  C   UNL     1       4.831   6.297  16.050  0.00  0.00    +0.000 C 
ENDBRANCH  30  32
ENDBRANCH  19  30
ENDBRANCH  18  20
ENDBRANCH   1  18
TORSDOF 6
ENDMDL
MODEL 5
REMARK VINA RESULT:      -7.7      3.725      9.237
REMARK  Name = 
REMARK  6 active torsions:
REMARK  status: ('A' for Active; 'I' for Inactive)
REMARK    1  A    between atoms: C_2  and  C_3
REMARK    2  A    between atoms: C_3  and  N_4
REMARK    3  A    between atoms: C_5  and  S_6
REMARK    4  A    between atoms: S_6  and  C_7
REMARK    5  A    between atoms: C_7  and  C_8
REMARK    6  A    between atoms: N_10  and  C_11
REMARK                            x       y       z     vdW  Elec       q    Type
REMARK                         _______ _______ _______ _____ _____    ______ ____
ROOT
ATOM      1  C   UNL     1       1.018   9.368  19.662  0.00  0.00    +0.000 C 
ENDROOT
BRANCH   1   2
ATOM      2  C   UNL     1       1.847   8.701  18.564  0.00  0.00    +0.000 C 
ATOM      3  O   UNL     1       2.022   9.174  17.446  0.00  0.00    +0.000 OA
ATOM      4  N   UNL     1       2.381   7.486  19.002  0.00  0.00    +0.000 N 
ATOM      5  H   UNL     1       1.867   7.025  19.742  0.00  0.00    +0.000 HD
BRANCH   4   6
ATOM      6  C   UNL     1       3.169   6.646  18.184  0.00  0.00    +0.000 A 
ATOM      7  C   UNL     1       2.796   5.281  18.112  0.00  0.00    +0.000 A 
ATOM      8  C   UNL     1       3.497   4.377  17.307  0.00  0.00    +0.000 A 
ATOM      9  C   UNL     1       4.613   4.857  16.668  0.00  0.00    +0.000 A 
ATOM     10  N   UNL     1       5.531   4.187  15.867  0.00  0.00    +0.000 N 
ATOM     11  C   UNL     1       6.576   5.067  15.555  0.00  0.00    +0.000 A 
ATOM     12  O   UNL     1       7.585   4.798  14.922  0.00  0.00    +0.000 OA
ATOM     13  N   UNL     1       6.249   6.303  16.133  0.00  0.00    +0.000 N 
ATOM     14  C   UNL     1       5.030   6.181  16.801  0.00  0.00    +0.000 A 
ATOM     15  C   UNL     1       4.309   7.114  17.513  0.00  0.00    +0.000 A 
ATOM     16  H   UNL     1       5.499   3.228  15.572  0.00  0.00    +0.000 HD
ATOM     17  H   UNL     1       6.848   7.112  16.097  0.00  0.00    +0.000 HD
ENDBRANCH   4   6
ENDBRANCH   1   2
BRANCH   1  18
ATOM     18  S   UNL     1       0.989  11.177  19.590  0.00  0.00    +0.000 S 
BRANCH  18  20
ATOM     19  N   UNL     1      -1.332  11.914  20.772  0.00  0.00    +0.000 N 
ATOM     20  C   UNL     1      -0.732  11.522  19.582  0.00  0.00    +0.000 A 
ATOM     21  N   UNL     1      -1.371  11.364  18.465  0.00  0.00    +0.000 NA
ATOM     22  C   UNL     1      -2.745  11.631  18.440  0.00  0.00    +0.000 A 
ATOM     23  C   UNL     1      -3.470  11.378  17.273  0.00  0.00    +0.000 A 
ATOM     24  C   UNL     1      -4.835  11.677  17.199  0.00  0.00    +0.000 A 
ATOM     25  C   UNL     1      -5.489  12.242  18.293  0.00  0.00    +0.000 A 
ATOM     26  C   UNL     1      -4.783  12.479  19.470  0.00  0.00    +0.000 A 
ATOM     27  C   UNL     1      -3.420  12.158  19.537  0.00  0.00    +0.000 A 
ATOM     28  C   UNL     1      -2.668  12.307  20.791  0.00  0.00    +0.000 A 
ATOM     29  O   UNL     1      -3.257  12.733  21.782  0.00  0.00    +0.000 OA
BRANCH  19  30
ATOM     30  C   UNL     1      -0.657  11.934  22.074  0.00  0.00    +0.000 C 
BRANCH  30  32
ATOM     31  C   UNL     1      -0.111   9.729  23.181  0.00  0.00    +0.000 C 
ATOM     32  C   UNL     1      -0.997  10.669  22.826  0.00  0.00    +0.000 C 
ENDBRANCH  30  32
ENDBRANCH  19  30
ENDBRANCH  18  20
ENDBRANCH   1  18
TORSDOF 6
ENDMDL
MODEL 6
REMARK VINA RESULT:      -7.5      3.548      8.926
REMARK  Name = 
REMARK  6 active torsions:
REMARK  status: ('A' for Active; 'I' for Inactive)
REMARK    1  A    between atoms: C_2  and  C_3
REMARK    2  A    between atoms: C_3  and  N_4
REMARK    3  A    between atoms: C_5  and  S_6
REMARK    4  A    between atoms: S_6  and  C_7
REMARK    5  A    between atoms: C_7  and  C_8
REMARK    6  A    between atoms: N_10  and  C_11
REMARK                            x       y       z     vdW  Elec       q    Type
REMARK                         _______ _______ _______ _____ _____    ______ ____
ROOT
ATOM      1  C   UNL     1       1.256   8.819  19.895  0.00  0.00    +0.000 C 
ENDROOT
BRANCH   1   2
ATOM      2  C   UNL     1       2.038   8.260  18.707  0.00  0.00    +0.000 C 
ATOM      3  O   UNL     1       2.119   8.808  17.613  0.00  0.00    +0.000 OA
ATOM      4  N   UNL     1       2.650   7.046  19.030  0.00  0.00    +0.000 N 
ATOM      5  H   UNL     1       2.205   6.517  19.770  0.00  0.00    +0.000 HD
BRANCH   4   6
ATOM      6  C   UNL     1       3.416   6.295  18.112  0.00  0.00    +0.000 A 
ATOM      7  C   UNL     1       3.091   4.924  17.969  0.00  0.00    +0.000 A 
ATOM      8  C   UNL     1       3.775   4.104  17.064  0.00  0.00    +0.000 A 
ATOM      9  C   UNL     1       4.830   4.672  16.394  0.00  0.00    +0.000 A 
ATOM     10  N   UNL     1       5.721   4.095  15.497  0.00  0.00    +0.000 N 
ATOM     11  C   UNL     1       6.712   5.037  15.184  0.00  0.00    +0.000 A 
ATOM     12  O   UNL     1       7.689   4.852  14.476  0.00  0.00    +0.000 OA
ATOM     13  N   UNL     1       6.375   6.217  15.863  0.00  0.00    +0.000 N 
ATOM     14  C   UNL     1       5.204   6.001  16.592  0.00  0.00    +0.000 A 
ATOM     15  C   UNL     1       4.494   6.854  17.408  0.00  0.00    +0.000 A 
ATOM     16  H   UNL     1       5.708   3.157  15.139  0.00  0.00    +0.000 HD
ATOM     17  H   UNL     1       6.939   7.051  15.847  0.00  0.00    +0.000 HD
ENDBRANCH   4   6
ENDBRANCH   1   2
BRANCH   1  18
ATOM     18  S   UNL     1       1.193  10.627  19.972  0.00  0.00    +0.000 S 
BRANCH  18  20
ATOM     19  N   UNL     1      -1.232  11.827  20.085  0.00  0.00    +0.000 N 
ATOM     20  C   UNL     1      -0.415  10.970  19.356  0.00  0.00    +0.000 A 
ATOM     21  N   UNL     1      -0.776  10.381  18.260  0.00  0.00    +0.000 NA
ATOM     22  C   UNL     1      -2.056  10.641  17.755  0.00  0.00    +0.000 A 
ATOM     23  C   UNL     1      -2.501   9.945  16.628  0.00  0.00    +0.000 A 
ATOM     24  C   UNL     1      -3.757  10.213  16.070  0.00  0.00    +0.000 A 
ATOM     25  C   UNL     1      -4.578  11.189  16.632  0.00  0.00    +0.000 A 
ATOM     26  C   UNL     1      -4.156  11.874  17.769  0.00  0.00    +0.000 A 
ATOM     27  C   UNL     1      -2.905  11.583  18.328  0.00  0.00    +0.000 A 
ATOM     28  C   UNL     1      -2.469  12.218  19.580  0.00  0.00    +0.000 A 
ATOM     29  O   UNL     1      -3.221  13.024  20.122  0.00  0.00    +0.000 OA
BRANCH  19  30
ATOM     30  C   UNL     1      -0.898  12.365  21.407  0.00  0.00    +0.000 C 
BRANCH  30  32
ATOM     31  C   UNL     1      -2.381  11.760  23.361  0.00  0.00    +0.000 C 
ATOM     32  C   UNL     1      -1.435  11.436  22.469  0.00  0.00    +0.000 C 
ENDBRANCH  30  32
ENDBRANCH  19  30
ENDBRANCH  18  20
ENDBRANCH   1  18
TORSDOF 6
ENDMDL
MODEL 7
REMARK VINA RESULT:      -7.5      3.468      8.976
REMARK  Name = 
REMARK  6 active torsions:
REMARK  status: ('A' for Active; 'I' for Inactive)
REMARK    1  A    between atoms: C_2  and  C_3
REMARK    2  A    between atoms: C_3  and  N_4
REMARK    3  A    between atoms: C_5  and  S_6
REMARK    4  A    between atoms: S_6  and  C_7
REMARK    5  A    between atoms: C_7  and  C_8
REMARK    6  A    between atoms: N_10  and  C_11
REMARK                            x       y       z     vdW  Elec       q    Type
REMARK                         _______ _______ _______ _____ _____    ______ ____
ROOT
ATOM      1  C   UNL     1       1.808   9.588  18.609  0.00  0.00    +0.000 C 
ENDROOT
BRANCH   1   2
ATOM      2  C   UNL     1       1.978   8.159  19.123  0.00  0.00    +0.000 C 
ATOM      3  O   UNL     1       1.723   7.802  20.269  0.00  0.00    +0.000 OA
ATOM      4  N   UNL     1       2.458   7.314  18.119  0.00  0.00    +0.000 N 
ATOM      5  H   UNL     1       2.992   7.766  17.388  0.00  0.00    +0.000 HD
BRANCH   4   6
ATOM      6  C   UNL     1       2.731   5.944  18.324  0.00  0.00    +0.000 A 
ATOM      7  C   UNL     1       1.772   5.015  17.848  0.00  0.00    +0.000 A 
ATOM      8  C   UNL     1       1.967   3.636  17.980  0.00  0.00    +0.000 A 
ATOM      9  C   UNL     1       3.082   3.234  18.671  0.00  0.00    +0.000 A 
ATOM     10  N   UNL     1       3.497   1.952  19.012  0.00  0.00    +0.000 N 
ATOM     11  C   UNL     1       4.624   2.053  19.839  0.00  0.00    +0.000 A 
ATOM     12  O   UNL     1       5.214   1.128  20.376  0.00  0.00    +0.000 OA
ATOM     13  N   UNL     1       4.923   3.419  19.948  0.00  0.00    +0.000 N 
ATOM     14  C   UNL     1       3.987   4.147  19.211  0.00  0.00    +0.000 A 
ATOM     15  C   UNL     1       3.868   5.506  19.020  0.00  0.00    +0.000 A 
ATOM     16  H   UNL     1       3.065   1.082  18.756  0.00  0.00    +0.000 HD
ATOM     17  H   UNL     1       5.670   3.784  20.517  0.00  0.00    +0.000 HD
ENDBRANCH   4   6
ENDBRANCH   1   2
BRANCH   1  18
ATOM     18  S   UNL     1       1.239  10.775  19.853  0.00  0.00    +0.000 S 
BRANCH  18  20
ATOM     19  N   UNL     1      -1.242  11.800  20.204  0.00  0.00    +0.000 N 
ATOM     20  C   UNL     1      -0.418  11.070  19.355  0.00  0.00    +0.000 A 
ATOM     21  N   UNL     1      -0.805  10.565  18.226  0.00  0.00    +0.000 NA
ATOM     22  C   UNL     1      -2.124  10.788  17.814  0.00  0.00    +0.000 A 
ATOM     23  C   UNL     1      -2.590  10.175  16.648  0.00  0.00    +0.000 A 
ATOM     24  C   UNL     1      -3.888  10.414  16.183  0.00  0.00    +0.000 A 
ATOM     25  C   UNL     1      -4.734  11.277  16.878  0.00  0.00    +0.000 A 
ATOM     26  C   UNL     1      -4.290  11.877  18.054  0.00  0.00    +0.000 A 
ATOM     27  C   UNL     1      -2.994  11.616  18.519  0.00  0.00    +0.000 A 
ATOM     28  C   UNL     1      -2.527  12.157  19.803  0.00  0.00    +0.000 A 
ATOM     29  O   UNL     1      -3.294  12.858  20.458  0.00  0.00    +0.000 OA
BRANCH  19  30
ATOM     30  C   UNL     1      -0.866  12.231  21.554  0.00  0.00    +0.000 C 
BRANCH  30  32
ATOM     31  C   UNL     1      -0.680  10.222  23.075  0.00  0.00    +0.000 C 
ATOM     32  C   UNL     1      -1.392  11.232  22.557  0.00  0.00    +0.000 C 
ENDBRANCH  30  32
ENDBRANCH  19  30
ENDBRANCH  18  20
ENDBRANCH   1  18
TORSDOF 6
ENDMDL
MODEL 8
REMARK VINA RESULT:      -7.4      2.996      4.235
REMARK  Name = 
REMARK  6 active torsions:
REMARK  status: ('A' for Active; 'I' for Inactive)
REMARK    1  A    between atoms: C_2  and  C_3
REMARK    2  A    between atoms: C_3  and  N_4
REMARK    3  A    between atoms: C_5  and  S_6
REMARK    4  A    between atoms: S_6  and  C_7
REMARK    5  A    between atoms: C_7  and  C_8
REMARK    6  A    between atoms: N_10  and  C_11
REMARK                            x       y       z     vdW  Elec       q    Type
REMARK                         _______ _______ _______ _____ _____    ______ ____
ROOT
ATOM      1  C   UNL     1       1.829   8.041  20.418  0.00  0.00    +0.000 C 
ENDROOT
BRANCH   1   2
ATOM      2  C   UNL     1       0.479   8.753  20.493  0.00  0.00    +0.000 C 
ATOM      3  O   UNL     1      -0.354   8.566  21.373  0.00  0.00    +0.000 OA
ATOM      4  N   UNL     1       0.319   9.647  19.430  0.00  0.00    +0.000 N 
ATOM      5  H   UNL     1       0.848   9.430  18.595  0.00  0.00    +0.000 HD
BRANCH   4   6
ATOM      6  C   UNL     1      -0.845  10.422  19.237  0.00  0.00    +0.000 A 
ATOM      7  C   UNL     1      -1.070  11.488  20.144  0.00  0.00    +0.000 A 
ATOM      8  C   UNL     1      -2.181  12.329  20.018  0.00  0.00    +0.000 A 
ATOM      9  C   UNL     1      -3.084  12.013  19.034  0.00  0.00    +0.000 A 
ATOM     10  N   UNL     1      -4.295  12.617  18.718  0.00  0.00    +0.000 N 
ATOM     11  C   UNL     1      -4.929  11.856  17.726  0.00  0.00    +0.000 A 
ATOM     12  O   UNL     1      -6.037  12.057  17.256  0.00  0.00    +0.000 OA
ATOM     13  N   UNL     1      -4.054  10.809  17.401  0.00  0.00    +0.000 N 
ATOM     14  C   UNL     1      -2.907  10.916  18.190  0.00  0.00    +0.000 A 
ATOM     15  C   UNL     1      -1.780  10.126  18.233  0.00  0.00    +0.000 A 
ATOM     16  H   UNL     1      -4.696  13.439  19.135  0.00  0.00    +0.000 HD
ATOM     17  H   UNL     1      -4.273  10.083  16.738  0.00  0.00    +0.000 HD
ENDBRANCH   4   6
ENDBRANCH   1   2
BRANCH   1  18
ATOM     18  S   UNL     1       1.770   6.271  20.800  0.00  0.00    +0.000 S 
BRANCH  18  20
ATOM     19  N   UNL     1       3.073   4.228  19.593  0.00  0.00    +0.000 N 
ATOM     20  C   UNL     1       2.772   5.584  19.533  0.00  0.00    +0.000 A 
ATOM     21  N   UNL     1       3.211   6.385  18.613  0.00  0.00    +0.000 NA
ATOM     22  C   UNL     1       4.014   5.854  17.596  0.00  0.00    +0.000 A 
ATOM     23  C   UNL     1       4.575   6.714  16.649  0.00  0.00    +0.000 A 
ATOM     24  C   UNL     1       5.344   6.212  15.593  0.00  0.00    +0.000 A 
ATOM     25  C   UNL     1       5.554   4.839  15.469  0.00  0.00    +0.000 A 
ATOM     26  C   UNL     1       5.019   3.973  16.420  0.00  0.00    +0.000 A 
ATOM     27  C   UNL     1       4.266   4.490  17.483  0.00  0.00    +0.000 A 
ATOM     28  C   UNL     1       3.768   3.615  18.553  0.00  0.00    +0.000 A 
ATOM     29  O   UNL     1       4.013   2.413  18.491  0.00  0.00    +0.000 OA
BRANCH  19  30
ATOM     30  C   UNL     1       2.723   3.350  20.714  0.00  0.00    +0.000 C 
BRANCH  30  32
ATOM     31  C   UNL     1       0.624   2.901  19.382  0.00  0.00    +0.000 C 
ATOM     32  C   UNL     1       1.473   2.578  20.367  0.00  0.00    +0.000 C 
ENDBRANCH  30  32
ENDBRANCH  19  30
ENDBRANCH  18  20
ENDBRANCH   1  18
TORSDOF 6
ENDMDL
MODEL 9
REMARK VINA RESULT:      -7.4      5.208      7.068
REMARK  Name = 
REMARK  6 active torsions:
REMARK  status: ('A' for Active; 'I' for Inactive)
REMARK    1  A    between atoms: C_2  and  C_3
REMARK    2  A    between atoms: C_3  and  N_4
REMARK    3  A    between atoms: C_5  and  S_6
REMARK    4  A    between atoms: S_6  and  C_7
REMARK    5  A    between atoms: C_7  and  C_8
REMARK    6  A    between atoms: N_10  and  C_11
REMARK                            x       y       z     vdW  Elec       q    Type
REMARK                         _______ _______ _______ _____ _____    ______ ____
ROOT
ATOM      1  C   UNL     1       7.840   7.063  18.232  0.00  0.00    +0.000 C 
ENDROOT
BRANCH   1   2
ATOM      2  C   UNL     1       8.018   8.580  18.194  0.00  0.00    +0.000 C 
ATOM      3  O   UNL     1       7.377   9.334  17.468  0.00  0.00    +0.000 OA
ATOM      4  N   UNL     1       9.001   8.997  19.095  0.00  0.00    +0.000 N 
ATOM      5  H   UNL     1       9.707   8.307  19.320  0.00  0.00    +0.000 HD
BRANCH   4   6
ATOM      6  C   UNL     1       9.389  10.346  19.251  0.00  0.00    +0.000 A 
ATOM      7  C   UNL     1       9.967  10.986  18.126  0.00  0.00    +0.000 A 
ATOM      8  C   UNL     1      10.357  12.329  18.174  0.00  0.00    +0.000 A 
ATOM      9  C   UNL     1      10.236  12.963  19.385  0.00  0.00    +0.000 A 
ATOM     10  N   UNL     1      10.599  14.255  19.747  0.00  0.00    +0.000 N 
ATOM     11  C   UNL     1      10.410  14.402  21.128  0.00  0.00    +0.000 A 
ATOM     12  O   UNL     1      10.685  15.386  21.797  0.00  0.00    +0.000 OA
ATOM     13  N   UNL     1       9.870  13.193  21.592  0.00  0.00    +0.000 N 
ATOM     14  C   UNL     1       9.742  12.313  20.516  0.00  0.00    +0.000 A 
ATOM     15  C   UNL     1       9.267  11.020  20.475  0.00  0.00    +0.000 A 
ATOM     16  H   UNL     1      10.970  14.975  19.153  0.00  0.00    +0.000 HD
ATOM     17  H   UNL     1       9.668  13.007  22.561  0.00  0.00    +0.000 HD
ENDBRANCH   4   6
ENDBRANCH   1   2
BRANCH   1  18
ATOM     18  S   UNL     1       7.069   6.357  16.753  0.00  0.00    +0.000 S 
BRANCH  18  20
ATOM     19  N   UNL     1       5.312   4.307  16.949  0.00  0.00    +0.000 N 
ATOM     20  C   UNL     1       5.644   5.573  17.415  0.00  0.00    +0.000 A 
ATOM     21  N   UNL     1       4.950   6.230  18.291  0.00  0.00    +0.000 NA
ATOM     22  C   UNL     1       3.809   5.621  18.827  0.00  0.00    +0.000 A 
ATOM     23  C   UNL     1       2.994   6.345  19.701  0.00  0.00    +0.000 A 
ATOM     24  C   UNL     1       1.872   5.752  20.291  0.00  0.00    +0.000 A 
ATOM     25  C   UNL     1       1.558   4.421  20.020  0.00  0.00    +0.000 A 
ATOM     26  C   UNL     1       2.350   3.695  19.133  0.00  0.00    +0.000 A 
ATOM     27  C   UNL     1       3.460   4.305  18.534  0.00  0.00    +0.000 A 
ATOM     28  C   UNL     1       4.260   3.599  17.524  0.00  0.00    +0.000 A 
ATOM     29  O   UNL     1       3.943   2.451  17.223  0.00  0.00    +0.000 OA
BRANCH  19  30
ATOM     30  C   UNL     1       5.991   3.626  15.842  0.00  0.00    +0.000 C 
BRANCH  30  32
ATOM     31  C   UNL     1       5.775   3.729  13.326  0.00  0.00    +0.000 C 
ATOM     32  C   UNL     1       5.571   4.263  14.538  0.00  0.00    +0.000 C 
ENDBRANCH  30  32
ENDBRANCH  19  30
ENDBRANCH  18  20
ENDBRANCH   1  18
TORSDOF 6
ENDMDL
