MODEL 1
REMARK VINA RESULT:      -8.4      0.000      0.000
REMARK  Name = 
REMARK  4 active torsions:
REMARK  status: ('A' for Active; 'I' for Inactive)
REMARK    1  A    between atoms: C_2  and  C_21
REMARK    2  A    between atoms: N_3  and  C_4
REMARK    3  A    between atoms: C_5  and  C_6
REMARK    4  A    between atoms: C_24  and  C_25
REMARK                            x       y       z     vdW  Elec       q    Type
REMARK                         _______ _______ _______ _____ _____    ______ ____
ROOT
ATOM      1  C   UNL     1       2.891   5.453  17.742  0.00  0.00    +0.000 A 
ATOM      2  C   UNL     1       4.092   5.178  17.127  0.00  0.00    +0.000 A 
ATOM      3  O   UNL     1       4.323   3.827  17.179  0.00  0.00    +0.000 OA
ATOM      4  C   UNL     1       3.260   3.240  17.775  0.00  0.00    +0.000 A 
ATOM      5  C   UNL     1       3.113   1.873  18.018  0.00  0.00    +0.000 A 
ATOM      6  C   UNL     1       1.932   1.474  18.646  0.00  0.00    +0.000 A 
ATOM      7  C   UNL     1       0.954   2.405  19.000  0.00  0.00    +0.000 A 
ATOM      8  C   UNL     1       1.141   3.772  18.751  0.00  0.00    +0.000 A 
ATOM      9  C   UNL     1       2.334   4.203  18.146  0.00  0.00    +0.000 A 
ENDROOT
BRANCH   2  10
ATOM     10  C   UNL     1       5.153   6.055  16.670  0.00  0.00    +0.000 C 
ATOM     11  O   UNL     1       4.966   6.834  15.721  0.00  0.00    +0.000 OA
ATOM     12  N   UNL     1       6.388   6.009  17.299  0.00  0.00    +0.000 N 
ATOM     13  C   UNL     1       6.769   5.097  18.374  0.00  0.00    +0.000 C 
ATOM     14  C   UNL     1       7.396   5.855  19.539  0.00  0.00    +0.000 C 
ATOM     15  O   UNL     1       8.486   6.676  19.086  0.00  0.00    +0.000 OA
ATOM     16  C   UNL     1       8.049   7.612  18.086  0.00  0.00    +0.000 C 
ATOM     17  C   UNL     1       7.478   6.877  16.867  0.00  0.00    +0.000 C 
ENDBRANCH   2  10
BRANCH   1  20
ATOM     18  O   UNL     1       2.439   6.749  20.235  0.00  0.00    +0.000 OA
ATOM     19  C   UNL     1       2.185   7.283  19.176  0.00  0.00    +0.000 C 
ATOM     20  N   UNL     1       2.341   6.730  17.905  0.00  0.00    +0.000 N 
ATOM     21  H   UNL     1       2.458   7.364  17.124  0.00  0.00    +0.000 HD
BRANCH  19  22
ATOM     22  C   UNL     1       1.705   8.682  19.185  0.00  0.00    +0.000 A 
ATOM     23  C   UNL     1       1.953   9.520  18.097  0.00  0.00    +0.000 A 
ATOM     24  C   UNL     1       1.507  10.841  18.134  0.00  0.00    +0.000 A 
ATOM     25  C   UNL     1       0.829  11.302  19.267  0.00  0.00    +0.000 A 
ATOM     26  N   UNL     1       0.619  10.498  20.354  0.00  0.00    +0.000 NA
ATOM     27  C   UNL     1       1.067   9.221  20.289  0.00  0.00    +0.000 A 
BRANCH  25  28
ATOM     28  C   UNL     1       0.286  12.728  19.296  0.00  0.00    +0.000 C 
ATOM     29  F   UNL     1       0.099  13.252  18.049  0.00  0.00    +0.000 F 
ATOM     30  F   UNL     1      -0.925  12.823  19.916  0.00  0.00    +0.000 F 
ATOM     31  F   UNL     1       1.109  13.605  19.940  0.00  0.00    +0.000 F 
ENDBRANCH  25  28
ENDBRANCH  19  22
ENDBRANCH   1  20
TORSDOF 4
ENDMDL
MODEL 2
REMARK VINA RESULT:      -8.3      0.561      1.050
REMARK  Name = 
REMARK  4 active torsions:
REMARK  status: ('A' for Active; 'I' for Inactive)
REMARK    1  A    between atoms: C_2  and  C_21
REMARK    2  A    between atoms: N_3  and  C_4
REMARK    3  A    between atoms: C_5  and  C_6
REMARK    4  A    between atoms: C_24  and  C_25
REMARK                            x       y       z     vdW  Elec       q    Type
REMARK                         _______ _______ _______ _____ _____    ______ ____
ROOT
ATOM      1  C   UNL     1       2.873   5.486  17.756  0.00  0.00    +0.000 A 
ATOM      2  C   UNL     1       4.076   5.204  17.149  0.00  0.00    +0.000 A 
ATOM      3  O   UNL     1       4.302   3.852  17.208  0.00  0.00    +0.000 OA
ATOM      4  C   UNL     1       3.235   3.272  17.802  0.00  0.00    +0.000 A 
ATOM      5  C   UNL     1       3.081   1.907  18.050  0.00  0.00    +0.000 A 
ATOM      6  C   UNL     1       1.896   1.515  18.675  0.00  0.00    +0.000 A 
ATOM      7  C   UNL     1       0.919   2.451  19.018  0.00  0.00    +0.000 A 
ATOM      8  C   UNL     1       1.112   3.815  18.764  0.00  0.00    +0.000 A 
ATOM      9  C   UNL     1       2.309   4.240  18.163  0.00  0.00    +0.000 A 
ENDROOT
BRANCH   2  10
ATOM     10  C   UNL     1       5.143   6.075  16.694  0.00  0.00    +0.000 C 
ATOM     11  O   UNL     1       4.958   6.861  15.749  0.00  0.00    +0.000 OA
ATOM     12  N   UNL     1       6.379   6.016  17.318  0.00  0.00    +0.000 N 
ATOM     13  C   UNL     1       6.757   5.096  18.387  0.00  0.00    +0.000 C 
ATOM     14  C   UNL     1       7.393   5.842  19.554  0.00  0.00    +0.000 C 
ATOM     15  O   UNL     1       8.488   6.657  19.102  0.00  0.00    +0.000 OA
ATOM     16  C   UNL     1       8.055   7.602  18.109  0.00  0.00    +0.000 C 
ATOM     17  C   UNL     1       7.475   6.878  16.888  0.00  0.00    +0.000 C 
ENDBRANCH   2  10
BRANCH   1  20
ATOM     18  O   UNL     1       2.440   6.809  20.239  0.00  0.00    +0.000 OA
ATOM     19  C   UNL     1       2.180   7.332  19.175  0.00  0.00    +0.000 C 
ATOM     20  N   UNL     1       2.327   6.765  17.909  0.00  0.00    +0.000 N 
ATOM     21  H   UNL     1       2.438   7.391  17.121  0.00  0.00    +0.000 HD
BRANCH  19  22
ATOM     22  C   UNL     1       1.702   8.732  19.174  0.00  0.00    +0.000 A 
ATOM     23  C   UNL     1       0.951   9.221  20.243  0.00  0.00    +0.000 A 
ATOM     24  C   UNL     1       0.493  10.539  20.213  0.00  0.00    +0.000 A 
ATOM     25  C   UNL     1       0.789  11.340  19.106  0.00  0.00    +0.000 A 
ATOM     26  N   UNL     1       1.490  10.854  18.036  0.00  0.00    +0.000 NA
ATOM     27  C   UNL     1       1.918   9.569  18.093  0.00  0.00    +0.000 A 
BRANCH  25  28
ATOM     28  C   UNL     1       0.344  12.799  19.087  0.00  0.00    +0.000 C 
ATOM     29  F   UNL     1       1.390  13.676  19.127  0.00  0.00    +0.000 F 
ATOM     30  F   UNL     1      -0.361  13.125  17.966  0.00  0.00    +0.000 F 
ATOM     31  F   UNL     1      -0.452  13.134  20.143  0.00  0.00    +0.000 F 
ENDBRANCH  25  28
ENDBRANCH  19  22
ENDBRANCH   1  20
TORSDOF 4
ENDMDL
MODEL 3
REMARK VINA RESULT:      -8.2      4.638      7.498
REMARK  Name = 
REMARK  4 active torsions:
REMARK  status: ('A' for Active; 'I' for Inactive)
REMARK    1  A    between atoms: C_2  and  C_21
REMARK    2  A    between atoms: N_3  and  C_4
REMARK    3  A    between atoms: C_5  and  C_6
REMARK    4  A    between atoms: C_24  and  C_25
REMARK                            x       y       z     vdW  Elec       q    Type
REMARK                         _______ _______ _______ _____ _____    ______ ____
ROOT
ATOM      1  C   UNL     1       3.027   5.217  18.833  0.00  0.00    +0.000 A 
ATOM      2  C   UNL     1       2.364   6.270  19.422  0.00  0.00    +0.000 A 
ATOM      3  O   UNL     1       1.672   5.811  20.513  0.00  0.00    +0.000 OA
ATOM      4  C   UNL     1       1.929   4.490  20.649  0.00  0.00    +0.000 A 
ATOM      5  C   UNL     1       1.411   3.656  21.642  0.00  0.00    +0.000 A 
ATOM      6  C   UNL     1       1.807   2.318  21.604  0.00  0.00    +0.000 A 
ATOM      7  C   UNL     1       2.685   1.855  20.623  0.00  0.00    +0.000 A 
ATOM      8  C   UNL     1       3.177   2.718  19.634  0.00  0.00    +0.000 A 
ATOM      9  C   UNL     1       2.770   4.064  19.632  0.00  0.00    +0.000 A 
ENDROOT
BRANCH   2  10
ATOM     10  C   UNL     1       2.136   7.628  18.966  0.00  0.00    +0.000 C 
ATOM     11  O   UNL     1       2.454   7.972  17.815  0.00  0.00    +0.000 OA
ATOM     12  N   UNL     1       1.566   8.547  19.834  0.00  0.00    +0.000 N 
ATOM     13  C   UNL     1       1.209   8.303  21.229  0.00  0.00    +0.000 C 
ATOM     14  C   UNL     1      -0.221   8.747  21.516  0.00  0.00    +0.000 C 
ATOM     15  O   UNL     1      -0.421  10.113  21.116  0.00  0.00    +0.000 OA
ATOM     16  C   UNL     1      -0.136  10.291  19.718  0.00  0.00    +0.000 C 
ATOM     17  C   UNL     1       1.320   9.922  19.410  0.00  0.00    +0.000 C 
ENDBRANCH   2  10
BRANCH   1  20
ATOM     18  O   UNL     1       5.839   4.793  18.717  0.00  0.00    +0.000 OA
ATOM     19  C   UNL     1       5.184   5.050  17.728  0.00  0.00    +0.000 C 
ATOM     20  N   UNL     1       3.813   5.302  17.678  0.00  0.00    +0.000 N 
ATOM     21  H   UNL     1       3.333   5.134  16.803  0.00  0.00    +0.000 HD
BRANCH  19  22
ATOM     22  C   UNL     1       5.862   5.060  16.413  0.00  0.00    +0.000 A 
ATOM     23  C   UNL     1       5.299   4.392  15.326  0.00  0.00    +0.000 A 
ATOM     24  C   UNL     1       5.964   4.398  14.099  0.00  0.00    +0.000 A 
ATOM     25  C   UNL     1       7.188   5.066  13.988  0.00  0.00    +0.000 A 
ATOM     26  N   UNL     1       7.765   5.688  15.062  0.00  0.00    +0.000 NA
ATOM     27  C   UNL     1       7.097   5.661  16.240  0.00  0.00    +0.000 A 
BRANCH  25  28
ATOM     28  C   UNL     1       7.896   5.129  12.638  0.00  0.00    +0.000 C 
ATOM     29  F   UNL     1       7.516   6.203  11.886  0.00  0.00    +0.000 F 
ATOM     30  F   UNL     1       9.251   5.228  12.753  0.00  0.00    +0.000 F 
ATOM     31  F   UNL     1       7.663   4.035  11.856  0.00  0.00    +0.000 F 
ENDBRANCH  25  28
ENDBRANCH  19  22
ENDBRANCH   1  20
TORSDOF 4
ENDMDL
MODEL 4
REMARK VINA RESULT:      -8.0      4.702      7.520
REMARK  Name = 
REMARK  4 active torsions:
REMARK  status: ('A' for Active; 'I' for Inactive)
REMARK    1  A    between atoms: C_2  and  C_21
REMARK    2  A    between atoms: N_3  and  C_4
REMARK    3  A    between atoms: C_5  and  C_6
REMARK    4  A    between atoms: C_24  and  C_25
REMARK                            x       y       z     vdW  Elec       q    Type
REMARK                         _______ _______ _______ _____ _____    ______ ____
ROOT
ATOM      1  C   UNL     1       3.504   5.279  18.926  0.00  0.00    +0.000 A 
ATOM      2  C   UNL     1       2.667   6.306  19.299  0.00  0.00    +0.000 A 
ATOM      3  O   UNL     1       1.894   5.894  20.355  0.00  0.00    +0.000 OA
ATOM      4  C   UNL     1       2.267   4.637  20.684  0.00  0.00    +0.000 A 
ATOM      5  C   UNL     1       1.717   3.865  21.710  0.00  0.00    +0.000 A 
ATOM      6  C   UNL     1       2.252   2.587  21.885  0.00  0.00    +0.000 A 
ATOM      7  C   UNL     1       3.289   2.123  21.076  0.00  0.00    +0.000 A 
ATOM      8  C   UNL     1       3.810   2.921  20.048  0.00  0.00    +0.000 A 
ATOM      9  C   UNL     1       3.270   4.201  19.831  0.00  0.00    +0.000 A 
ENDROOT
BRANCH   2  10
ATOM     10  C   UNL     1       2.359   7.568  18.653  0.00  0.00    +0.000 C 
ATOM     11  O   UNL     1       2.645   7.754  17.458  0.00  0.00    +0.000 OA
ATOM     12  N   UNL     1       1.748   8.573  19.386  0.00  0.00    +0.000 N 
ATOM     13  C   UNL     1       1.421   8.520  20.809  0.00  0.00    +0.000 C 
ATOM     14  C   UNL     1      -0.028   8.924  21.054  0.00  0.00    +0.000 C 
ATOM     15  O   UNL     1      -0.308  10.203  20.462  0.00  0.00    +0.000 OA
ATOM     16  C   UNL     1      -0.049  10.188  19.048  0.00  0.00    +0.000 C 
ATOM     17  C   UNL     1       1.422   9.855  18.769  0.00  0.00    +0.000 C 
ENDBRANCH   2  10
BRANCH   1  20
ATOM     18  O   UNL     1       3.663   3.392  16.801  0.00  0.00    +0.000 OA
ATOM     19  C   UNL     1       4.392   4.360  16.860  0.00  0.00    +0.000 C 
ATOM     20  N   UNL     1       4.417   5.325  17.866  0.00  0.00    +0.000 N 
ATOM     21  H   UNL     1       4.777   6.243  17.632  0.00  0.00    +0.000 HD
BRANCH  19  22
ATOM     22  C   UNL     1       5.334   4.605  15.746  0.00  0.00    +0.000 A 
ATOM     23  C   UNL     1       5.119   4.016  14.499  0.00  0.00    +0.000 A 
ATOM     24  C   UNL     1       6.029   4.245  13.467  0.00  0.00    +0.000 A 
ATOM     25  C   UNL     1       7.145   5.053  13.707  0.00  0.00    +0.000 A 
ATOM     26  N   UNL     1       7.384   5.600  14.938  0.00  0.00    +0.000 NA
ATOM     27  C   UNL     1       6.483   5.356  15.922  0.00  0.00    +0.000 A 
BRANCH  25  28
ATOM     28  C   UNL     1       8.117   5.358  12.571  0.00  0.00    +0.000 C 
ATOM     29  F   UNL     1       9.416   5.423  12.983  0.00  0.00    +0.000 F 
ATOM     30  F   UNL     1       8.096   4.414  11.586  0.00  0.00    +0.000 F 
ATOM     31  F   UNL     1       7.870   6.550  11.955  0.00  0.00    +0.000 F 
ENDBRANCH  25  28
ENDBRANCH  19  22
ENDBRANCH   1  20
TORSDOF 4
ENDMDL
MODEL 5
REMARK VINA RESULT:      -8.0      0.900      1.144
REMARK  Name = 
REMARK  4 active torsions:
REMARK  status: ('A' for Active; 'I' for Inactive)
REMARK    1  A    between atoms: C_2  and  C_21
REMARK    2  A    between atoms: N_3  and  C_4
REMARK    3  A    between atoms: C_5  and  C_6
REMARK    4  A    between atoms: C_24  and  C_25
REMARK                            x       y       z     vdW  Elec       q    Type
REMARK                         _______ _______ _______ _____ _____    ______ ____
ROOT
ATOM      1  C   UNL     1       2.720   5.568  18.173  0.00  0.00    +0.000 A 
ATOM      2  C   UNL     1       3.843   5.380  17.398  0.00  0.00    +0.000 A 
ATOM      3  O   UNL     1       4.050   4.035  17.229  0.00  0.00    +0.000 OA
ATOM      4  C   UNL     1       3.046   3.373  17.848  0.00  0.00    +0.000 A 
ATOM      5  C   UNL     1       2.898   1.986  17.905  0.00  0.00    +0.000 A 
ATOM      6  C   UNL     1       1.783   1.505  18.595  0.00  0.00    +0.000 A 
ATOM      7  C   UNL     1       0.868   2.379  19.183  0.00  0.00    +0.000 A 
ATOM      8  C   UNL     1       1.055   3.766  19.115  0.00  0.00    +0.000 A 
ATOM      9  C   UNL     1       2.185   4.276  18.452  0.00  0.00    +0.000 A 
ENDROOT
BRANCH   2  10
ATOM     10  C   UNL     1       4.866   6.310  16.960  0.00  0.00    +0.000 C 
ATOM     11  O   UNL     1       4.593   7.222  16.161  0.00  0.00    +0.000 OA
ATOM     12  N   UNL     1       6.161   6.165  17.433  0.00  0.00    +0.000 N 
ATOM     13  C   UNL     1       6.638   5.103  18.315  0.00  0.00    +0.000 C 
ATOM     14  C   UNL     1       7.404   5.677  19.501  0.00  0.00    +0.000 C 
ATOM     15  O   UNL     1       8.455   6.550  19.055  0.00  0.00    +0.000 OA
ATOM     16  C   UNL     1       7.932   7.626  18.257  0.00  0.00    +0.000 C 
ATOM     17  C   UNL     1       7.216   7.082  17.015  0.00  0.00    +0.000 C 
ENDBRANCH   2  10
BRANCH   1  20
ATOM     18  O   UNL     1       2.048   6.287  20.844  0.00  0.00    +0.000 OA
ATOM     19  C   UNL     1       1.943   7.067  19.921  0.00  0.00    +0.000 C 
ATOM     20  N   UNL     1       2.217   6.810  18.577  0.00  0.00    +0.000 N 
ATOM     21  H   UNL     1       2.453   7.597  17.984  0.00  0.00    +0.000 HD
BRANCH  19  22
ATOM     22  C   UNL     1       1.532   8.458  20.212  0.00  0.00    +0.000 A 
ATOM     23  C   UNL     1       1.328   9.365  19.172  0.00  0.00    +0.000 A 
ATOM     24  C   UNL     1       0.959  10.677  19.469  0.00  0.00    +0.000 A 
ATOM     25  C   UNL     1       0.811  11.059  20.807  0.00  0.00    +0.000 A 
ATOM     26  N   UNL     1       1.050  10.186  21.832  0.00  0.00    +0.000 NA
ATOM     27  C   UNL     1       1.411   8.919  21.511  0.00  0.00    +0.000 A 
BRANCH  25  28
ATOM     28  C   UNL     1       0.351  12.475  21.143  0.00  0.00    +0.000 C 
ATOM     29  F   UNL     1       1.377  13.375  21.170  0.00  0.00    +0.000 F 
ATOM     30  F   UNL     1      -0.544  12.971  20.241  0.00  0.00    +0.000 F 
ATOM     31  F   UNL     1      -0.251  12.571  22.363  0.00  0.00    +0.000 F 
ENDBRANCH  25  28
ENDBRANCH  19  22
ENDBRANCH   1  20
TORSDOF 4
ENDMDL
MODEL 6
REMARK VINA RESULT:      -7.9      4.583      8.192
REMARK  Name = 
REMARK  4 active torsions:
REMARK  status: ('A' for Active; 'I' for Inactive)
REMARK    1  A    between atoms: C_2  and  C_21
REMARK    2  A    between atoms: N_3  and  C_4
REMARK    3  A    between atoms: C_5  and  C_6
REMARK    4  A    between atoms: C_24  and  C_25
REMARK                            x       y       z     vdW  Elec       q    Type
REMARK                         _______ _______ _______ _____ _____    ______ ____
ROOT
ATOM      1  C   UNL     1      -0.199  10.534  18.809  0.00  0.00    +0.000 A 
ATOM      2  C   UNL     1      -0.203  11.532  19.757  0.00  0.00    +0.000 A 
ATOM      3  O   UNL     1      -1.406  12.189  19.712  0.00  0.00    +0.000 OA
ATOM      4  C   UNL     1      -2.179  11.587  18.779  0.00  0.00    +0.000 A 
ATOM      5  C   UNL     1      -3.479  11.961  18.432  0.00  0.00    +0.000 A 
ATOM      6  C   UNL     1      -4.105  11.201  17.442  0.00  0.00    +0.000 A 
ATOM      7  C   UNL     1      -3.454  10.119  16.846  0.00  0.00    +0.000 A 
ATOM      8  C   UNL     1      -2.145   9.779  17.211  0.00  0.00    +0.000 A 
ATOM      9  C   UNL     1      -1.481  10.546  18.185  0.00  0.00    +0.000 A 
ENDROOT
BRANCH   2  10
ATOM     10  C   UNL     1       0.865  12.080  20.571  0.00  0.00    +0.000 C 
ATOM     11  O   UNL     1       1.227  11.504  21.611  0.00  0.00    +0.000 OA
ATOM     12  N   UNL     1       1.475  13.262  20.182  0.00  0.00    +0.000 N 
ATOM     13  C   UNL     1       1.107  14.078  19.029  0.00  0.00    +0.000 C 
ATOM     14  C   UNL     1       2.328  14.413  18.180  0.00  0.00    +0.000 C 
ATOM     15  O   UNL     1       3.360  15.011  18.984  0.00  0.00    +0.000 OA
ATOM     16  C   UNL     1       3.748  14.140  20.060  0.00  0.00    +0.000 C 
ATOM     17  C   UNL     1       2.554  13.842  20.976  0.00  0.00    +0.000 C 
ENDBRANCH   2  10
BRANCH   1  20
ATOM     18  O   UNL     1       0.741   8.489  20.551  0.00  0.00    +0.000 OA
ATOM     19  C   UNL     1       1.238   8.686  19.462  0.00  0.00    +0.000 C 
ATOM     20  N   UNL     1       0.874   9.675  18.547  0.00  0.00    +0.000 N 
ATOM     21  H   UNL     1       1.083   9.513  17.569  0.00  0.00    +0.000 HD
BRANCH  19  22
ATOM     22  C   UNL     1       2.309   7.779  18.998  0.00  0.00    +0.000 A 
ATOM     23  C   UNL     1       2.968   8.025  17.793  0.00  0.00    +0.000 A 
ATOM     24  C   UNL     1       3.963   7.146  17.364  0.00  0.00    +0.000 A 
ATOM     25  C   UNL     1       4.273   6.029  18.147  0.00  0.00    +0.000 A 
ATOM     26  N   UNL     1       3.602   5.760  19.309  0.00  0.00    +0.000 NA
ATOM     27  C   UNL     1       2.638   6.630  19.697  0.00  0.00    +0.000 A 
BRANCH  25  28
ATOM     28  C   UNL     1       5.398   5.093  17.718  0.00  0.00    +0.000 C 
ATOM     29  F   UNL     1       6.614   5.712  17.659  0.00  0.00    +0.000 F 
ATOM     30  F   UNL     1       5.568   4.041  18.569  0.00  0.00    +0.000 F 
ATOM     31  F   UNL     1       5.206   4.550  16.481  0.00  0.00    +0.000 F 
ENDBRANCH  25  28
ENDBRANCH  19  22
ENDBRANCH   1  20
TORSDOF 4
ENDMDL
MODEL 7
REMARK VINA RESULT:      -7.9      1.264      1.707
REMARK  Name = 
REMARK  4 active torsions:
REMARK  status: ('A' for Active; 'I' for Inactive)
REMARK    1  A    between atoms: C_2  and  C_21
REMARK    2  A    between atoms: N_3  and  C_4
REMARK    3  A    between atoms: C_5  and  C_6
REMARK    4  A    between atoms: C_24  and  C_25
REMARK                            x       y       z     vdW  Elec       q    Type
REMARK                         _______ _______ _______ _____ _____    ______ ____
ROOT
ATOM      1  C   UNL     1       2.760   5.881  18.782  0.00  0.00    +0.000 A 
ATOM      2  C   UNL     1       3.697   5.578  17.820  0.00  0.00    +0.000 A 
ATOM      3  O   UNL     1       3.701   4.222  17.610  0.00  0.00    +0.000 OA
ATOM      4  C   UNL     1       2.745   3.672  18.393  0.00  0.00    +0.000 A 
ATOM      5  C   UNL     1       2.435   2.312  18.469  0.00  0.00    +0.000 A 
ATOM      6  C   UNL     1       1.407   1.954  19.342  0.00  0.00    +0.000 A 
ATOM      7  C   UNL     1       0.725   2.918  20.087  0.00  0.00    +0.000 A 
ATOM      8  C   UNL     1       1.071   4.273  19.994  0.00  0.00    +0.000 A 
ATOM      9  C   UNL     1       2.123   4.658  19.144  0.00  0.00    +0.000 A 
ENDROOT
BRANCH   2  10
ATOM     10  C   UNL     1       4.737   6.385  17.213  0.00  0.00    +0.000 C 
ATOM     11  O   UNL     1       4.456   7.236  16.351  0.00  0.00    +0.000 OA
ATOM     12  N   UNL     1       6.055   6.192  17.595  0.00  0.00    +0.000 N 
ATOM     13  C   UNL     1       6.536   5.186  18.538  0.00  0.00    +0.000 C 
ATOM     14  C   UNL     1       7.436   5.812  19.598  0.00  0.00    +0.000 C 
ATOM     15  O   UNL     1       8.499   6.561  18.986  0.00  0.00    +0.000 OA
ATOM     16  C   UNL     1       7.981   7.592  18.129  0.00  0.00    +0.000 C 
ATOM     17  C   UNL     1       7.128   6.988  17.007  0.00  0.00    +0.000 C 
ENDBRANCH   2  10
BRANCH   1  20
ATOM     18  O   UNL     1       1.389   7.940  17.373  0.00  0.00    +0.000 OA
ATOM     19  C   UNL     1       1.792   8.093  18.508  0.00  0.00    +0.000 C 
ATOM     20  N   UNL     1       2.496   7.164  19.275  0.00  0.00    +0.000 N 
ATOM     21  H   UNL     1       2.447   7.250  20.283  0.00  0.00    +0.000 HD
BRANCH  19  22
ATOM     22  C   UNL     1       1.484   9.361  19.203  0.00  0.00    +0.000 A 
ATOM     23  C   UNL     1       1.056   9.351  20.531  0.00  0.00    +0.000 A 
ATOM     24  C   UNL     1       0.753  10.558  21.162  0.00  0.00    +0.000 A 
ATOM     25  C   UNL     1       0.874  11.753  20.447  0.00  0.00    +0.000 A 
ATOM     26  N   UNL     1       1.254  11.767  19.132  0.00  0.00    +0.000 NA
ATOM     27  C   UNL     1       1.537  10.578  18.546  0.00  0.00    +0.000 A 
BRANCH  25  28
ATOM     28  C   UNL     1       0.601  13.083  21.143  0.00  0.00    +0.000 C 
ATOM     29  F   UNL     1      -0.105  12.943  22.303  0.00  0.00    +0.000 F 
ATOM     30  F   UNL     1       1.742  13.745  21.491  0.00  0.00    +0.000 F 
ATOM     31  F   UNL     1      -0.121  13.953  20.380  0.00  0.00    +0.000 F 
ENDBRANCH  25  28
ENDBRANCH  19  22
ENDBRANCH   1  20
TORSDOF 4
ENDMDL
MODEL 8
REMARK VINA RESULT:      -7.9      4.711      8.374
REMARK  Name = 
REMARK  4 active torsions:
REMARK  status: ('A' for Active; 'I' for Inactive)
REMARK    1  A    between atoms: C_2  and  C_21
REMARK    2  A    between atoms: N_3  and  C_4
REMARK    3  A    between atoms: C_5  and  C_6
REMARK    4  A    between atoms: C_24  and  C_25
REMARK                            x       y       z     vdW  Elec       q    Type
REMARK                         _______ _______ _______ _____ _____    ______ ____
ROOT
ATOM      1  C   UNL     1      -0.067  10.637  18.447  0.00  0.00    +0.000 A 
ATOM      2  C   UNL     1       0.150  11.882  18.994  0.00  0.00    +0.000 A 
ATOM      3  O   UNL     1      -1.031  12.580  19.003  0.00  0.00    +0.000 OA
ATOM      4  C   UNL     1      -2.000  11.773  18.514  0.00  0.00    +0.000 A 
ATOM      5  C   UNL     1      -3.345  12.116  18.360  0.00  0.00    +0.000 A 
ATOM      6  C   UNL     1      -4.184  11.130  17.837  0.00  0.00    +0.000 A 
ATOM      7  C   UNL     1      -3.691   9.869  17.499  0.00  0.00    +0.000 A 
ATOM      8  C   UNL     1      -2.332   9.564  17.656  0.00  0.00    +0.000 A 
ATOM      9  C   UNL     1      -1.460  10.548  18.153  0.00  0.00    +0.000 A 
ENDROOT
BRANCH   2  10
ATOM     10  C   UNL     1       1.379  12.577  19.326  0.00  0.00    +0.000 C 
ATOM     11  O   UNL     1       2.322  12.618  18.518  0.00  0.00    +0.000 OA
ATOM     12  N   UNL     1       1.497  13.190  20.564  0.00  0.00    +0.000 N 
ATOM     13  C   UNL     1       0.503  13.162  21.633  0.00  0.00    +0.000 C 
ATOM     14  C   UNL     1       0.218  14.566  22.154  0.00  0.00    +0.000 C 
ATOM     15  O   UNL     1       1.436  15.225  22.538  0.00  0.00    +0.000 OA
ATOM     16  C   UNL     1       2.354  15.302  21.433  0.00  0.00    +0.000 C 
ATOM     17  C   UNL     1       2.719  13.899  20.932  0.00  0.00    +0.000 C 
ENDBRANCH   2  10
BRANCH   1  20
ATOM     18  O   UNL     1       1.006   8.945  20.469  0.00  0.00    +0.000 OA
ATOM     19  C   UNL     1       1.354   8.865  19.309  0.00  0.00    +0.000 C 
ATOM     20  N   UNL     1       0.915   9.660  18.250  0.00  0.00    +0.000 N 
ATOM     21  H   UNL     1       0.976   9.277  17.315  0.00  0.00    +0.000 HD
BRANCH  19  22
ATOM     22  C   UNL     1       2.304   7.798  18.927  0.00  0.00    +0.000 A 
ATOM     23  C   UNL     1       3.043   7.901  17.749  0.00  0.00    +0.000 A 
ATOM     24  C   UNL     1       3.920   6.874  17.398  0.00  0.00    +0.000 A 
ATOM     25  C   UNL     1       4.033   5.757  18.231  0.00  0.00    +0.000 A 
ATOM     26  N   UNL     1       3.281   5.631  19.367  0.00  0.00    +0.000 NA
ATOM     27  C   UNL     1       2.435   6.643  19.679  0.00  0.00    +0.000 A 
BRANCH  25  28
ATOM     28  C   UNL     1       5.031   4.655  17.888  0.00  0.00    +0.000 C 
ATOM     29  F   UNL     1       5.355   4.623  16.562  0.00  0.00    +0.000 F 
ATOM     30  F   UNL     1       6.217   4.787  18.548  0.00  0.00    +0.000 F 
ATOM     31  F   UNL     1       4.574   3.403  18.181  0.00  0.00    +0.000 F 
ENDBRANCH  25  28
ENDBRANCH  19  22
ENDBRANCH   1  20
TORSDOF 4
ENDMDL
MODEL 9
REMARK VINA RESULT:      -7.8      1.282      1.524
REMARK  Name = 
REMARK  4 active torsions:
REMARK  status: ('A' for Active; 'I' for Inactive)
REMARK    1  A    between atoms: C_2  and  C_21
REMARK    2  A    between atoms: N_3  and  C_4
REMARK    3  A    between atoms: C_5  and  C_6
REMARK    4  A    between atoms: C_24  and  C_25
REMARK                            x       y       z     vdW  Elec       q    Type
REMARK                         _______ _______ _______ _____ _____    ______ ____
ROOT
ATOM      1  C   UNL     1       2.698   5.991  18.896  0.00  0.00    +0.000 A 
ATOM      2  C   UNL     1       3.636   5.688  17.935  0.00  0.00    +0.000 A 
ATOM      3  O   UNL     1       3.654   4.331  17.737  0.00  0.00    +0.000 OA
ATOM      4  C   UNL     1       2.704   3.779  18.527  0.00  0.00    +0.000 A 
ATOM      5  C   UNL     1       2.408   2.417  18.616  0.00  0.00    +0.000 A 
ATOM      6  C   UNL     1       1.385   2.056  19.494  0.00  0.00    +0.000 A 
ATOM      7  C   UNL     1       0.696   3.020  20.231  0.00  0.00    +0.000 A 
ATOM      8  C   UNL     1       1.027   4.378  20.126  0.00  0.00    +0.000 A 
ATOM      9  C   UNL     1       2.074   4.765  19.271  0.00  0.00    +0.000 A 
ENDROOT
BRANCH   2  10
ATOM     10  C   UNL     1       4.667   6.501  17.318  0.00  0.00    +0.000 C 
ATOM     11  O   UNL     1       4.370   7.390  16.503  0.00  0.00    +0.000 OA
ATOM     12  N   UNL     1       5.996   6.269  17.639  0.00  0.00    +0.000 N 
ATOM     13  C   UNL     1       6.494   5.217  18.522  0.00  0.00    +0.000 C 
ATOM     14  C   UNL     1       7.447   5.784  19.568  0.00  0.00    +0.000 C 
ATOM     15  O   UNL     1       8.500   6.538  18.944  0.00  0.00    +0.000 OA
ATOM     16  C   UNL     1       7.968   7.611  18.149  0.00  0.00    +0.000 C 
ATOM     17  C   UNL     1       7.060   7.067  17.039  0.00  0.00    +0.000 C 
ENDBRANCH   2  10
BRANCH   1  20
ATOM     18  O   UNL     1       1.346   8.038  17.453  0.00  0.00    +0.000 OA
ATOM     19  C   UNL     1       1.728   8.199  18.594  0.00  0.00    +0.000 C 
ATOM     20  N   UNL     1       2.422   7.276  19.377  0.00  0.00    +0.000 N 
ATOM     21  H   UNL     1       2.356   7.367  20.384  0.00  0.00    +0.000 HD
BRANCH  19  22
ATOM     22  C   UNL     1       1.405   9.470  19.277  0.00  0.00    +0.000 A 
ATOM     23  C   UNL     1       1.481  10.680  18.586  0.00  0.00    +0.000 A 
ATOM     24  C   UNL     1       1.190  11.870  19.254  0.00  0.00    +0.000 A 
ATOM     25  C   UNL     1       0.839  11.825  20.607  0.00  0.00    +0.000 A 
ATOM     26  N   UNL     1       0.803  10.646  21.301  0.00  0.00    +0.000 NA
ATOM     27  C   UNL     1       1.094   9.508  20.625  0.00  0.00    +0.000 A 
BRANCH  25  28
ATOM     28  C   UNL     1       0.463  13.114  21.334  0.00  0.00    +0.000 C 
ATOM     29  F   UNL     1       1.547  13.867  21.679  0.00  0.00    +0.000 F 
ATOM     30  F   UNL     1      -0.326  13.936  20.583  0.00  0.00    +0.000 F 
ATOM     31  F   UNL     1      -0.217  12.898  22.497  0.00  0.00    +0.000 F 
ENDBRANCH  25  28
ENDBRANCH  19  22
ENDBRANCH   1  20
TORSDOF 4
ENDMDL
