MODEL 1
REMARK VINA RESULT:      -8.9      0.000      0.000
REMARK  Name = 
REMARK  7 active torsions:
REMARK  status: ('A' for Active; 'I' for Inactive)
REMARK    1  A    between atoms: C_1  and  N_2
REMARK    2  A    between atoms: C_6  and  C_7
REMARK    3  A    between atoms: C_7  and  C_8
REMARK    4  A    between atoms: C_8  and  N_9
REMARK    5  A    between atoms: N_9  and  C_10
REMARK    6  A    between atoms: C_14  and  N_15
REMARK    7  A    between atoms: C_23  and  C_24
REMARK                            x       y       z     vdW  Elec       q    Type
REMARK                         _______ _______ _______ _____ _____    ______ ____
ROOT
ATOM      1  C   UNL     1       2.077   6.896  20.086  0.00  0.00    +0.000 A 
ATOM      2  C   UNL     1       2.425   7.773  19.052  0.00  0.00    +0.000 A 
ATOM      3  C   UNL     1       2.885   7.297  17.829  0.00  0.00    +0.000 A 
ATOM      4  C   UNL     1       3.187   5.954  17.691  0.00  0.00    +0.000 A 
ATOM      5  C   UNL     1       3.183   5.138  18.833  0.00  0.00    +0.000 A 
ATOM      6  C   UNL     1       2.489   5.567  19.973  0.00  0.00    +0.000 A 
ENDROOT
BRANCH   5   7
ATOM      7  N   UNL     1       4.247   4.159  19.006  0.00  0.00    +0.000 N 
ATOM      8  C   UNL     1       5.560   4.843  19.125  0.00  0.00    +0.000 C 
ATOM      9  C   UNL     1       6.035   4.862  17.703  0.00  0.00    +0.000 A 
ATOM     10  C   UNL     1       5.436   3.780  17.048  0.00  0.00    +0.000 A 
ATOM     11  C   UNL     1       5.544   3.568  15.688  0.00  0.00    +0.000 A 
ATOM     12  C   UNL     1       6.283   4.499  14.974  0.00  0.00    +0.000 A 
ATOM     13  F   UNL     1       6.365   4.389  13.642  0.00  0.00    +0.000 F 
ATOM     14  C   UNL     1       6.880   5.605  15.601  0.00  0.00    +0.000 A 
ATOM     15  C   UNL     1       6.762   5.814  16.990  0.00  0.00    +0.000 A 
ATOM     16  C   UNL     1       4.394   3.224  17.946  0.00  0.00    +0.000 C 
ATOM     17  O   UNL     1       3.688   2.276  17.658  0.00  0.00    +0.000 OA
BRANCH  15  18
ATOM     18  C   UNL     1       7.321   7.076  17.594  0.00  0.00    +0.000 C 
ATOM     19  F   UNL     1       8.011   6.883  18.750  0.00  0.00    +0.000 F 
ATOM     20  F   UNL     1       8.184   7.704  16.751  0.00  0.00    +0.000 F 
ATOM     21  F   UNL     1       6.350   7.985  17.883  0.00  0.00    +0.000 F 
ENDBRANCH  15  18
ENDBRANCH   5   7
BRANCH   1  22
ATOM     22  N   UNL     1       1.494   7.335  21.281  0.00  0.00    +0.000 N 
ATOM     23  H   UNL     1       0.694   6.770  21.558  0.00  0.00    +0.000 HD
BRANCH  22  24
ATOM     24  C   UNL     1       1.255   8.776  21.450  0.00  0.00    +0.000 C 
BRANCH  24  25
ATOM     25  C   UNL     1      -0.244   9.104  21.574  0.00  0.00    +0.000 C 
BRANCH  25  31
ATOM     26  C   UNL     1      -0.513  11.534  19.642  0.00  0.00    +0.000 C 
ATOM     27  N   UNL     1      -0.572  11.572  21.079  0.00  0.00    +0.000 N 
ATOM     28  C   UNL     1      -0.749  12.682  21.844  0.00  0.00    +0.000 A 
ATOM     29  N   UNL     1      -0.750  12.346  23.113  0.00  0.00    +0.000 NA
ATOM     30  N   UNL     1      -0.575  10.989  23.183  0.00  0.00    +0.000 NA
ATOM     31  C   UNL     1      -0.461  10.523  21.955  0.00  0.00    +0.000 A 
ENDBRANCH  25  31
ENDBRANCH  24  25
ENDBRANCH  22  24
ENDBRANCH   1  22
TORSDOF 6
ENDMDL
MODEL 2
REMARK VINA RESULT:      -8.7      1.082      1.245
REMARK  Name = 
REMARK  7 active torsions:
REMARK  status: ('A' for Active; 'I' for Inactive)
REMARK    1  A    between atoms: C_1  and  N_2
REMARK    2  A    between atoms: C_6  and  C_7
REMARK    3  A    between atoms: C_7  and  C_8
REMARK    4  A    between atoms: C_8  and  N_9
REMARK    5  A    between atoms: N_9  and  C_10
REMARK    6  A    between atoms: C_14  and  N_15
REMARK    7  A    between atoms: C_23  and  C_24
REMARK                            x       y       z     vdW  Elec       q    Type
REMARK                         _______ _______ _______ _____ _____    ______ ____
ROOT
ATOM      1  C   UNL     1       2.000   7.593  20.095  0.00  0.00    +0.000 A 
ATOM      2  C   UNL     1       2.350   8.282  18.928  0.00  0.00    +0.000 A 
ATOM      3  C   UNL     1       2.677   7.601  17.761  0.00  0.00    +0.000 A 
ATOM      4  C   UNL     1       2.846   6.229  17.797  0.00  0.00    +0.000 A 
ATOM      5  C   UNL     1       2.850   5.580  19.041  0.00  0.00    +0.000 A 
ATOM      6  C   UNL     1       2.282   6.227  20.149  0.00  0.00    +0.000 A 
ENDROOT
BRANCH   5   7
ATOM      7  N   UNL     1       3.832   4.534  19.289  0.00  0.00    +0.000 N 
ATOM      8  C   UNL     1       5.199   5.111  19.334  0.00  0.00    +0.000 C 
ATOM      9  C   UNL     1       5.649   4.966  17.911  0.00  0.00    +0.000 A 
ATOM     10  C   UNL     1       4.950   3.886  17.360  0.00  0.00    +0.000 A 
ATOM     11  C   UNL     1       5.016   3.548  16.023  0.00  0.00    +0.000 A 
ATOM     12  C   UNL     1       5.817   4.348  15.222  0.00  0.00    +0.000 A 
ATOM     13  F   UNL     1       5.866   4.116  13.904  0.00  0.00    +0.000 F 
ATOM     14  C   UNL     1       6.515   5.449  15.742  0.00  0.00    +0.000 A 
ATOM     15  C   UNL     1       6.440   5.787  17.109  0.00  0.00    +0.000 A 
ATOM     16  C   UNL     1       3.882   3.500  18.314  0.00  0.00    +0.000 C 
ATOM     17  O   UNL     1       3.094   2.594  18.118  0.00  0.00    +0.000 OA
BRANCH  15  18
ATOM     18  C   UNL     1       7.113   7.045  17.594  0.00  0.00    +0.000 C 
ATOM     19  F   UNL     1       7.803   6.896  18.756  0.00  0.00    +0.000 F 
ATOM     20  F   UNL     1       8.013   7.521  16.691  0.00  0.00    +0.000 F 
ATOM     21  F   UNL     1       6.227   8.056  17.809  0.00  0.00    +0.000 F 
ENDBRANCH  15  18
ENDBRANCH   5   7
BRANCH   1  22
ATOM     22  N   UNL     1       1.548   8.246  21.248  0.00  0.00    +0.000 N 
ATOM     23  H   UNL     1       2.065   7.973  22.081  0.00  0.00    +0.000 HD
BRANCH  22  24
ATOM     24  C   UNL     1       0.098   8.321  21.481  0.00  0.00    +0.000 C 
BRANCH  24  25
ATOM     25  C   UNL     1      -0.359   9.749  21.831  0.00  0.00    +0.000 C 
BRANCH  25  31
ATOM     26  C   UNL     1      -1.152  10.388  18.886  0.00  0.00    +0.000 C 
ATOM     27  N   UNL     1      -0.100  11.012  19.645  0.00  0.00    +0.000 N 
ATOM     28  C   UNL     1       0.737  11.988  19.201  0.00  0.00    +0.000 A 
ATOM     29  N   UNL     1       1.572  12.319  20.158  0.00  0.00    +0.000 NA
ATOM     30  N   UNL     1       1.275  11.550  21.253  0.00  0.00    +0.000 NA
ATOM     31  C   UNL     1       0.270  10.756  20.940  0.00  0.00    +0.000 A 
ENDBRANCH  25  31
ENDBRANCH  24  25
ENDBRANCH  22  24
ENDBRANCH   1  22
TORSDOF 6
ENDMDL
MODEL 3
REMARK VINA RESULT:      -8.5      1.023      1.599
REMARK  Name = 
REMARK  7 active torsions:
REMARK  status: ('A' for Active; 'I' for Inactive)
REMARK    1  A    between atoms: C_1  and  N_2
REMARK    2  A    between atoms: C_6  and  C_7
REMARK    3  A    between atoms: C_7  and  C_8
REMARK    4  A    between atoms: C_8  and  N_9
REMARK    5  A    between atoms: N_9  and  C_10
REMARK    6  A    between atoms: C_14  and  N_15
REMARK    7  A    between atoms: C_23  and  C_24
REMARK                            x       y       z     vdW  Elec       q    Type
REMARK                         _______ _______ _______ _____ _____    ______ ____
ROOT
ATOM      1  C   UNL     1       2.114   7.384  20.033  0.00  0.00    +0.000 A 
ATOM      2  C   UNL     1       2.445   8.106  18.881  0.00  0.00    +0.000 A 
ATOM      3  C   UNL     1       2.805   7.459  17.705  0.00  0.00    +0.000 A 
ATOM      4  C   UNL     1       3.025   6.093  17.719  0.00  0.00    +0.000 A 
ATOM      5  C   UNL     1       3.047   5.423  18.951  0.00  0.00    +0.000 A 
ATOM      6  C   UNL     1       2.447   6.029  20.065  0.00  0.00    +0.000 A 
ENDROOT
BRANCH   5   7
ATOM      7  N   UNL     1       4.066   4.411  19.188  0.00  0.00    +0.000 N 
ATOM      8  C   UNL     1       5.408   5.040  19.268  0.00  0.00    +0.000 C 
ATOM      9  C   UNL     1       5.883   4.950  17.849  0.00  0.00    +0.000 A 
ATOM     10  C   UNL     1       5.236   3.857  17.261  0.00  0.00    +0.000 A 
ATOM     11  C   UNL     1       5.334   3.556  15.917  0.00  0.00    +0.000 A 
ATOM     12  C   UNL     1       6.114   4.408  15.148  0.00  0.00    +0.000 A 
ATOM     13  F   UNL     1       6.191   4.212  13.826  0.00  0.00    +0.000 F 
ATOM     14  C   UNL     1       6.761   5.522  15.706  0.00  0.00    +0.000 A 
ATOM     15  C   UNL     1       6.652   5.822  17.080  0.00  0.00    +0.000 A 
ATOM     16  C   UNL     1       4.171   3.405  18.188  0.00  0.00    +0.000 C 
ATOM     17  O   UNL     1       3.422   2.474  17.958  0.00  0.00    +0.000 OA
BRANCH  15  18
ATOM     18  C   UNL     1       7.268   7.092  17.606  0.00  0.00    +0.000 C 
ATOM     19  F   UNL     1       7.970   6.936  18.760  0.00  0.00    +0.000 F 
ATOM     20  F   UNL     1       8.139   7.641  16.718  0.00  0.00    +0.000 F 
ATOM     21  F   UNL     1       6.336   8.052  17.859  0.00  0.00    +0.000 F 
ENDBRANCH  15  18
ENDBRANCH   5   7
BRANCH   1  22
ATOM     22  N   UNL     1       1.630   7.999  21.194  0.00  0.00    +0.000 N 
ATOM     23  H   UNL     1       1.797   7.444  22.031  0.00  0.00    +0.000 HD
BRANCH  22  24
ATOM     24  C   UNL     1       0.280   8.581  21.162  0.00  0.00    +0.000 C 
BRANCH  24  25
ATOM     25  C   UNL     1       0.313  10.118  21.080  0.00  0.00    +0.000 C 
BRANCH  25  31
ATOM     26  C   UNL     1      -1.867  12.339  21.240  0.00  0.00    +0.000 C 
ATOM     27  N   UNL     1      -1.481  11.600  20.067  0.00  0.00    +0.000 N 
ATOM     28  C   UNL     1      -2.010  11.741  18.822  0.00  0.00    +0.000 A 
ATOM     29  N   UNL     1      -1.422  10.907  17.997  0.00  0.00    +0.000 NA
ATOM     30  N   UNL     1      -0.485  10.208  18.712  0.00  0.00    +0.000 NA
ATOM     31  C   UNL     1      -0.526  10.622  19.964  0.00  0.00    +0.000 A 
ENDBRANCH  25  31
ENDBRANCH  24  25
ENDBRANCH  22  24
ENDBRANCH   1  22
TORSDOF 6
ENDMDL
MODEL 4
REMARK VINA RESULT:      -8.5      0.714      1.397
REMARK  Name = 
REMARK  7 active torsions:
REMARK  status: ('A' for Active; 'I' for Inactive)
REMARK    1  A    between atoms: C_1  and  N_2
REMARK    2  A    between atoms: C_6  and  C_7
REMARK    3  A    between atoms: C_7  and  C_8
REMARK    4  A    between atoms: C_8  and  N_9
REMARK    5  A    between atoms: N_9  and  C_10
REMARK    6  A    between atoms: C_14  and  N_15
REMARK    7  A    between atoms: C_23  and  C_24
REMARK                            x       y       z     vdW  Elec       q    Type
REMARK                         _______ _______ _______ _____ _____    ______ ____
ROOT
ATOM      1  C   UNL     1       1.898   7.192  20.068  0.00  0.00    +0.000 A 
ATOM      2  C   UNL     1       2.355   8.084  19.091  0.00  0.00    +0.000 A 
ATOM      3  C   UNL     1       2.939   7.625  17.916  0.00  0.00    +0.000 A 
ATOM      4  C   UNL     1       3.248   6.283  17.787  0.00  0.00    +0.000 A 
ATOM      5  C   UNL     1       3.121   5.449  18.908  0.00  0.00    +0.000 A 
ATOM      6  C   UNL     1       2.314   5.864  19.978  0.00  0.00    +0.000 A 
ENDROOT
BRANCH   5   7
ATOM      7  N   UNL     1       4.158   4.462  19.176  0.00  0.00    +0.000 N 
ATOM      8  C   UNL     1       5.485   5.120  19.264  0.00  0.00    +0.000 C 
ATOM      9  C   UNL     1       5.983   5.018  17.854  0.00  0.00    +0.000 A 
ATOM     10  C   UNL     1       5.367   3.902  17.274  0.00  0.00    +0.000 A 
ATOM     11  C   UNL     1       5.491   3.582  15.937  0.00  0.00    +0.000 A 
ATOM     12  C   UNL     1       6.264   4.437  15.166  0.00  0.00    +0.000 A 
ATOM     13  F   UNL     1       6.364   4.222  13.848  0.00  0.00    +0.000 F 
ATOM     14  C   UNL     1       6.879   5.573  15.715  0.00  0.00    +0.000 A 
ATOM     15  C   UNL     1       6.745   5.893  17.082  0.00  0.00    +0.000 A 
ATOM     16  C   UNL     1       4.298   3.443  18.194  0.00  0.00    +0.000 C 
ATOM     17  O   UNL     1       3.572   2.493  17.968  0.00  0.00    +0.000 OA
BRANCH  15  18
ATOM     18  C   UNL     1       7.326   7.184  17.596  0.00  0.00    +0.000 C 
ATOM     19  F   UNL     1       6.400   8.139  17.879  0.00  0.00    +0.000 F 
ATOM     20  F   UNL     1       8.030   7.003  18.746  0.00  0.00    +0.000 F 
ATOM     21  F   UNL     1       8.192   7.749  16.711  0.00  0.00    +0.000 F 
ENDBRANCH  15  18
ENDBRANCH   5   7
BRANCH   1  22
ATOM     22  N   UNL     1       1.195   7.615  21.203  0.00  0.00    +0.000 N 
ATOM     23  H   UNL     1       0.188   7.504  21.105  0.00  0.00    +0.000 HD
BRANCH  22  24
ATOM     24  C   UNL     1       1.566   8.902  21.811  0.00  0.00    +0.000 C 
BRANCH  24  25
ATOM     25  C   UNL     1       0.350   9.629  22.415  0.00  0.00    +0.000 C 
BRANCH  25  31
ATOM     26  C   UNL     1      -1.684  11.924  22.969  0.00  0.00    +0.000 C 
ATOM     27  N   UNL     1      -1.234  11.470  21.679  0.00  0.00    +0.000 N 
ATOM     28  C   UNL     1      -1.627  11.965  20.475  0.00  0.00    +0.000 A 
ATOM     29  N   UNL     1      -1.017  11.314  19.512  0.00  0.00    +0.000 NA
ATOM     30  N   UNL     1      -0.203  10.378  20.095  0.00  0.00    +0.000 NA
ATOM     31  C   UNL     1      -0.340  10.469  21.404  0.00  0.00    +0.000 A 
ENDBRANCH  25  31
ENDBRANCH  24  25
ENDBRANCH  22  24
ENDBRANCH   1  22
TORSDOF 6
ENDMDL
MODEL 5
REMARK VINA RESULT:      -8.5      0.819      1.304
REMARK  Name = 
REMARK  7 active torsions:
REMARK  status: ('A' for Active; 'I' for Inactive)
REMARK    1  A    between atoms: C_1  and  N_2
REMARK    2  A    between atoms: C_6  and  C_7
REMARK    3  A    between atoms: C_7  and  C_8
REMARK    4  A    between atoms: C_8  and  N_9
REMARK    5  A    between atoms: N_9  and  C_10
REMARK    6  A    between atoms: C_14  and  N_15
REMARK    7  A    between atoms: C_23  and  C_24
REMARK                            x       y       z     vdW  Elec       q    Type
REMARK                         _______ _______ _______ _____ _____    ______ ____
ROOT
ATOM      1  C   UNL     1       2.064   7.466  19.815  0.00  0.00    +0.000 A 
ATOM      2  C   UNL     1       2.448   8.133  18.646  0.00  0.00    +0.000 A 
ATOM      3  C   UNL     1       2.871   7.431  17.523  0.00  0.00    +0.000 A 
ATOM      4  C   UNL     1       3.100   6.070  17.617  0.00  0.00    +0.000 A 
ATOM      5  C   UNL     1       3.063   5.463  18.881  0.00  0.00    +0.000 A 
ATOM      6  C   UNL     1       2.404   6.118  19.932  0.00  0.00    +0.000 A 
ENDROOT
BRANCH   5   7
ATOM      7  N   UNL     1       4.076   4.473  19.220  0.00  0.00    +0.000 N 
ATOM      8  C   UNL     1       5.411   5.115  19.317  0.00  0.00    +0.000 C 
ATOM      9  C   UNL     1       5.946   4.945  17.927  0.00  0.00    +0.000 A 
ATOM     10  C   UNL     1       5.328   3.814  17.379  0.00  0.00    +0.000 A 
ATOM     11  C   UNL     1       5.484   3.435  16.060  0.00  0.00    +0.000 A 
ATOM     12  C   UNL     1       6.291   4.245  15.275  0.00  0.00    +0.000 A 
ATOM     13  F   UNL     1       6.424   3.971  13.971  0.00  0.00    +0.000 F 
ATOM     14  C   UNL     1       6.909   5.394  15.793  0.00  0.00    +0.000 A 
ATOM     15  C   UNL     1       6.742   5.774  17.141  0.00  0.00    +0.000 A 
ATOM     16  C   UNL     1       4.227   3.411  18.287  0.00  0.00    +0.000 C 
ATOM     17  O   UNL     1       3.493   2.463  18.081  0.00  0.00    +0.000 OA
BRANCH  15  18
ATOM     18  C   UNL     1       7.330   7.078  17.615  0.00  0.00    +0.000 C 
ATOM     19  F   UNL     1       8.185   7.659  16.732  0.00  0.00    +0.000 F 
ATOM     20  F   UNL     1       6.369   8.009  17.861  0.00  0.00    +0.000 F 
ATOM     21  F   UNL     1       8.024   6.939  18.777  0.00  0.00    +0.000 F 
ENDBRANCH  15  18
ENDBRANCH   5   7
BRANCH   1  22
ATOM     22  N   UNL     1       1.517   8.134  20.917  0.00  0.00    +0.000 N 
ATOM     23  H   UNL     1       0.983   7.516  21.525  0.00  0.00    +0.000 HD
BRANCH  22  24
ATOM     24  C   UNL     1       0.843   9.421  20.687  0.00  0.00    +0.000 C 
BRANCH  24  25
ATOM     25  C   UNL     1       0.022   9.872  21.909  0.00  0.00    +0.000 C 
BRANCH  25  31
ATOM     26  C   UNL     1      -2.193  11.567  23.297  0.00  0.00    +0.000 C 
ATOM     27  N   UNL     1      -1.022  12.070  22.630  0.00  0.00    +0.000 N 
ATOM     28  C   UNL     1      -0.683  13.379  22.485  0.00  0.00    +0.000 A 
ATOM     29  N   UNL     1       0.447  13.469  21.823  0.00  0.00    +0.000 NA
ATOM     30  N   UNL     1       0.861  12.196  21.533  0.00  0.00    +0.000 NA
ATOM     31  C   UNL     1      -0.030  11.352  22.014  0.00  0.00    +0.000 A 
ENDBRANCH  25  31
ENDBRANCH  24  25
ENDBRANCH  22  24
ENDBRANCH   1  22
TORSDOF 6
ENDMDL
MODEL 6
REMARK VINA RESULT:      -8.4      4.823      6.547
REMARK  Name = 
REMARK  7 active torsions:
REMARK  status: ('A' for Active; 'I' for Inactive)
REMARK    1  A    between atoms: C_1  and  N_2
REMARK    2  A    between atoms: C_6  and  C_7
REMARK    3  A    between atoms: C_7  and  C_8
REMARK    4  A    between atoms: C_8  and  N_9
REMARK    5  A    between atoms: N_9  and  C_10
REMARK    6  A    between atoms: C_14  and  N_15
REMARK    7  A    between atoms: C_23  and  C_24
REMARK                            x       y       z     vdW  Elec       q    Type
REMARK                         _______ _______ _______ _____ _____    ______ ____
ROOT
ATOM      1  C   UNL     1       8.092   7.172  18.416  0.00  0.00    +0.000 A 
ATOM      2  C   UNL     1       8.076   6.034  19.230  0.00  0.00    +0.000 A 
ATOM      3  C   UNL     1       7.799   4.777  18.704  0.00  0.00    +0.000 A 
ATOM      4  C   UNL     1       7.347   4.669  17.402  0.00  0.00    +0.000 A 
ATOM      5  C   UNL     1       7.017   5.838  16.700  0.00  0.00    +0.000 A 
ATOM      6  C   UNL     1       7.529   7.066  17.144  0.00  0.00    +0.000 A 
ENDROOT
BRANCH   5   7
ATOM      7  N   UNL     1       5.813   5.854  15.880  0.00  0.00    +0.000 N 
ATOM      8  C   UNL     1       4.664   6.373  16.663  0.00  0.00    +0.000 C 
ATOM      9  C   UNL     1       4.068   5.115  17.220  0.00  0.00    +0.000 A 
ATOM     10  C   UNL     1       4.396   4.074  16.343  0.00  0.00    +0.000 A 
ATOM     11  C   UNL     1       4.123   2.748  16.611  0.00  0.00    +0.000 A 
ATOM     12  C   UNL     1       3.502   2.477  17.821  0.00  0.00    +0.000 A 
ATOM     13  F   UNL     1       3.276   1.204  18.171  0.00  0.00    +0.000 F 
ATOM     14  C   UNL     1       3.177   3.497  18.729  0.00  0.00    +0.000 A 
ATOM     15  C   UNL     1       3.462   4.849  18.446  0.00  0.00    +0.000 A 
ATOM     16  C   UNL     1       5.399   4.590  15.379  0.00  0.00    +0.000 C 
ATOM     17  O   UNL     1       5.891   3.920  14.491  0.00  0.00    +0.000 OA
BRANCH  15  18
ATOM     18  C   UNL     1       3.201   5.892  19.502  0.00  0.00    +0.000 C 
ATOM     19  F   UNL     1       2.413   6.920  19.089  0.00  0.00    +0.000 F 
ATOM     20  F   UNL     1       2.579   5.367  20.592  0.00  0.00    +0.000 F 
ATOM     21  F   UNL     1       4.350   6.459  19.963  0.00  0.00    +0.000 F 
ENDBRANCH  15  18
ENDBRANCH   5   7
BRANCH   1  22
ATOM     22  N   UNL     1       8.487   8.430  18.889  0.00  0.00    +0.000 N 
ATOM     23  H   UNL     1       8.170   8.608  19.840  0.00  0.00    +0.000 HD
BRANCH  22  24
ATOM     24  C   UNL     1       8.311   9.592  18.006  0.00  0.00    +0.000 C 
BRANCH  24  25
ATOM     25  C   UNL     1       9.444  10.622  18.169  0.00  0.00    +0.000 C 
BRANCH  25  31
ATOM     26  C   UNL     1       8.984  13.687  18.490  0.00  0.00    +0.000 C 
ATOM     27  N   UNL     1       9.119  12.725  19.552  0.00  0.00    +0.000 N 
ATOM     28  C   UNL     1       9.074  12.992  20.884  0.00  0.00    +0.000 A 
ATOM     29  N   UNL     1       9.233  11.879  21.562  0.00  0.00    +0.000 NA
ATOM     30  N   UNL     1       9.379  10.860  20.657  0.00  0.00    +0.000 NA
ATOM     31  C   UNL     1       9.317  11.373  19.443  0.00  0.00    +0.000 A 
ENDBRANCH  25  31
ENDBRANCH  24  25
ENDBRANCH  22  24
ENDBRANCH   1  22
TORSDOF 6
ENDMDL
MODEL 7
REMARK VINA RESULT:      -8.4      1.164      1.603
REMARK  Name = 
REMARK  7 active torsions:
REMARK  status: ('A' for Active; 'I' for Inactive)
REMARK    1  A    between atoms: C_1  and  N_2
REMARK    2  A    between atoms: C_6  and  C_7
REMARK    3  A    between atoms: C_7  and  C_8
REMARK    4  A    between atoms: C_8  and  N_9
REMARK    5  A    between atoms: N_9  and  C_10
REMARK    6  A    between atoms: C_14  and  N_15
REMARK    7  A    between atoms: C_23  and  C_24
REMARK                            x       y       z     vdW  Elec       q    Type
REMARK                         _______ _______ _______ _____ _____    ______ ____
ROOT
ATOM      1  C   UNL     1       1.821   7.347  19.960  0.00  0.00    +0.000 A 
ATOM      2  C   UNL     1       2.340   8.224  19.001  0.00  0.00    +0.000 A 
ATOM      3  C   UNL     1       2.995   7.749  17.871  0.00  0.00    +0.000 A 
ATOM      4  C   UNL     1       3.309   6.405  17.780  0.00  0.00    +0.000 A 
ATOM      5  C   UNL     1       3.111   5.586  18.902  0.00  0.00    +0.000 A 
ATOM      6  C   UNL     1       2.240   6.016  19.914  0.00  0.00    +0.000 A 
ENDROOT
BRANCH   5   7
ATOM      7  N   UNL     1       4.128   4.602  19.247  0.00  0.00    +0.000 N 
ATOM      8  C   UNL     1       5.463   5.246  19.322  0.00  0.00    +0.000 C 
ATOM      9  C   UNL     1       5.985   5.054  17.930  0.00  0.00    +0.000 A 
ATOM     10  C   UNL     1       5.363   3.915  17.405  0.00  0.00    +0.000 A 
ATOM     11  C   UNL     1       5.507   3.515  16.091  0.00  0.00    +0.000 A 
ATOM     12  C   UNL     1       6.307   4.313  15.287  0.00  0.00    +0.000 A 
ATOM     13  F   UNL     1       6.428   4.019  13.986  0.00  0.00    +0.000 F 
ATOM     14  C   UNL     1       6.929   5.471  15.780  0.00  0.00    +0.000 A 
ATOM     15  C   UNL     1       6.774   5.872  17.124  0.00  0.00    +0.000 A 
ATOM     16  C   UNL     1       4.271   3.526  18.329  0.00  0.00    +0.000 C 
ATOM     17  O   UNL     1       3.535   2.574  18.145  0.00  0.00    +0.000 OA
BRANCH  15  18
ATOM     18  C   UNL     1       7.365   7.183  17.572  0.00  0.00    +0.000 C 
ATOM     19  F   UNL     1       6.445   8.151  17.830  0.00  0.00    +0.000 F 
ATOM     20  F   UNL     1       8.088   7.049  18.717  0.00  0.00    +0.000 F 
ATOM     21  F   UNL     1       8.217   7.708  16.650  0.00  0.00    +0.000 F 
ENDBRANCH  15  18
ENDBRANCH   5   7
BRANCH   1  22
ATOM     22  N   UNL     1       1.050   7.786  21.044  0.00  0.00    +0.000 N 
ATOM     23  H   UNL     1       0.057   7.828  20.826  0.00  0.00    +0.000 HD
BRANCH  22  24
ATOM     24  C   UNL     1       1.515   8.959  21.798  0.00  0.00    +0.000 C 
BRANCH  24  25
ATOM     25  C   UNL     1       0.434  10.051  21.896  0.00  0.00    +0.000 C 
BRANCH  25  31
ATOM     26  C   UNL     1       1.523  12.659  20.585  0.00  0.00    +0.000 C 
ATOM     27  N   UNL     1       0.574  11.743  20.010  0.00  0.00    +0.000 N 
ATOM     28  C   UNL     1      -0.018  11.863  18.791  0.00  0.00    +0.000 A 
ATOM     29  N   UNL     1      -0.827  10.849  18.594  0.00  0.00    +0.000 NA
ATOM     30  N   UNL     1      -0.761  10.044  19.701  0.00  0.00    +0.000 NA
ATOM     31  C   UNL     1       0.079  10.588  20.558  0.00  0.00    +0.000 A 
ENDBRANCH  25  31
ENDBRANCH  24  25
ENDBRANCH  22  24
ENDBRANCH   1  22
TORSDOF 6
ENDMDL
MODEL 8
REMARK VINA RESULT:      -8.4      4.596      6.636
REMARK  Name = 
REMARK  7 active torsions:
REMARK  status: ('A' for Active; 'I' for Inactive)
REMARK    1  A    between atoms: C_1  and  N_2
REMARK    2  A    between atoms: C_6  and  C_7
REMARK    3  A    between atoms: C_7  and  C_8
REMARK    4  A    between atoms: C_8  and  N_9
REMARK    5  A    between atoms: N_9  and  C_10
REMARK    6  A    between atoms: C_14  and  N_15
REMARK    7  A    between atoms: C_23  and  C_24
REMARK                            x       y       z     vdW  Elec       q    Type
REMARK                         _______ _______ _______ _____ _____    ______ ____
ROOT
ATOM      1  C   UNL     1       7.796   7.769  17.787  0.00  0.00    +0.000 A 
ATOM      2  C   UNL     1       7.813   6.949  18.921  0.00  0.00    +0.000 A 
ATOM      3  C   UNL     1       7.751   5.565  18.809  0.00  0.00    +0.000 A 
ATOM      4  C   UNL     1       7.476   4.993  17.580  0.00  0.00    +0.000 A 
ATOM      5  C   UNL     1       7.100   5.824  16.515  0.00  0.00    +0.000 A 
ATOM      6  C   UNL     1       7.408   7.191  16.577  0.00  0.00    +0.000 A 
ENDROOT
BRANCH   5   7
ATOM      7  N   UNL     1       6.012   5.407  15.642  0.00  0.00    +0.000 N 
ATOM      8  C   UNL     1       4.805   6.233  15.892  0.00  0.00    +0.000 C 
ATOM      9  C   UNL     1       4.073   5.421  16.918  0.00  0.00    +0.000 A 
ATOM     10  C   UNL     1       4.449   4.085  16.737  0.00  0.00    +0.000 A 
ATOM     11  C   UNL     1       4.070   3.072  17.595  0.00  0.00    +0.000 A 
ATOM     12  C   UNL     1       3.287   3.441  18.679  0.00  0.00    +0.000 A 
ATOM     13  F   UNL     1       2.947   2.517  19.586  0.00  0.00    +0.000 F 
ATOM     14  C   UNL     1       2.910   4.775  18.896  0.00  0.00    +0.000 A 
ATOM     15  C   UNL     1       3.304   5.803  18.015  0.00  0.00    +0.000 A 
ATOM     16  C   UNL     1       5.593   4.057  15.793  0.00  0.00    +0.000 C 
ATOM     17  O   UNL     1       6.154   3.036  15.439  0.00  0.00    +0.000 OA
BRANCH  15  18
ATOM     18  C   UNL     1       2.973   7.232  18.356  0.00  0.00    +0.000 C 
ATOM     19  F   UNL     1       1.867   7.715  17.728  0.00  0.00    +0.000 F 
ATOM     20  F   UNL     1       2.739   7.396  19.687  0.00  0.00    +0.000 F 
ATOM     21  F   UNL     1       3.986   8.087  18.045  0.00  0.00    +0.000 F 
ENDBRANCH  15  18
ENDBRANCH   5   7
BRANCH   1  22
ATOM     22  N   UNL     1       7.981   9.155  17.857  0.00  0.00    +0.000 N 
ATOM     23  H   UNL     1       8.090   9.583  16.940  0.00  0.00    +0.000 HD
BRANCH  22  24
ATOM     24  C   UNL     1       8.936   9.680  18.844  0.00  0.00    +0.000 C 
BRANCH  24  25
ATOM     25  C   UNL     1       9.776  10.839  18.278  0.00  0.00    +0.000 C 
BRANCH  25  31
ATOM     26  C   UNL     1      10.169  13.587  19.694  0.00  0.00    +0.000 C 
ATOM     27  N   UNL     1       9.154  13.258  18.729  0.00  0.00    +0.000 N 
ATOM     28  C   UNL     1       8.183  14.094  18.273  0.00  0.00    +0.000 A 
ATOM     29  N   UNL     1       7.431  13.461  17.402  0.00  0.00    +0.000 NA
ATOM     30  N   UNL     1       7.922  12.187  17.281  0.00  0.00    +0.000 NA
ATOM     31  C   UNL     1       8.957  12.063  18.087  0.00  0.00    +0.000 A 
ENDBRANCH  25  31
ENDBRANCH  24  25
ENDBRANCH  22  24
ENDBRANCH   1  22
TORSDOF 6
ENDMDL
MODEL 9
REMARK VINA RESULT:      -8.4      1.856      2.597
REMARK  Name = 
REMARK  7 active torsions:
REMARK  status: ('A' for Active; 'I' for Inactive)
REMARK    1  A    between atoms: C_1  and  N_2
REMARK    2  A    between atoms: C_6  and  C_7
REMARK    3  A    between atoms: C_7  and  C_8
REMARK    4  A    between atoms: C_8  and  N_9
REMARK    5  A    between atoms: N_9  and  C_10
REMARK    6  A    between atoms: C_14  and  N_15
REMARK    7  A    between atoms: C_23  and  C_24
REMARK                            x       y       z     vdW  Elec       q    Type
REMARK                         _______ _______ _______ _____ _____    ______ ____
ROOT
ATOM      1  C   UNL     1       2.293   6.024  20.061  0.00  0.00    +0.000 A 
ATOM      2  C   UNL     1       1.138   5.364  20.497  0.00  0.00    +0.000 A 
ATOM      3  C   UNL     1       1.169   4.022  20.857  0.00  0.00    +0.000 A 
ATOM      4  C   UNL     1       2.306   3.275  20.605  0.00  0.00    +0.000 A 
ATOM      5  C   UNL     1       3.334   3.844  19.839  0.00  0.00    +0.000 A 
ATOM      6  C   UNL     1       3.392   5.239  19.708  0.00  0.00    +0.000 A 
ENDROOT
BRANCH   5   7
ATOM      7  N   UNL     1       3.993   3.033  18.825  0.00  0.00    +0.000 N 
ATOM      8  C   UNL     1       5.459   3.263  18.855  0.00  0.00    +0.000 C 
ATOM      9  C   UNL     1       5.626   4.362  17.848  0.00  0.00    +0.000 A 
ATOM     10  C   UNL     1       4.567   4.258  16.939  0.00  0.00    +0.000 A 
ATOM     11  C   UNL     1       4.328   5.193  15.950  0.00  0.00    +0.000 A 
ATOM     12  C   UNL     1       5.197   6.272  15.897  0.00  0.00    +0.000 A 
ATOM     13  F   UNL     1       4.976   7.249  15.008  0.00  0.00    +0.000 F 
ATOM     14  C   UNL     1       6.257   6.412  16.807  0.00  0.00    +0.000 A 
ATOM     15  C   UNL     1       6.492   5.453  17.814  0.00  0.00    +0.000 A 
ATOM     16  C   UNL     1       3.590   3.286  17.485  0.00  0.00    +0.000 C 
ATOM     17  O   UNL     1       2.551   2.983  16.929  0.00  0.00    +0.000 OA
BRANCH  15  18
ATOM     18  C   UNL     1       7.568   5.709  18.836  0.00  0.00    +0.000 C 
ATOM     19  F   UNL     1       8.569   4.789  18.835  0.00  0.00    +0.000 F 
ATOM     20  F   UNL     1       8.175   6.912  18.645  0.00  0.00    +0.000 F 
ATOM     21  F   UNL     1       7.080   5.733  20.106  0.00  0.00    +0.000 F 
ENDBRANCH  15  18
ENDBRANCH   5   7
BRANCH   1  22
ATOM     22  N   UNL     1       2.323   7.401  19.809  0.00  0.00    +0.000 N 
ATOM     23  H   UNL     1       1.531   7.891  20.219  0.00  0.00    +0.000 HD
BRANCH  22  24
ATOM     24  C   UNL     1       2.623   7.852  18.442  0.00  0.00    +0.000 C 
BRANCH  24  25
ATOM     25  C   UNL     1       1.565   8.835  17.911  0.00  0.00    +0.000 C 
BRANCH  25  31
ATOM     26  C   UNL     1       2.365  11.842  18.070  0.00  0.00    +0.000 C 
ATOM     27  N   UNL     1       1.528  11.129  18.998  0.00  0.00    +0.000 N 
ATOM     28  C   UNL     1       0.946  11.647  20.112  0.00  0.00    +0.000 A 
ATOM     29  N   UNL     1       0.254  10.712  20.721  0.00  0.00    +0.000 NA
ATOM     30  N   UNL     1       0.381   9.560  19.990  0.00  0.00    +0.000 NA
ATOM     31  C   UNL     1       1.156   9.810  18.953  0.00  0.00    +0.000 A 
ENDBRANCH  25  31
ENDBRANCH  24  25
ENDBRANCH  22  24
ENDBRANCH   1  22
TORSDOF 6
ENDMDL
