MODEL 1
REMARK VINA RESULT:      -8.4      0.000      0.000
REMARK  Name = 
REMARK  9 active torsions:
REMARK  status: ('A' for Active; 'I' for Inactive)
REMARK    1  A    between atoms: C_1  and  N_2
REMARK    2  A    between atoms: N_2  and  C_3
REMARK    3  A    between atoms: C_5  and  C_6
REMARK    4  A    between atoms: C_6  and  C_7
REMARK    5  A    between atoms: N_13  and  C_14
REMARK    6  A    between atoms: C_18  and  C_19
REMARK    7  A    between atoms: C_19  and  C_20
REMARK    8  A    between atoms: C_20  and  C_21
REMARK    9  A    between atoms: N_25  and  C_26
REMARK                            x       y       z     vdW  Elec       q    Type
REMARK                         _______ _______ _______ _____ _____    ______ ____
ROOT
ATOM      1  C   UNL     1       1.757   7.986  19.787  0.00  0.00    +0.000 A 
ATOM      2  C   UNL     1       1.415   7.645  21.093  0.00  0.00    +0.000 A 
ATOM      3  C   UNL     1       0.500   8.420  21.802  0.00  0.00    +0.000 A 
ATOM      4  C   UNL     1      -0.088   9.535  21.204  0.00  0.00    +0.000 A 
ATOM      5  C   UNL     1       0.235   9.929  19.893  0.00  0.00    +0.000 A 
ATOM      6  C   UNL     1       1.152   9.114  19.210  0.00  0.00    +0.000 A 
ENDROOT
BRANCH   1  14
ATOM      7  C   UNL     1       4.872   4.365  18.335  0.00  0.00    +0.000 A 
ATOM      8  C   UNL     1       5.689   4.266  17.187  0.00  0.00    +0.000 A 
ATOM      9  C   UNL     1       5.694   5.241  16.154  0.00  0.00    +0.000 A 
ATOM     10  C   UNL     1       4.870   6.359  16.268  0.00  0.00    +0.000 A 
ATOM     11  C   UNL     1       4.112   6.473  17.414  0.00  0.00    +0.000 A 
ATOM     12  C   UNL     1       4.123   5.523  18.438  0.00  0.00    +0.000 A 
ATOM     13  C   UNL     1       3.277   6.023  19.552  0.00  0.00    +0.000 C 
ATOM     14  N   UNL     1       2.732   7.275  19.055  0.00  0.00    +0.000 N 
ATOM     15  C   UNL     1       3.204   7.565  17.782  0.00  0.00    +0.000 C 
ATOM     16  O   UNL     1       2.979   8.508  17.048  0.00  0.00    +0.000 OA
BRANCH   7  18
ATOM     17  C   UNL     1       4.015   2.278  19.351  0.00  0.00    +0.000 C 
ATOM     18  N   UNL     1       4.972   3.377  19.317  0.00  0.00    +0.000 N 
ATOM     19  H   UNL     1       5.928   3.035  19.407  0.00  0.00    +0.000 HD
ENDBRANCH   7  18
BRANCH   9  20
ATOM     20  C   UNL     1       6.558   5.066  14.928  0.00  0.00    +0.000 C 
BRANCH  20  21
ATOM     21  C   UNL     1       6.078   3.968  13.988  0.00  0.00    +0.000 C 
ATOM     22  F   UNL     1       6.811   3.981  12.843  0.00  0.00    +0.000 F 
ENDBRANCH  20  21
ENDBRANCH   9  20
ENDBRANCH   1  14
BRANCH   5  23
ATOM     23  C   UNL     1      -0.340  11.264  19.232  0.00  0.00    +0.000 C 
ATOM     24  C   UNL     1      -1.533  11.920  19.982  0.00  0.00    +0.000 C 
ATOM     25  O   UNL     1      -2.190  12.222  18.725  0.00  0.00    +0.000 OA
ATOM     26  C   UNL     1      -1.386  11.192  18.079  0.00  0.00    +0.000 C 
BRANCH  23  27
ATOM     27  C   UNL     1       0.808  12.250  18.924  0.00  0.00    +0.000 C 
BRANCH  27  28
ATOM     28  C   UNL     1       1.054  13.231  20.030  0.00  0.00    +0.000 A 
ATOM     29  N   UNL     1       1.666  12.978  21.168  0.00  0.00    +0.000 NA
ATOM     30  N   UNL     1       1.734  14.144  21.896  0.00  0.00    +0.000 NA
ATOM     31  C   UNL     1       1.160  15.088  21.186  0.00  0.00    +0.000 A 
ATOM     32  N   UNL     1       0.694  14.556  20.018  0.00  0.00    +0.000 N 
ATOM     33  C   UNL     1      -0.018  15.288  19.008  0.00  0.00    +0.000 C 
ENDBRANCH  27  28
ENDBRANCH  23  27
ENDBRANCH   5  23
TORSDOF 7
ENDMDL
MODEL 2
REMARK VINA RESULT:      -8.4      3.817      8.907
REMARK  Name = 
REMARK  9 active torsions:
REMARK  status: ('A' for Active; 'I' for Inactive)
REMARK    1  A    between atoms: C_1  and  N_2
REMARK    2  A    between atoms: N_2  and  C_3
REMARK    3  A    between atoms: C_5  and  C_6
REMARK    4  A    between atoms: C_6  and  C_7
REMARK    5  A    between atoms: N_13  and  C_14
REMARK    6  A    between atoms: C_18  and  C_19
REMARK    7  A    between atoms: C_19  and  C_20
REMARK    8  A    between atoms: C_20  and  C_21
REMARK    9  A    between atoms: N_25  and  C_26
REMARK                            x       y       z     vdW  Elec       q    Type
REMARK                         _______ _______ _______ _____ _____    ______ ____
ROOT
ATOM      1  C   UNL     1       2.819   5.296  18.371  0.00  0.00    +0.000 A 
ATOM      2  C   UNL     1       2.120   4.092  18.422  0.00  0.00    +0.000 A 
ATOM      3  C   UNL     1       2.596   2.976  17.737  0.00  0.00    +0.000 A 
ATOM      4  C   UNL     1       3.782   3.055  17.007  0.00  0.00    +0.000 A 
ATOM      5  C   UNL     1       4.517   4.250  16.913  0.00  0.00    +0.000 A 
ATOM      6  C   UNL     1       4.009   5.347  17.627  0.00  0.00    +0.000 A 
ENDROOT
BRANCH   1  14
ATOM      7  C   UNL     1       1.284  10.000  19.034  0.00  0.00    +0.000 A 
ATOM      8  C   UNL     1       0.727  10.629  20.169  0.00  0.00    +0.000 A 
ATOM      9  C   UNL     1       0.434   9.935  21.373  0.00  0.00    +0.000 A 
ATOM     10  C   UNL     1       0.715   8.574  21.461  0.00  0.00    +0.000 A 
ATOM     11  C   UNL     1       1.306   7.977  20.367  0.00  0.00    +0.000 A 
ATOM     12  C   UNL     1       1.611   8.665  19.191  0.00  0.00    +0.000 A 
ATOM     13  C   UNL     1       2.330   7.739  18.278  0.00  0.00    +0.000 C 
ATOM     14  N   UNL     1       2.339   6.471  18.988  0.00  0.00    +0.000 N 
ATOM     15  C   UNL     1       1.729   6.580  20.230  0.00  0.00    +0.000 C 
ATOM     16  O   UNL     1       1.547   5.749  21.099  0.00  0.00    +0.000 OA
BRANCH   7  18
ATOM     17  C   UNL     1       2.347  12.008  18.056  0.00  0.00    +0.000 C 
ATOM     18  N   UNL     1       1.578  10.778  17.912  0.00  0.00    +0.000 N 
ATOM     19  H   UNL     1       1.936  10.208  17.146  0.00  0.00    +0.000 HD
ENDBRANCH   7  18
BRANCH   9  20
ATOM     20  C   UNL     1      -0.201  10.649  22.544  0.00  0.00    +0.000 C 
BRANCH  20  21
ATOM     21  C   UNL     1      -0.865  11.969  22.173  0.00  0.00    +0.000 C 
ATOM     22  F   UNL     1       0.013  12.993  22.335  0.00  0.00    +0.000 F 
ENDBRANCH  20  21
ENDBRANCH   9  20
ENDBRANCH   1  14
BRANCH   5  23
ATOM     23  C   UNL     1       5.814   4.391  15.991  0.00  0.00    +0.000 C 
ATOM     24  C   UNL     1       5.747   5.503  14.909  0.00  0.00    +0.000 C 
ATOM     25  O   UNL     1       6.397   4.638  13.943  0.00  0.00    +0.000 OA
ATOM     26  C   UNL     1       5.999   3.484  14.738  0.00  0.00    +0.000 C 
BRANCH  23  27
ATOM     27  C   UNL     1       7.088   4.458  16.862  0.00  0.00    +0.000 C 
BRANCH  27  28
ATOM     28  C   UNL     1       7.456   5.855  17.259  0.00  0.00    +0.000 A 
ATOM     29  N   UNL     1       7.600   6.880  16.444  0.00  0.00    +0.000 NA
ATOM     30  N   UNL     1       7.893   7.996  17.194  0.00  0.00    +0.000 NA
ATOM     31  C   UNL     1       7.921   7.630  18.455  0.00  0.00    +0.000 A 
ATOM     32  N   UNL     1       7.679   6.289  18.542  0.00  0.00    +0.000 N 
ATOM     33  C   UNL     1       7.664   5.535  19.765  0.00  0.00    +0.000 C 
ENDBRANCH  27  28
ENDBRANCH  23  27
ENDBRANCH   5  23
TORSDOF 7
ENDMDL
MODEL 3
REMARK VINA RESULT:      -8.3      3.515      9.109
REMARK  Name = 
REMARK  9 active torsions:
REMARK  status: ('A' for Active; 'I' for Inactive)
REMARK    1  A    between atoms: C_1  and  N_2
REMARK    2  A    between atoms: N_2  and  C_3
REMARK    3  A    between atoms: C_5  and  C_6
REMARK    4  A    between atoms: C_6  and  C_7
REMARK    5  A    between atoms: N_13  and  C_14
REMARK    6  A    between atoms: C_18  and  C_19
REMARK    7  A    between atoms: C_19  and  C_20
REMARK    8  A    between atoms: C_20  and  C_21
REMARK    9  A    between atoms: N_25  and  C_26
REMARK                            x       y       z     vdW  Elec       q    Type
REMARK                         _______ _______ _______ _____ _____    ______ ____
ROOT
ATOM      1  C   UNL     1       3.020   6.299  19.449  0.00  0.00    +0.000 A 
ATOM      2  C   UNL     1       2.519   5.019  19.674  0.00  0.00    +0.000 A 
ATOM      3  C   UNL     1       3.350   3.908  19.544  0.00  0.00    +0.000 A 
ATOM      4  C   UNL     1       4.692   4.073  19.200  0.00  0.00    +0.000 A 
ATOM      5  C   UNL     1       5.243   5.342  18.950  0.00  0.00    +0.000 A 
ATOM      6  C   UNL     1       4.374   6.435  19.103  0.00  0.00    +0.000 A 
ENDROOT
BRANCH   1  14
ATOM      7  C   UNL     1       0.168  10.003  21.201  0.00  0.00    +0.000 A 
ATOM      8  C   UNL     1      -0.389  11.119  20.540  0.00  0.00    +0.000 A 
ATOM      9  C   UNL     1      -0.141  11.413  19.173  0.00  0.00    +0.000 A 
ATOM     10  C   UNL     1       0.677  10.563  18.430  0.00  0.00    +0.000 A 
ATOM     11  C   UNL     1       1.176   9.448  19.068  0.00  0.00    +0.000 A 
ATOM     12  C   UNL     1       0.916   9.151  20.408  0.00  0.00    +0.000 A 
ATOM     13  C   UNL     1       1.521   7.831  20.723  0.00  0.00    +0.000 C 
ATOM     14  N   UNL     1       2.201   7.447  19.497  0.00  0.00    +0.000 N 
ATOM     15  C   UNL     1       2.021   8.393  18.498  0.00  0.00    +0.000 C 
ATOM     16  O   UNL     1       2.428   8.424  17.353  0.00  0.00    +0.000 OA
BRANCH   7  18
ATOM     17  C   UNL     1      -1.156  10.624  23.196  0.00  0.00    +0.000 C 
ATOM     18  N   UNL     1      -0.172   9.774  22.536  0.00  0.00    +0.000 N 
ATOM     19  H   UNL     1      -0.362   8.788  22.710  0.00  0.00    +0.000 HD
ENDBRANCH   7  18
BRANCH   9  20
ATOM     20  C   UNL     1      -0.730  12.645  18.525  0.00  0.00    +0.000 C 
BRANCH  20  21
ATOM     21  C   UNL     1       0.172  13.869  18.598  0.00  0.00    +0.000 C 
ATOM     22  F   UNL     1      -0.534  14.987  18.284  0.00  0.00    +0.000 F 
ENDBRANCH  20  21
ENDBRANCH   9  20
ENDBRANCH   1  14
BRANCH   5  23
ATOM     23  C   UNL     1       6.745   5.542  18.446  0.00  0.00    +0.000 C 
ATOM     24  C   UNL     1       7.782   5.875  19.554  0.00  0.00    +0.000 C 
ATOM     25  O   UNL     1       8.436   6.837  18.688  0.00  0.00    +0.000 OA
ATOM     26  C   UNL     1       7.220   6.919  17.891  0.00  0.00    +0.000 C 
BRANCH  23  27
ATOM     27  C   UNL     1       7.170   4.365  17.540  0.00  0.00    +0.000 C 
BRANCH  27  28
ATOM     28  C   UNL     1       6.859   4.596  16.093  0.00  0.00    +0.000 A 
ATOM     29  N   UNL     1       7.639   5.199  15.219  0.00  0.00    +0.000 NA
ATOM     30  N   UNL     1       7.022   5.170  13.990  0.00  0.00    +0.000 NA
ATOM     31  C   UNL     1       5.874   4.549  14.137  0.00  0.00    +0.000 A 
ATOM     32  N   UNL     1       5.717   4.193  15.446  0.00  0.00    +0.000 N 
ATOM     33  C   UNL     1       4.565   3.523  15.983  0.00  0.00    +0.000 C 
ENDBRANCH  27  28
ENDBRANCH  23  27
ENDBRANCH   5  23
TORSDOF 7
ENDMDL
MODEL 4
REMARK VINA RESULT:      -8.2      3.440      8.601
REMARK  Name = 
REMARK  9 active torsions:
REMARK  status: ('A' for Active; 'I' for Inactive)
REMARK    1  A    between atoms: C_1  and  N_2
REMARK    2  A    between atoms: N_2  and  C_3
REMARK    3  A    between atoms: C_5  and  C_6
REMARK    4  A    between atoms: C_6  and  C_7
REMARK    5  A    between atoms: N_13  and  C_14
REMARK    6  A    between atoms: C_18  and  C_19
REMARK    7  A    between atoms: C_19  and  C_20
REMARK    8  A    between atoms: C_20  and  C_21
REMARK    9  A    between atoms: N_25  and  C_26
REMARK                            x       y       z     vdW  Elec       q    Type
REMARK                         _______ _______ _______ _____ _____    ______ ____
ROOT
ATOM      1  C   UNL     1       3.082   5.902  19.120  0.00  0.00    +0.000 A 
ATOM      2  C   UNL     1       2.871   4.792  19.935  0.00  0.00    +0.000 A 
ATOM      3  C   UNL     1       3.566   3.608  19.699  0.00  0.00    +0.000 A 
ATOM      4  C   UNL     1       4.485   3.530  18.652  0.00  0.00    +0.000 A 
ATOM      5  C   UNL     1       4.723   4.617  17.793  0.00  0.00    +0.000 A 
ATOM      6  C   UNL     1       4.012   5.795  18.073  0.00  0.00    +0.000 A 
ENDROOT
BRANCH   1  14
ATOM      7  C   UNL     1       0.544   9.656  21.214  0.00  0.00    +0.000 A 
ATOM      8  C   UNL     1       0.058  10.857  20.653  0.00  0.00    +0.000 A 
ATOM      9  C   UNL     1       0.301  11.236  19.306  0.00  0.00    +0.000 A 
ATOM     10  C   UNL     1       1.039  10.389  18.482  0.00  0.00    +0.000 A 
ATOM     11  C   UNL     1       1.467   9.195  19.022  0.00  0.00    +0.000 A 
ATOM     12  C   UNL     1       1.212   8.816  20.341  0.00  0.00    +0.000 A 
ATOM     13  C   UNL     1       1.725   7.435  20.542  0.00  0.00    +0.000 C 
ATOM     14  N   UNL     1       2.350   7.098  19.274  0.00  0.00    +0.000 N 
ATOM     15  C   UNL     1       2.221   8.129  18.354  0.00  0.00    +0.000 C 
ATOM     16  O   UNL     1       2.607   8.218  17.204  0.00  0.00    +0.000 OA
BRANCH   7  18
ATOM     17  C   UNL     1      -0.790  10.139  23.240  0.00  0.00    +0.000 C 
ATOM     18  N   UNL     1       0.214   9.351  22.536  0.00  0.00    +0.000 N 
ATOM     19  H   UNL     1       0.051   8.353  22.660  0.00  0.00    +0.000 HD
ENDBRANCH   7  18
BRANCH   9  20
ATOM     20  C   UNL     1      -0.209  12.553  18.768  0.00  0.00    +0.000 C 
BRANCH  20  21
ATOM     21  C   UNL     1      -1.589  12.937  19.285  0.00  0.00    +0.000 C 
ATOM     22  F   UNL     1      -2.506  12.012  18.894  0.00  0.00    +0.000 F 
ENDBRANCH  20  21
ENDBRANCH   9  20
ENDBRANCH   1  14
BRANCH   5  23
ATOM     23  C   UNL     1       5.685   4.512  16.523  0.00  0.00    +0.000 C 
ATOM     24  C   UNL     1       5.323   5.442  15.332  0.00  0.00    +0.000 C 
ATOM     25  O   UNL     1       5.631   4.389  14.383  0.00  0.00    +0.000 OA
ATOM     26  C   UNL     1       5.462   3.408  15.446  0.00  0.00    +0.000 C 
BRANCH  23  27
ATOM     27  C   UNL     1       7.164   4.619  16.957  0.00  0.00    +0.000 C 
BRANCH  27  28
ATOM     28  C   UNL     1       7.556   6.005  17.369  0.00  0.00    +0.000 A 
ATOM     29  N   UNL     1       7.621   7.059  16.581  0.00  0.00    +0.000 NA
ATOM     30  N   UNL     1       7.972   8.151  17.340  0.00  0.00    +0.000 NA
ATOM     31  C   UNL     1       8.116   7.742  18.580  0.00  0.00    +0.000 A 
ATOM     32  N   UNL     1       7.890   6.397  18.641  0.00  0.00    +0.000 N 
ATOM     33  C   UNL     1       7.989   5.602  19.833  0.00  0.00    +0.000 C 
ENDBRANCH  27  28
ENDBRANCH  23  27
ENDBRANCH   5  23
TORSDOF 7
ENDMDL
MODEL 5
REMARK VINA RESULT:      -8.1      1.104      1.178
REMARK  Name = 
REMARK  9 active torsions:
REMARK  status: ('A' for Active; 'I' for Inactive)
REMARK    1  A    between atoms: C_1  and  N_2
REMARK    2  A    between atoms: N_2  and  C_3
REMARK    3  A    between atoms: C_5  and  C_6
REMARK    4  A    between atoms: C_6  and  C_7
REMARK    5  A    between atoms: N_13  and  C_14
REMARK    6  A    between atoms: C_18  and  C_19
REMARK    7  A    between atoms: C_19  and  C_20
REMARK    8  A    between atoms: C_20  and  C_21
REMARK    9  A    between atoms: N_25  and  C_26
REMARK                            x       y       z     vdW  Elec       q    Type
REMARK                         _______ _______ _______ _____ _____    ______ ____
ROOT
ATOM      1  C   UNL     1       1.535   8.172  20.243  0.00  0.00    +0.000 A 
ATOM      2  C   UNL     1       1.422   8.119  21.630  0.00  0.00    +0.000 A 
ATOM      3  C   UNL     1       0.730   9.115  22.316  0.00  0.00    +0.000 A 
ATOM      4  C   UNL     1       0.136  10.165  21.616  0.00  0.00    +0.000 A 
ATOM      5  C   UNL     1       0.233  10.272  20.217  0.00  0.00    +0.000 A 
ATOM      6  C   UNL     1       0.928   9.241  19.564  0.00  0.00    +0.000 A 
ENDROOT
BRANCH   1  14
ATOM      7  C   UNL     1       3.332   3.818  18.590  0.00  0.00    +0.000 A 
ATOM      8  C   UNL     1       4.213   3.538  17.522  0.00  0.00    +0.000 A 
ATOM      9  C   UNL     1       4.709   4.539  16.645  0.00  0.00    +0.000 A 
ATOM     10  C   UNL     1       4.328   5.865  16.838  0.00  0.00    +0.000 A 
ATOM     11  C   UNL     1       3.507   6.138  17.912  0.00  0.00    +0.000 A 
ATOM     12  C   UNL     1       3.037   5.155  18.786  0.00  0.00    +0.000 A 
ATOM     13  C   UNL     1       2.275   5.820  19.875  0.00  0.00    +0.000 C 
ATOM     14  N   UNL     1       2.286   7.227  19.512  0.00  0.00    +0.000 N 
ATOM     15  C   UNL     1       3.004   7.446  18.345  0.00  0.00    +0.000 C 
ATOM     16  O   UNL     1       3.234   8.473  17.736  0.00  0.00    +0.000 OA
BRANCH   7  18
ATOM     17  C   UNL     1       3.751   2.409  20.579  0.00  0.00    +0.000 C 
ATOM     18  N   UNL     1       2.936   2.772  19.426  0.00  0.00    +0.000 N 
ATOM     19  H   UNL     1       1.952   2.848  19.680  0.00  0.00    +0.000 HD
ENDBRANCH   7  18
BRANCH   9  20
ATOM     20  C   UNL     1       5.618   4.178  15.493  0.00  0.00    +0.000 C 
BRANCH  20  21
ATOM     21  C   UNL     1       7.018   4.766  15.607  0.00  0.00    +0.000 C 
ATOM     22  F   UNL     1       7.634   4.290  16.722  0.00  0.00    +0.000 F 
ENDBRANCH  20  21
ENDBRANCH   9  20
ENDBRANCH   1  14
BRANCH   5  23
ATOM     23  C   UNL     1      -0.342  11.524  19.409  0.00  0.00    +0.000 C 
ATOM     24  C   UNL     1      -1.585  12.212  20.040  0.00  0.00    +0.000 C 
ATOM     25  O   UNL     1      -2.188  12.378  18.732  0.00  0.00    +0.000 OA
ATOM     26  C   UNL     1      -1.330  11.317  18.222  0.00  0.00    +0.000 C 
BRANCH  23  27
ATOM     27  C   UNL     1       0.795  12.510  19.063  0.00  0.00    +0.000 C 
BRANCH  27  28
ATOM     28  C   UNL     1       1.055  13.511  20.147  0.00  0.00    +0.000 A 
ATOM     29  N   UNL     1       1.709  13.288  21.268  0.00  0.00    +0.000 NA
ATOM     30  N   UNL     1       1.775  14.466  21.977  0.00  0.00    +0.000 NA
ATOM     31  C   UNL     1       1.158  15.388  21.273  0.00  0.00    +0.000 A 
ATOM     32  N   UNL     1       0.667  14.828  20.129  0.00  0.00    +0.000 N 
ATOM     33  C   UNL     1      -0.093  15.531  19.132  0.00  0.00    +0.000 C 
ENDBRANCH  27  28
ENDBRANCH  23  27
ENDBRANCH   5  23
TORSDOF 7
ENDMDL
MODEL 6
REMARK VINA RESULT:      -8.1      3.803      8.957
REMARK  Name = 
REMARK  9 active torsions:
REMARK  status: ('A' for Active; 'I' for Inactive)
REMARK    1  A    between atoms: C_1  and  N_2
REMARK    2  A    between atoms: N_2  and  C_3
REMARK    3  A    between atoms: C_5  and  C_6
REMARK    4  A    between atoms: C_6  and  C_7
REMARK    5  A    between atoms: N_13  and  C_14
REMARK    6  A    between atoms: C_18  and  C_19
REMARK    7  A    between atoms: C_19  and  C_20
REMARK    8  A    between atoms: C_20  and  C_21
REMARK    9  A    between atoms: N_25  and  C_26
REMARK                            x       y       z     vdW  Elec       q    Type
REMARK                         _______ _______ _______ _____ _____    ______ ____
ROOT
ATOM      1  C   UNL     1       2.778   5.569  18.327  0.00  0.00    +0.000 A 
ATOM      2  C   UNL     1       2.139   4.334  18.412  0.00  0.00    +0.000 A 
ATOM      3  C   UNL     1       2.626   3.243  17.696  0.00  0.00    +0.000 A 
ATOM      4  C   UNL     1       3.764   3.377  16.900  0.00  0.00    +0.000 A 
ATOM      5  C   UNL     1       4.436   4.605  16.770  0.00  0.00    +0.000 A 
ATOM      6  C   UNL     1       3.920   5.676  17.517  0.00  0.00    +0.000 A 
ENDROOT
BRANCH   1  14
ATOM      7  C   UNL     1       1.140  10.219  19.109  0.00  0.00    +0.000 A 
ATOM      8  C   UNL     1       0.587  10.812  20.266  0.00  0.00    +0.000 A 
ATOM      9  C   UNL     1       0.334  10.089  21.461  0.00  0.00    +0.000 A 
ATOM     10  C   UNL     1       0.650   8.733  21.517  0.00  0.00    +0.000 A 
ATOM     11  C   UNL     1       1.235   8.172  20.402  0.00  0.00    +0.000 A 
ATOM     12  C   UNL     1       1.502   8.890  19.234  0.00  0.00    +0.000 A 
ATOM     13  C   UNL     1       2.227   8.000  18.290  0.00  0.00    +0.000 C 
ATOM     14  N   UNL     1       2.280   6.720  18.975  0.00  0.00    +0.000 N 
ATOM     15  C   UNL     1       1.691   6.789  20.229  0.00  0.00    +0.000 C 
ATOM     16  O   UNL     1       1.545   5.937  21.085  0.00  0.00    +0.000 OA
BRANCH   7  18
ATOM     17  C   UNL     1       2.467  12.011  18.039  0.00  0.00    +0.000 C 
ATOM     18  N   UNL     1       1.394  11.026  17.998  0.00  0.00    +0.000 N 
ATOM     19  H   UNL     1       1.431  10.477  17.139  0.00  0.00    +0.000 HD
ENDBRANCH   7  18
BRANCH   9  20
ATOM     20  C   UNL     1      -0.297  10.764  22.656  0.00  0.00    +0.000 C 
BRANCH  20  21
ATOM     21  C   UNL     1      -1.080  12.024  22.309  0.00  0.00    +0.000 C 
ATOM     22  F   UNL     1      -0.337  13.126  22.595  0.00  0.00    +0.000 F 
ENDBRANCH  20  21
ENDBRANCH   9  20
ENDBRANCH   1  14
BRANCH   5  23
ATOM     23  C   UNL     1       5.671   4.807  15.777  0.00  0.00    +0.000 C 
ATOM     24  C   UNL     1       5.329   4.733  14.263  0.00  0.00    +0.000 C 
ATOM     25  O   UNL     1       6.544   3.987  14.000  0.00  0.00    +0.000 OA
ATOM     26  C   UNL     1       6.595   3.608  15.405  0.00  0.00    +0.000 C 
BRANCH  23  27
ATOM     27  C   UNL     1       6.473   6.068  16.165  0.00  0.00    +0.000 C 
BRANCH  27  28
ATOM     28  C   UNL     1       7.154   5.946  17.494  0.00  0.00    +0.000 A 
ATOM     29  N   UNL     1       7.283   4.842  18.200  0.00  0.00    +0.000 NA
ATOM     30  N   UNL     1       8.008   5.131  19.334  0.00  0.00    +0.000 NA
ATOM     31  C   UNL     1       8.308   6.409  19.297  0.00  0.00    +0.000 A 
ATOM     32  N   UNL     1       7.771   6.968  18.174  0.00  0.00    +0.000 N 
ATOM     33  C   UNL     1       7.870   8.356  17.819  0.00  0.00    +0.000 C 
ENDBRANCH  27  28
ENDBRANCH  23  27
ENDBRANCH   5  23
TORSDOF 7
ENDMDL
MODEL 7
REMARK VINA RESULT:      -8.1      3.147      4.177
REMARK  Name = 
REMARK  9 active torsions:
REMARK  status: ('A' for Active; 'I' for Inactive)
REMARK    1  A    between atoms: C_1  and  N_2
REMARK    2  A    between atoms: N_2  and  C_3
REMARK    3  A    between atoms: C_5  and  C_6
REMARK    4  A    between atoms: C_6  and  C_7
REMARK    5  A    between atoms: N_13  and  C_14
REMARK    6  A    between atoms: C_18  and  C_19
REMARK    7  A    between atoms: C_19  and  C_20
REMARK    8  A    between atoms: C_20  and  C_21
REMARK    9  A    between atoms: N_25  and  C_26
REMARK                            x       y       z     vdW  Elec       q    Type
REMARK                         _______ _______ _______ _____ _____    ______ ____
ROOT
ATOM      1  C   UNL     1       0.421   9.957  19.842  0.00  0.00    +0.000 A 
ATOM      2  C   UNL     1       0.688  10.890  20.841  0.00  0.00    +0.000 A 
ATOM      3  C   UNL     1      -0.189  11.950  21.062  0.00  0.00    +0.000 A 
ATOM      4  C   UNL     1      -1.345  12.076  20.291  0.00  0.00    +0.000 A 
ATOM      5  C   UNL     1      -1.652  11.168  19.262  0.00  0.00    +0.000 A 
ATOM      6  C   UNL     1      -0.749  10.109  19.082  0.00  0.00    +0.000 A 
ENDROOT
BRANCH   1  14
ATOM      7  C   UNL     1       2.828   5.587  20.023  0.00  0.00    +0.000 A 
ATOM      8  C   UNL     1       3.777   5.028  19.139  0.00  0.00    +0.000 A 
ATOM      9  C   UNL     1       4.169   5.655  17.927  0.00  0.00    +0.000 A 
ATOM     10  C   UNL     1       3.613   6.885  17.585  0.00  0.00    +0.000 A 
ATOM     11  C   UNL     1       2.725   7.449  18.477  0.00  0.00    +0.000 A 
ATOM     12  C   UNL     1       2.355   6.840  19.677  0.00  0.00    +0.000 A 
ATOM     13  C   UNL     1       1.474   7.774  20.427  0.00  0.00    +0.000 C 
ATOM     14  N   UNL     1       1.315   8.909  19.534  0.00  0.00    +0.000 N 
ATOM     15  C   UNL     1       2.040   8.741  18.363  0.00  0.00    +0.000 C 
ATOM     16  O   UNL     1       2.157   9.464  17.392  0.00  0.00    +0.000 OA
BRANCH   7  18
ATOM     17  C   UNL     1       1.774   3.676  21.188  0.00  0.00    +0.000 C 
ATOM     18  N   UNL     1       2.542   4.915  21.213  0.00  0.00    +0.000 N 
ATOM     19  H   UNL     1       3.371   4.821  21.798  0.00  0.00    +0.000 HD
ENDBRANCH   7  18
BRANCH   9  20
ATOM     20  C   UNL     1       5.159   4.992  16.997  0.00  0.00    +0.000 C 
BRANCH  20  21
ATOM     21  C   UNL     1       5.717   5.923  15.928  0.00  0.00    +0.000 C 
ATOM     22  F   UNL     1       5.116   5.673  14.735  0.00  0.00    +0.000 F 
ENDBRANCH  20  21
ENDBRANCH   9  20
ENDBRANCH   1  14
BRANCH   5  23
ATOM     23  C   UNL     1      -2.910  11.358  18.296  0.00  0.00    +0.000 C 
ATOM     24  C   UNL     1      -3.743  10.076  18.024  0.00  0.00    +0.000 C 
ATOM     25  O   UNL     1      -3.898  10.442  16.630  0.00  0.00    +0.000 OA
ATOM     26  C   UNL     1      -2.737  11.312  16.748  0.00  0.00    +0.000 C 
BRANCH  23  27
ATOM     27  C   UNL     1      -3.765  12.560  18.756  0.00  0.00    +0.000 C 
BRANCH  27  28
ATOM     28  C   UNL     1      -5.044  12.151  19.419  0.00  0.00    +0.000 A 
ATOM     29  N   UNL     1      -5.182  11.777  20.675  0.00  0.00    +0.000 NA
ATOM     30  N   UNL     1      -6.514  11.528  20.913  0.00  0.00    +0.000 NA
ATOM     31  C   UNL     1      -7.166  11.754  19.795  0.00  0.00    +0.000 A 
ATOM     32  N   UNL     1      -6.281  12.122  18.823  0.00  0.00    +0.000 N 
ATOM     33  C   UNL     1      -6.632  12.417  17.461  0.00  0.00    +0.000 C 
ENDBRANCH  27  28
ENDBRANCH  23  27
ENDBRANCH   5  23
TORSDOF 7
ENDMDL
MODEL 8
REMARK VINA RESULT:      -8.1      4.024      9.690
REMARK  Name = 
REMARK  9 active torsions:
REMARK  status: ('A' for Active; 'I' for Inactive)
REMARK    1  A    between atoms: C_1  and  N_2
REMARK    2  A    between atoms: N_2  and  C_3
REMARK    3  A    between atoms: C_5  and  C_6
REMARK    4  A    between atoms: C_6  and  C_7
REMARK    5  A    between atoms: N_13  and  C_14
REMARK    6  A    between atoms: C_18  and  C_19
REMARK    7  A    between atoms: C_19  and  C_20
REMARK    8  A    between atoms: C_20  and  C_21
REMARK    9  A    between atoms: N_25  and  C_26
REMARK                            x       y       z     vdW  Elec       q    Type
REMARK                         _______ _______ _______ _____ _____    ______ ____
ROOT
ATOM      1  C   UNL     1       2.785   6.096  18.507  0.00  0.00    +0.000 A 
ATOM      2  C   UNL     1       2.099   4.938  18.149  0.00  0.00    +0.000 A 
ATOM      3  C   UNL     1       2.731   3.953  17.393  0.00  0.00    +0.000 A 
ATOM      4  C   UNL     1       4.059   4.117  16.998  0.00  0.00    +0.000 A 
ATOM      5  C   UNL     1       4.791   5.273  17.322  0.00  0.00    +0.000 A 
ATOM      6  C   UNL     1       4.120   6.234  18.095  0.00  0.00    +0.000 A 
ENDROOT
BRANCH   1  14
ATOM      7  C   UNL     1       0.703  10.517  19.527  0.00  0.00    +0.000 A 
ATOM      8  C   UNL     1       0.067  10.979  20.700  0.00  0.00    +0.000 A 
ATOM      9  C   UNL     1      -0.152  10.158  21.837  0.00  0.00    +0.000 A 
ATOM     10  C   UNL     1       0.287   8.836  21.818  0.00  0.00    +0.000 A 
ATOM     11  C   UNL     1       0.952   8.406  20.690  0.00  0.00    +0.000 A 
ATOM     12  C   UNL     1       1.183   9.220  19.580  0.00  0.00    +0.000 A 
ATOM     13  C   UNL     1       2.013   8.464  18.606  0.00  0.00    +0.000 C 
ATOM     14  N   UNL     1       2.166   7.151  19.209  0.00  0.00    +0.000 N 
ATOM     15  C   UNL     1       1.538   7.083  20.445  0.00  0.00    +0.000 C 
ATOM     16  O   UNL     1       1.448   6.167  21.239  0.00  0.00    +0.000 OA
BRANCH   7  18
ATOM     17  C   UNL     1       1.928  12.454  18.596  0.00  0.00    +0.000 C 
ATOM     18  N   UNL     1       0.913  11.414  18.478  0.00  0.00    +0.000 N 
ATOM     19  H   UNL     1       0.982  10.933  17.582  0.00  0.00    +0.000 HD
ENDBRANCH   7  18
BRANCH   9  20
ATOM     20  C   UNL     1      -0.875  10.693  23.052  0.00  0.00    +0.000 C 
BRANCH  20  21
ATOM     21  C   UNL     1      -1.674  11.961  22.783  0.00  0.00    +0.000 C 
ATOM     22  F   UNL     1      -1.287  12.945  23.638  0.00  0.00    +0.000 F 
ENDBRANCH  20  21
ENDBRANCH   9  20
ENDBRANCH   1  14
BRANCH   5  23
ATOM     23  C   UNL     1       6.273   5.529  16.785  0.00  0.00    +0.000 C 
ATOM     24  C   UNL     1       7.310   5.954  17.862  0.00  0.00    +0.000 C 
ATOM     25  O   UNL     1       7.901   6.914  16.949  0.00  0.00    +0.000 OA
ATOM     26  C   UNL     1       6.669   6.905  16.171  0.00  0.00    +0.000 C 
BRANCH  23  27
ATOM     27  C   UNL     1       6.743   4.341  15.916  0.00  0.00    +0.000 C 
BRANCH  27  28
ATOM     28  C   UNL     1       7.114   4.744  14.521  0.00  0.00    +0.000 A 
ATOM     29  N   UNL     1       8.099   5.550  14.183  0.00  0.00    +0.000 NA
ATOM     30  N   UNL     1       8.144   5.632  12.810  0.00  0.00    +0.000 NA
ATOM     31  C   UNL     1       7.182   4.873  12.336  0.00  0.00    +0.000 A 
ATOM     32  N   UNL     1       6.493   4.316  13.374  0.00  0.00    +0.000 N 
ATOM     33  C   UNL     1       5.353   3.452  13.234  0.00  0.00    +0.000 C 
ENDBRANCH  27  28
ENDBRANCH  23  27
ENDBRANCH   5  23
TORSDOF 7
ENDMDL
MODEL 9
REMARK VINA RESULT:      -8.0      1.240      1.593
REMARK  Name = 
REMARK  9 active torsions:
REMARK  status: ('A' for Active; 'I' for Inactive)
REMARK    1  A    between atoms: C_1  and  N_2
REMARK    2  A    between atoms: N_2  and  C_3
REMARK    3  A    between atoms: C_5  and  C_6
REMARK    4  A    between atoms: C_6  and  C_7
REMARK    5  A    between atoms: N_13  and  C_14
REMARK    6  A    between atoms: C_18  and  C_19
REMARK    7  A    between atoms: C_19  and  C_20
REMARK    8  A    between atoms: C_20  and  C_21
REMARK    9  A    between atoms: N_25  and  C_26
REMARK                            x       y       z     vdW  Elec       q    Type
REMARK                         _______ _______ _______ _____ _____    ______ ____
ROOT
ATOM      1  C   UNL     1       1.022   9.019  20.078  0.00  0.00    +0.000 A 
ATOM      2  C   UNL     1       1.045   9.196  21.460  0.00  0.00    +0.000 A 
ATOM      3  C   UNL     1       0.181  10.107  22.063  0.00  0.00    +0.000 A 
ATOM      4  C   UNL     1      -0.720  10.839  21.289  0.00  0.00    +0.000 A 
ATOM      5  C   UNL     1      -0.772  10.707  19.890  0.00  0.00    +0.000 A 
ATOM      6  C   UNL     1       0.107   9.769  19.324  0.00  0.00    +0.000 A 
ENDROOT
BRANCH   1  14
ATOM      7  C   UNL     1       3.661   4.962  18.855  0.00  0.00    +0.000 A 
ATOM      8  C   UNL     1       4.524   4.727  17.762  0.00  0.00    +0.000 A 
ATOM      9  C   UNL     1       4.733   5.673  16.723  0.00  0.00    +0.000 A 
ATOM     10  C   UNL     1       4.075   6.900  16.776  0.00  0.00    +0.000 A 
ATOM     11  C   UNL     1       3.273   7.142  17.871  0.00  0.00    +0.000 A 
ATOM     12  C   UNL     1       3.084   6.218  18.901  0.00  0.00    +0.000 A 
ATOM     13  C   UNL     1       2.252   6.854  19.956  0.00  0.00    +0.000 C 
ATOM     14  N   UNL     1       1.926   8.162  19.415  0.00  0.00    +0.000 N 
ATOM     15  C   UNL     1       2.512   8.359  18.172  0.00  0.00    +0.000 C 
ATOM     16  O   UNL     1       2.472   9.312  17.418  0.00  0.00    +0.000 OA
BRANCH   7  18
ATOM     17  C   UNL     1       2.876   2.728  19.572  0.00  0.00    +0.000 C 
ATOM     18  N   UNL     1       3.557   3.987  19.849  0.00  0.00    +0.000 N 
ATOM     19  H   UNL     1       4.452   3.828  20.311  0.00  0.00    +0.000 HD
ENDBRANCH   7  18
BRANCH   9  20
ATOM     20  C   UNL     1       5.637   5.353  15.555  0.00  0.00    +0.000 C 
BRANCH  20  21
ATOM     21  C   UNL     1       6.020   3.883  15.458  0.00  0.00    +0.000 C 
ATOM     22  F   UNL     1       6.485   3.605  14.211  0.00  0.00    +0.000 F 
ENDBRANCH  20  21
ENDBRANCH   9  20
ENDBRANCH   1  14
BRANCH   5  23
ATOM     23  C   UNL     1      -1.715  11.616  18.977  0.00  0.00    +0.000 C 
ATOM     24  C   UNL     1      -2.935  12.250  19.701  0.00  0.00    +0.000 C 
ATOM     25  O   UNL     1      -3.783  11.990  18.554  0.00  0.00    +0.000 OA
ATOM     26  C   UNL     1      -2.840  10.973  18.110  0.00  0.00    +0.000 C 
BRANCH  23  27
ATOM     27  C   UNL     1      -0.873  12.638  18.183  0.00  0.00    +0.000 C 
BRANCH  27  28
ATOM     28  C   UNL     1      -0.027  13.509  19.060  0.00  0.00    +0.000 A 
ATOM     29  N   UNL     1      -0.467  14.402  19.923  0.00  0.00    +0.000 NA
ATOM     30  N   UNL     1       0.615  14.958  20.566  0.00  0.00    +0.000 NA
ATOM     31  C   UNL     1       1.698  14.394  20.081  0.00  0.00    +0.000 A 
ATOM     32  N   UNL     1       1.345  13.497  19.115  0.00  0.00    +0.000 N 
ATOM     33  C   UNL     1       2.271  12.714  18.344  0.00  0.00    +0.000 C 
ENDBRANCH  27  28
ENDBRANCH  23  27
ENDBRANCH   5  23
TORSDOF 7
ENDMDL
