MODEL 1
REMARK VINA RESULT:      -9.2      0.000      0.000
REMARK  Name = 
REMARK  6 active torsions:
REMARK  status: ('A' for Active; 'I' for Inactive)
REMARK    1  A    between atoms: C_1  and  N_2
REMARK    2  A    between atoms: C_6  and  C_7
REMARK    3  A    between atoms: C_11  and  N_12
REMARK    4  A    between atoms: C_13  and  C_15
REMARK    5  A    between atoms: C_20  and  C_22
REMARK    6  A    between atoms: C_22  and  C_23
REMARK                            x       y       z     vdW  Elec       q    Type
REMARK                         _______ _______ _______ _____ _____    ______ ____
ROOT
ATOM      1  N   UNL     1       2.027   5.847  21.390  0.00  0.00    +0.000 N 
ATOM      2  C   UNL     1       2.120   4.511  21.082  0.00  0.00    +0.000 C 
ATOM      3  O   UNL     1       2.507   3.743  21.972  0.00  0.00    +0.000 OA
ATOM      4  H   UNL     1       2.476   6.071  22.272  0.00  0.00    +0.000 HD
ENDROOT
BRANCH   2   5
ATOM      5  C   UNL     1       1.871   3.955  19.652  0.00  0.00    +0.000 C 
ATOM      6  C   UNL     1       0.566   3.139  19.646  0.00  0.00    +0.000 C 
ATOM      7  C   UNL     1       0.671   2.196  18.463  0.00  0.00    +0.000 C 
ATOM      8  C   UNL     1       2.154   2.095  18.158  0.00  0.00    +0.000 C 
ATOM      9  N   UNL     1       2.842   3.072  18.992  0.00  0.00    +0.000 N 
ATOM     10  C   UNL     1       4.153   3.380  18.637  0.00  0.00    +0.000 C 
ATOM     11  O   UNL     1       4.683   2.798  17.686  0.00  0.00    +0.000 OA
BRANCH  10  12
ATOM     12  C   UNL     1       4.906   4.439  19.442  0.00  0.00    +0.000 C 
BRANCH  12  13
ATOM     13  C   UNL     1       5.815   5.413  18.697  0.00  0.00    +0.000 A 
ATOM     14  C   UNL     1       5.464   6.112  17.533  0.00  0.00    +0.000 A 
ATOM     15  C   UNL     1       6.332   7.051  16.965  0.00  0.00    +0.000 A 
ATOM     16  C   UNL     1       7.579   7.291  17.533  0.00  0.00    +0.000 A 
ATOM     17  C   UNL     1       7.970   6.569  18.656  0.00  0.00    +0.000 A 
ATOM     18  C   UNL     1       7.100   5.637  19.228  0.00  0.00    +0.000 A 
ENDBRANCH  12  13
ENDBRANCH  10  12
ENDBRANCH   2   5
BRANCH   1  23
ATOM     19  C   UNL     1       1.129   9.157  20.020  0.00  0.00    +0.000 A 
ATOM     20  C   UNL     1       1.774   9.062  18.779  0.00  0.00    +0.000 A 
ATOM     21  C   UNL     1       2.336   7.863  18.350  0.00  0.00    +0.000 A 
ATOM     22  C   UNL     1       2.340   6.766  19.199  0.00  0.00    +0.000 A 
ATOM     23  C   UNL     1       1.812   6.881  20.480  0.00  0.00    +0.000 A 
ATOM     24  C   UNL     1       1.129   8.036  20.863  0.00  0.00    +0.000 A 
BRANCH  19  30
ATOM     25  C   UNL     1      -1.408  10.711  18.946  0.00  0.00    +0.000 C 
ATOM     26  N   UNL     1      -0.507  11.113  19.990  0.00  0.00    +0.000 N 
ATOM     27  C   UNL     1      -0.624  12.248  20.740  0.00  0.00    +0.000 A 
ATOM     28  N   UNL     1       0.284  12.255  21.676  0.00  0.00    +0.000 NA
ATOM     29  N   UNL     1       1.022  11.108  21.544  0.00  0.00    +0.000 NA
ATOM     30  C   UNL     1       0.570  10.420  20.507  0.00  0.00    +0.000 A 
ENDBRANCH  19  30
ENDBRANCH   1  23
TORSDOF 5
ENDMDL
MODEL 2
REMARK VINA RESULT:      -8.5      0.786      1.269
REMARK  Name = 
REMARK  6 active torsions:
REMARK  status: ('A' for Active; 'I' for Inactive)
REMARK    1  A    between atoms: C_1  and  N_2
REMARK    2  A    between atoms: C_6  and  C_7
REMARK    3  A    between atoms: C_11  and  N_12
REMARK    4  A    between atoms: C_13  and  C_15
REMARK    5  A    between atoms: C_20  and  C_22
REMARK    6  A    between atoms: C_22  and  C_23
REMARK                            x       y       z     vdW  Elec       q    Type
REMARK                         _______ _______ _______ _____ _____    ______ ____
ROOT
ATOM      1  N   UNL     1       2.031   6.395  21.019  0.00  0.00    +0.000 N 
ATOM      2  C   UNL     1       2.115   5.028  20.914  0.00  0.00    +0.000 C 
ATOM      3  O   UNL     1       2.462   4.396  21.921  0.00  0.00    +0.000 OA
ATOM      4  H   UNL     1       2.454   6.744  21.873  0.00  0.00    +0.000 HD
ENDROOT
BRANCH   2   5
ATOM      5  C   UNL     1       1.906   4.269  19.575  0.00  0.00    +0.000 C 
ATOM      6  C   UNL     1       0.532   3.576  19.595  0.00  0.00    +0.000 C 
ATOM      7  C   UNL     1       0.620   2.446  18.586  0.00  0.00    +0.000 C 
ATOM      8  C   UNL     1       2.104   2.173  18.418  0.00  0.00    +0.000 C 
ATOM      9  N   UNL     1       2.827   3.211  19.139  0.00  0.00    +0.000 N 
ATOM     10  C   UNL     1       4.182   3.346  18.844  0.00  0.00    +0.000 C 
ATOM     11  O   UNL     1       4.713   2.573  18.040  0.00  0.00    +0.000 OA
BRANCH  10  12
ATOM     12  C   UNL     1       4.980   4.454  19.528  0.00  0.00    +0.000 C 
BRANCH  12  13
ATOM     13  C   UNL     1       5.855   5.363  18.668  0.00  0.00    +0.000 A 
ATOM     14  C   UNL     1       5.501   5.860  17.406  0.00  0.00    +0.000 A 
ATOM     15  C   UNL     1       6.331   6.757  16.724  0.00  0.00    +0.000 A 
ATOM     16  C   UNL     1       7.543   7.155  17.279  0.00  0.00    +0.000 A 
ATOM     17  C   UNL     1       7.940   6.632  18.505  0.00  0.00    +0.000 A 
ATOM     18  C   UNL     1       7.107   5.742  19.189  0.00  0.00    +0.000 A 
ENDBRANCH  12  13
ENDBRANCH  10  12
ENDBRANCH   2   5
BRANCH   1  23
ATOM     19  C   UNL     1       0.883   9.312  19.063  0.00  0.00    +0.000 A 
ATOM     20  C   UNL     1       1.835   9.272  18.034  0.00  0.00    +0.000 A 
ATOM     21  C   UNL     1       2.714   8.200  17.909  0.00  0.00    +0.000 A 
ATOM     22  C   UNL     1       2.714   7.197  18.866  0.00  0.00    +0.000 A 
ATOM     23  C   UNL     1       1.859   7.286  19.959  0.00  0.00    +0.000 A 
ATOM     24  C   UNL     1       0.886   8.283  20.018  0.00  0.00    +0.000 A 
BRANCH  19  30
ATOM     25  C   UNL     1       1.384  11.961  20.715  0.00  0.00    +0.000 C 
ATOM     26  N   UNL     1       0.193  11.576  20.009  0.00  0.00    +0.000 N 
ATOM     27  C   UNL     1      -0.939  12.332  19.900  0.00  0.00    +0.000 A 
ATOM     28  N   UNL     1      -1.785  11.747  19.098  0.00  0.00    +0.000 NA
ATOM     29  N   UNL     1      -1.209  10.579  18.671  0.00  0.00    +0.000 NA
ATOM     30  C   UNL     1      -0.020  10.450  19.238  0.00  0.00    +0.000 A 
ENDBRANCH  19  30
ENDBRANCH   1  23
TORSDOF 5
ENDMDL
MODEL 3
REMARK VINA RESULT:      -8.3      1.924      4.793
REMARK  Name = 
REMARK  6 active torsions:
REMARK  status: ('A' for Active; 'I' for Inactive)
REMARK    1  A    between atoms: C_1  and  N_2
REMARK    2  A    between atoms: C_6  and  C_7
REMARK    3  A    between atoms: C_11  and  N_12
REMARK    4  A    between atoms: C_13  and  C_15
REMARK    5  A    between atoms: C_20  and  C_22
REMARK    6  A    between atoms: C_22  and  C_23
REMARK                            x       y       z     vdW  Elec       q    Type
REMARK                         _______ _______ _______ _____ _____    ______ ____
ROOT
ATOM      1  N   UNL     1       3.500   7.658  16.582  0.00  0.00    +0.000 N 
ATOM      2  C   UNL     1       4.719   7.031  16.492  0.00  0.00    +0.000 C 
ATOM      3  O   UNL     1       5.042   6.563  15.392  0.00  0.00    +0.000 OA
ATOM      4  H   UNL     1       2.920   7.493  15.766  0.00  0.00    +0.000 HD
ENDROOT
BRANCH   2   5
ATOM      5  C   UNL     1       5.637   6.791  17.721  0.00  0.00    +0.000 C 
ATOM      6  C   UNL     1       6.915   7.635  17.571  0.00  0.00    +0.000 C 
ATOM      7  C   UNL     1       7.964   6.962  18.437  0.00  0.00    +0.000 C 
ATOM      8  C   UNL     1       7.479   5.536  18.621  0.00  0.00    +0.000 C 
ATOM      9  N   UNL     1       6.139   5.451  18.056  0.00  0.00    +0.000 N 
ATOM     10  C   UNL     1       5.383   4.335  18.411  0.00  0.00    +0.000 C 
ATOM     11  O   UNL     1       5.879   3.464  19.132  0.00  0.00    +0.000 OA
BRANCH  10  12
ATOM     12  C   UNL     1       3.950   4.220  17.893  0.00  0.00    +0.000 C 
BRANCH  12  13
ATOM     13  C   UNL     1       2.861   3.754  18.856  0.00  0.00    +0.000 A 
ATOM     14  C   UNL     1       2.887   3.933  20.247  0.00  0.00    +0.000 A 
ATOM     15  C   UNL     1       1.803   3.549  21.045  0.00  0.00    +0.000 A 
ATOM     16  C   UNL     1       0.683   2.955  20.472  0.00  0.00    +0.000 A 
ATOM     17  C   UNL     1       0.659   2.717  19.101  0.00  0.00    +0.000 A 
ATOM     18  C   UNL     1       1.738   3.108  18.304  0.00  0.00    +0.000 A 
ENDBRANCH  12  13
ENDBRANCH  10  12
ENDBRANCH   2   5
BRANCH   1  23
ATOM     19  C   UNL     1       1.410   9.587  18.939  0.00  0.00    +0.000 A 
ATOM     20  C   UNL     1       1.305   8.638  19.966  0.00  0.00    +0.000 A 
ATOM     21  C   UNL     1       2.058   7.466  19.941  0.00  0.00    +0.000 A 
ATOM     22  C   UNL     1       2.856   7.188  18.842  0.00  0.00    +0.000 A 
ATOM     23  C   UNL     1       2.875   8.063  17.762  0.00  0.00    +0.000 A 
ATOM     24  C   UNL     1       2.231   9.297  17.839  0.00  0.00    +0.000 A 
BRANCH  19  30
ATOM     25  C   UNL     1      -1.432  10.014  17.619  0.00  0.00    +0.000 C 
ATOM     26  N   UNL     1      -0.621  10.988  18.295  0.00  0.00    +0.000 N 
ATOM     27  C   UNL     1      -0.972  12.288  18.519  0.00  0.00    +0.000 A 
ATOM     28  N   UNL     1      -0.068  12.869  19.259  0.00  0.00    +0.000 NA
ATOM     29  N   UNL     1       0.905  11.940  19.527  0.00  0.00    +0.000 NA
ATOM     30  C   UNL     1       0.595  10.803  18.924  0.00  0.00    +0.000 A 
ENDBRANCH  19  30
ENDBRANCH   1  23
TORSDOF 5
ENDMDL
MODEL 4
REMARK VINA RESULT:      -8.3      0.764      1.437
REMARK  Name = 
REMARK  6 active torsions:
REMARK  status: ('A' for Active; 'I' for Inactive)
REMARK    1  A    between atoms: C_1  and  N_2
REMARK    2  A    between atoms: C_6  and  C_7
REMARK    3  A    between atoms: C_11  and  N_12
REMARK    4  A    between atoms: C_13  and  C_15
REMARK    5  A    between atoms: C_20  and  C_22
REMARK    6  A    between atoms: C_22  and  C_23
REMARK                            x       y       z     vdW  Elec       q    Type
REMARK                         _______ _______ _______ _____ _____    ______ ____
ROOT
ATOM      1  N   UNL     1       1.988   5.761  21.511  0.00  0.00    +0.000 N 
ATOM      2  C   UNL     1       2.127   4.444  21.146  0.00  0.00    +0.000 C 
ATOM      3  O   UNL     1       2.550   3.654  22.000  0.00  0.00    +0.000 OA
ATOM      4  H   UNL     1       2.436   5.965  22.398  0.00  0.00    +0.000 HD
ENDROOT
BRANCH   2   5
ATOM      5  C   UNL     1       1.887   3.940  19.696  0.00  0.00    +0.000 C 
ATOM      6  C   UNL     1       0.582   3.125  19.652  0.00  0.00    +0.000 C 
ATOM      7  C   UNL     1       0.694   2.225  18.437  0.00  0.00    +0.000 C 
ATOM      8  C   UNL     1       2.179   2.134  18.138  0.00  0.00    +0.000 C 
ATOM      9  N   UNL     1       2.861   3.080  19.010  0.00  0.00    +0.000 N 
ATOM     10  C   UNL     1       4.175   3.400  18.674  0.00  0.00    +0.000 C 
ATOM     11  O   UNL     1       4.711   2.852  17.707  0.00  0.00    +0.000 OA
BRANCH  10  12
ATOM     12  C   UNL     1       4.923   4.429  19.521  0.00  0.00    +0.000 C 
BRANCH  12  13
ATOM     13  C   UNL     1       5.840   5.426  18.817  0.00  0.00    +0.000 A 
ATOM     14  C   UNL     1       7.155   5.722  19.205  0.00  0.00    +0.000 A 
ATOM     15  C   UNL     1       7.954   6.587  18.449  0.00  0.00    +0.000 A 
ATOM     16  C   UNL     1       7.446   7.195  17.305  0.00  0.00    +0.000 A 
ATOM     17  C   UNL     1       6.127   6.959  16.933  0.00  0.00    +0.000 A 
ATOM     18  C   UNL     1       5.332   6.088  17.683  0.00  0.00    +0.000 A 
ENDBRANCH  12  13
ENDBRANCH  10  12
ENDBRANCH   2   5
BRANCH   1  23
ATOM     19  C   UNL     1       0.794   9.023  20.254  0.00  0.00    +0.000 A 
ATOM     20  C   UNL     1       1.565   9.103  19.086  0.00  0.00    +0.000 A 
ATOM     21  C   UNL     1       2.321   8.018  18.648  0.00  0.00    +0.000 A 
ATOM     22  C   UNL     1       2.388   6.872  19.425  0.00  0.00    +0.000 A 
ATOM     23  C   UNL     1       1.726   6.825  20.647  0.00  0.00    +0.000 A 
ATOM     24  C   UNL     1       0.861   7.852  21.023  0.00  0.00    +0.000 A 
BRANCH  19  30
ATOM     25  C   UNL     1      -0.074   9.635  23.233  0.00  0.00    +0.000 C 
ATOM     26  N   UNL     1      -0.390  10.389  22.051  0.00  0.00    +0.000 N 
ATOM     27  C   UNL     1      -1.108  11.551  22.026  0.00  0.00    +0.000 A 
ATOM     28  N   UNL     1      -1.114  12.040  20.816  0.00  0.00    +0.000 NA
ATOM     29  N   UNL     1      -0.393  11.186  20.022  0.00  0.00    +0.000 NA
ATOM     30  C   UNL     1       0.027  10.166  20.754  0.00  0.00    +0.000 A 
ENDBRANCH  19  30
ENDBRANCH   1  23
TORSDOF 5
ENDMDL
MODEL 5
REMARK VINA RESULT:      -8.2      1.028      1.587
REMARK  Name = 
REMARK  6 active torsions:
REMARK  status: ('A' for Active; 'I' for Inactive)
REMARK    1  A    between atoms: C_1  and  N_2
REMARK    2  A    between atoms: C_6  and  C_7
REMARK    3  A    between atoms: C_11  and  N_12
REMARK    4  A    between atoms: C_13  and  C_15
REMARK    5  A    between atoms: C_20  and  C_22
REMARK    6  A    between atoms: C_22  and  C_23
REMARK                            x       y       z     vdW  Elec       q    Type
REMARK                         _______ _______ _______ _____ _____    ______ ____
ROOT
ATOM      1  N   UNL     1       2.148   6.314  20.945  0.00  0.00    +0.000 N 
ATOM      2  C   UNL     1       2.165   4.942  20.876  0.00  0.00    +0.000 C 
ATOM      3  O   UNL     1       2.504   4.322  21.893  0.00  0.00    +0.000 OA
ATOM      4  H   UNL     1       2.606   6.664  21.779  0.00  0.00    +0.000 HD
ENDROOT
BRANCH   2   5
ATOM      5  C   UNL     1       1.890   4.158  19.563  0.00  0.00    +0.000 C 
ATOM      6  C   UNL     1       0.465   3.578  19.609  0.00  0.00    +0.000 C 
ATOM      7  C   UNL     1       0.459   2.412  18.638  0.00  0.00    +0.000 C 
ATOM      8  C   UNL     1       1.916   2.015  18.477  0.00  0.00    +0.000 C 
ATOM      9  N   UNL     1       2.722   3.016  19.162  0.00  0.00    +0.000 N 
ATOM     10  C   UNL     1       4.082   3.032  18.860  0.00  0.00    +0.000 C 
ATOM     11  O   UNL     1       4.547   2.194  18.082  0.00  0.00    +0.000 OA
BRANCH  10  12
ATOM     12  C   UNL     1       4.969   4.096  19.506  0.00  0.00    +0.000 C 
BRANCH  12  13
ATOM     13  C   UNL     1       5.772   5.027  18.600  0.00  0.00    +0.000 A 
ATOM     14  C   UNL     1       6.914   5.740  18.990  0.00  0.00    +0.000 A 
ATOM     15  C   UNL     1       7.638   6.505  18.068  0.00  0.00    +0.000 A 
ATOM     16  C   UNL     1       7.220   6.592  16.744  0.00  0.00    +0.000 A 
ATOM     17  C   UNL     1       6.059   5.937  16.348  0.00  0.00    +0.000 A 
ATOM     18  C   UNL     1       5.341   5.167  17.267  0.00  0.00    +0.000 A 
ENDBRANCH  12  13
ENDBRANCH  10  12
ENDBRANCH   2   5
BRANCH   1  23
ATOM     19  C   UNL     1       1.079   9.218  18.926  0.00  0.00    +0.000 A 
ATOM     20  C   UNL     1       2.018   9.120  17.889  0.00  0.00    +0.000 A 
ATOM     21  C   UNL     1       2.859   8.015  17.782  0.00  0.00    +0.000 A 
ATOM     22  C   UNL     1       2.834   7.038  18.765  0.00  0.00    +0.000 A 
ATOM     23  C   UNL     1       1.995   7.183  19.864  0.00  0.00    +0.000 A 
ATOM     24  C   UNL     1       1.057   8.215  19.907  0.00  0.00    +0.000 A 
BRANCH  19  30
ATOM     25  C   UNL     1       1.941  12.248  19.200  0.00  0.00    +0.000 C 
ATOM     26  N   UNL     1       0.613  11.702  19.255  0.00  0.00    +0.000 N 
ATOM     27  C   UNL     1      -0.533  12.430  19.400  0.00  0.00    +0.000 A 
ATOM     28  N   UNL     1      -1.571  11.646  19.293  0.00  0.00    +0.000 NA
ATOM     29  N   UNL     1      -1.106  10.374  19.079  0.00  0.00    +0.000 NA
ATOM     30  C   UNL     1       0.217  10.391  19.081  0.00  0.00    +0.000 A 
ENDBRANCH  19  30
ENDBRANCH   1  23
TORSDOF 5
ENDMDL
MODEL 6
REMARK VINA RESULT:      -8.2      1.926      4.891
REMARK  Name = 
REMARK  6 active torsions:
REMARK  status: ('A' for Active; 'I' for Inactive)
REMARK    1  A    between atoms: C_1  and  N_2
REMARK    2  A    between atoms: C_6  and  C_7
REMARK    3  A    between atoms: C_11  and  N_12
REMARK    4  A    between atoms: C_13  and  C_15
REMARK    5  A    between atoms: C_20  and  C_22
REMARK    6  A    between atoms: C_22  and  C_23
REMARK                            x       y       z     vdW  Elec       q    Type
REMARK                         _______ _______ _______ _____ _____    ______ ____
ROOT
ATOM      1  N   UNL     1       3.527   7.588  16.546  0.00  0.00    +0.000 N 
ATOM      2  C   UNL     1       4.755   6.974  16.482  0.00  0.00    +0.000 C 
ATOM      3  O   UNL     1       5.100   6.496  15.394  0.00  0.00    +0.000 OA
ATOM      4  H   UNL     1       2.960   7.404  15.725  0.00  0.00    +0.000 HD
ENDROOT
BRANCH   2   5
ATOM      5  C   UNL     1       5.659   6.763  17.728  0.00  0.00    +0.000 C 
ATOM      6  C   UNL     1       6.931   7.617  17.581  0.00  0.00    +0.000 C 
ATOM      7  C   UNL     1       7.973   6.968  18.472  0.00  0.00    +0.000 C 
ATOM      8  C   UNL     1       7.499   5.540  18.672  0.00  0.00    +0.000 C 
ATOM      9  N   UNL     1       6.168   5.433  18.091  0.00  0.00    +0.000 N 
ATOM     10  C   UNL     1       5.418   4.317  18.453  0.00  0.00    +0.000 C 
ATOM     11  O   UNL     1       5.912   3.462  19.195  0.00  0.00    +0.000 OA
BRANCH  10  12
ATOM     12  C   UNL     1       3.993   4.179  17.918  0.00  0.00    +0.000 C 
BRANCH  12  13
ATOM     13  C   UNL     1       2.892   3.736  18.879  0.00  0.00    +0.000 A 
ATOM     14  C   UNL     1       2.906   3.938  20.266  0.00  0.00    +0.000 A 
ATOM     15  C   UNL     1       1.812   3.575  21.060  0.00  0.00    +0.000 A 
ATOM     16  C   UNL     1       0.693   2.979  20.486  0.00  0.00    +0.000 A 
ATOM     17  C   UNL     1       0.680   2.720  19.120  0.00  0.00    +0.000 A 
ATOM     18  C   UNL     1       1.770   3.090  18.326  0.00  0.00    +0.000 A 
ENDBRANCH  12  13
ENDBRANCH  10  12
ENDBRANCH   2   5
BRANCH   1  23
ATOM     19  C   UNL     1       1.282   9.438  18.823  0.00  0.00    +0.000 A 
ATOM     20  C   UNL     1       1.291   8.551  19.908  0.00  0.00    +0.000 A 
ATOM     21  C   UNL     1       2.161   7.464  19.940  0.00  0.00    +0.000 A 
ATOM     22  C   UNL     1       2.968   7.199  18.845  0.00  0.00    +0.000 A 
ATOM     23  C   UNL     1       2.881   8.000  17.712  0.00  0.00    +0.000 A 
ATOM     24  C   UNL     1       2.113   9.165  17.726  0.00  0.00    +0.000 A 
BRANCH  19  30
ATOM     25  C   UNL     1       1.630  12.349  20.008  0.00  0.00    +0.000 C 
ATOM     26  N   UNL     1       0.490  11.809  19.320  0.00  0.00    +0.000 N 
ATOM     27  C   UNL     1      -0.651  12.499  19.023  0.00  0.00    +0.000 A 
ATOM     28  N   UNL     1      -1.438  11.757  18.294  0.00  0.00    +0.000 NA
ATOM     29  N   UNL     1      -0.813  10.551  18.108  0.00  0.00    +0.000 NA
ATOM     30  C   UNL     1       0.345  10.561  18.749  0.00  0.00    +0.000 A 
ENDBRANCH  19  30
ENDBRANCH   1  23
TORSDOF 5
ENDMDL
MODEL 7
REMARK VINA RESULT:      -7.9      3.458      6.250
REMARK  Name = 
REMARK  6 active torsions:
REMARK  status: ('A' for Active; 'I' for Inactive)
REMARK    1  A    between atoms: C_1  and  N_2
REMARK    2  A    between atoms: C_6  and  C_7
REMARK    3  A    between atoms: C_11  and  N_12
REMARK    4  A    between atoms: C_13  and  C_15
REMARK    5  A    between atoms: C_20  and  C_22
REMARK    6  A    between atoms: C_22  and  C_23
REMARK                            x       y       z     vdW  Elec       q    Type
REMARK                         _______ _______ _______ _____ _____    ______ ____
ROOT
ATOM      1  N   UNL     1      -0.384  11.599  18.215  0.00  0.00    +0.000 N 
ATOM      2  C   UNL     1       0.470  11.192  19.212  0.00  0.00    +0.000 C 
ATOM      3  O   UNL     1       1.660  11.517  19.116  0.00  0.00    +0.000 OA
ATOM      4  H   UNL     1       0.112  11.963  17.408  0.00  0.00    +0.000 HD
ENDROOT
BRANCH   2   5
ATOM      5  C   UNL     1       0.027  10.260  20.374  0.00  0.00    +0.000 C 
ATOM      6  C   UNL     1      -0.413  11.119  21.572  0.00  0.00    +0.000 C 
ATOM      7  C   UNL     1      -0.281  10.230  22.794  0.00  0.00    +0.000 C 
ATOM      8  C   UNL     1       0.689   9.134  22.391  0.00  0.00    +0.000 C 
ATOM      9  N   UNL     1       0.947   9.278  20.964  0.00  0.00    +0.000 N 
ATOM     10  C   UNL     1       1.537   8.190  20.326  0.00  0.00    +0.000 C 
ATOM     11  O   UNL     1       1.854   7.193  20.981  0.00  0.00    +0.000 OA
BRANCH  10  12
ATOM     12  C   UNL     1       1.781   8.262  18.819  0.00  0.00    +0.000 C 
BRANCH  12  13
ATOM     13  C   UNL     1       2.643   7.184  18.166  0.00  0.00    +0.000 A 
ATOM     14  C   UNL     1       3.878   7.410  17.543  0.00  0.00    +0.000 A 
ATOM     15  C   UNL     1       4.641   6.348  17.045  0.00  0.00    +0.000 A 
ATOM     16  C   UNL     1       4.173   5.041  17.137  0.00  0.00    +0.000 A 
ATOM     17  C   UNL     1       2.925   4.799  17.701  0.00  0.00    +0.000 A 
ATOM     18  C   UNL     1       2.167   5.860  18.205  0.00  0.00    +0.000 A 
ENDBRANCH  12  13
ENDBRANCH  10  12
ENDBRANCH   2   5
BRANCH   1  23
ATOM     19  C   UNL     1      -4.072  11.483  18.393  0.00  0.00    +0.000 A 
ATOM     20  C   UNL     1      -4.312  10.570  17.355  0.00  0.00    +0.000 A 
ATOM     21  C   UNL     1      -3.265   9.886  16.743  0.00  0.00    +0.000 A 
ATOM     22  C   UNL     1      -1.956  10.176  17.098  0.00  0.00    +0.000 A 
ATOM     23  C   UNL     1      -1.698  11.167  18.039  0.00  0.00    +0.000 A 
ATOM     24  C   UNL     1      -2.743  11.756  18.751  0.00  0.00    +0.000 A 
BRANCH  19  30
ATOM     25  C   UNL     1      -6.352  13.155  16.978  0.00  0.00    +0.000 C 
ATOM     26  N   UNL     1      -6.109  13.014  18.387  0.00  0.00    +0.000 N 
ATOM     27  C   UNL     1      -6.871  13.565  19.377  0.00  0.00    +0.000 A 
ATOM     28  N   UNL     1      -6.452  13.149  20.540  0.00  0.00    +0.000 NA
ATOM     29  N   UNL     1      -5.389  12.312  20.320  0.00  0.00    +0.000 NA
ATOM     30  C   UNL     1      -5.154  12.244  19.019  0.00  0.00    +0.000 A 
ENDBRANCH  19  30
ENDBRANCH   1  23
TORSDOF 5
ENDMDL
MODEL 8
REMARK VINA RESULT:      -7.8      3.462      6.329
REMARK  Name = 
REMARK  6 active torsions:
REMARK  status: ('A' for Active; 'I' for Inactive)
REMARK    1  A    between atoms: C_1  and  N_2
REMARK    2  A    between atoms: C_6  and  C_7
REMARK    3  A    between atoms: C_11  and  N_12
REMARK    4  A    between atoms: C_13  and  C_15
REMARK    5  A    between atoms: C_20  and  C_22
REMARK    6  A    between atoms: C_22  and  C_23
REMARK                            x       y       z     vdW  Elec       q    Type
REMARK                         _______ _______ _______ _____ _____    ______ ____
ROOT
ATOM      1  N   UNL     1      -0.311  11.645  18.220  0.00  0.00    +0.000 N 
ATOM      2  C   UNL     1       0.480  11.285  19.284  0.00  0.00    +0.000 C 
ATOM      3  O   UNL     1       1.657  11.669  19.278  0.00  0.00    +0.000 OA
ATOM      4  H   UNL     1       0.227  12.031  17.452  0.00  0.00    +0.000 HD
ENDROOT
BRANCH   2   5
ATOM      5  C   UNL     1      -0.006  10.336  20.414  0.00  0.00    +0.000 C 
ATOM      6  C   UNL     1      -0.474  11.178  21.615  0.00  0.00    +0.000 C 
ATOM      7  C   UNL     1      -0.387  10.265  22.823  0.00  0.00    +0.000 C 
ATOM      8  C   UNL     1       0.585   9.167  22.428  0.00  0.00    +0.000 C 
ATOM      9  N   UNL     1       0.886   9.335  21.013  0.00  0.00    +0.000 N 
ATOM     10  C   UNL     1       1.485   8.253  20.372  0.00  0.00    +0.000 C 
ATOM     11  O   UNL     1       1.772   7.240  21.018  0.00  0.00    +0.000 OA
BRANCH  10  12
ATOM     12  C   UNL     1       1.774   8.350  18.875  0.00  0.00    +0.000 C 
BRANCH  12  13
ATOM     13  C   UNL     1       2.599   7.246  18.217  0.00  0.00    +0.000 A 
ATOM     14  C   UNL     1       3.839   7.434  17.589  0.00  0.00    +0.000 A 
ATOM     15  C   UNL     1       4.566   6.349  17.087  0.00  0.00    +0.000 A 
ATOM     16  C   UNL     1       4.057   5.058  17.179  0.00  0.00    +0.000 A 
ATOM     17  C   UNL     1       2.805   4.854  17.748  0.00  0.00    +0.000 A 
ATOM     18  C   UNL     1       2.083   5.937  18.257  0.00  0.00    +0.000 A 
ENDBRANCH  12  13
ENDBRANCH  10  12
ENDBRANCH   2   5
BRANCH   1  23
ATOM     19  C   UNL     1      -3.986  11.450  17.898  0.00  0.00    +0.000 A 
ATOM     20  C   UNL     1      -4.071  10.356  17.025  0.00  0.00    +0.000 A 
ATOM     21  C   UNL     1      -2.944   9.604  16.702  0.00  0.00    +0.000 A 
ATOM     22  C   UNL     1      -1.701   9.994  17.177  0.00  0.00    +0.000 A 
ATOM     23  C   UNL     1      -1.585  11.148  17.945  0.00  0.00    +0.000 A 
ATOM     24  C   UNL     1      -2.724  11.825  18.381  0.00  0.00    +0.000 A 
BRANCH  19  30
ATOM     25  C   UNL     1      -4.803  12.675  20.696  0.00  0.00    +0.000 C 
ATOM     26  N   UNL     1      -5.522  12.760  19.455  0.00  0.00    +0.000 N 
ATOM     27  C   UNL     1      -6.692  13.438  19.266  0.00  0.00    +0.000 A 
ATOM     28  N   UNL     1      -7.016  13.416  18.002  0.00  0.00    +0.000 NA
ATOM     29  N   UNL     1      -6.048  12.706  17.340  0.00  0.00    +0.000 NA
ATOM     30  C   UNL     1      -5.151  12.279  18.215  0.00  0.00    +0.000 A 
ENDBRANCH  19  30
ENDBRANCH   1  23
TORSDOF 5
ENDMDL
MODEL 9
REMARK VINA RESULT:      -7.8      3.434      6.226
REMARK  Name = 
REMARK  6 active torsions:
REMARK  status: ('A' for Active; 'I' for Inactive)
REMARK    1  A    between atoms: C_1  and  N_2
REMARK    2  A    between atoms: C_6  and  C_7
REMARK    3  A    between atoms: C_11  and  N_12
REMARK    4  A    between atoms: C_13  and  C_15
REMARK    5  A    between atoms: C_20  and  C_22
REMARK    6  A    between atoms: C_22  and  C_23
REMARK                            x       y       z     vdW  Elec       q    Type
REMARK                         _______ _______ _______ _____ _____    ______ ____
ROOT
ATOM      1  N   UNL     1      -0.384  11.509  18.067  0.00  0.00    +0.000 N 
ATOM      2  C   UNL     1       0.435  11.146  19.109  0.00  0.00    +0.000 C 
ATOM      3  O   UNL     1       1.623  11.488  19.051  0.00  0.00    +0.000 OA
ATOM      4  H   UNL     1       0.138  11.858  17.270  0.00  0.00    +0.000 HD
ENDROOT
BRANCH   2   5
ATOM      5  C   UNL     1      -0.040  10.241  20.280  0.00  0.00    +0.000 C 
ATOM      6  C   UNL     1      -0.525  11.129  21.441  0.00  0.00    +0.000 C 
ATOM      7  C   UNL     1      -0.428  10.272  22.689  0.00  0.00    +0.000 C 
ATOM      8  C   UNL     1       0.562   9.173  22.346  0.00  0.00    +0.000 C 
ATOM      9  N   UNL     1       0.865   9.282  20.926  0.00  0.00    +0.000 N 
ATOM     10  C   UNL     1       1.483   8.182  20.336  0.00  0.00    +0.000 C 
ATOM     11  O   UNL     1       1.784   7.204  21.027  0.00  0.00    +0.000 OA
BRANCH  10  12
ATOM     12  C   UNL     1       1.776   8.216  18.836  0.00  0.00    +0.000 C 
BRANCH  12  13
ATOM     13  C   UNL     1       2.646   7.114  18.236  0.00  0.00    +0.000 A 
ATOM     14  C   UNL     1       2.321   5.750  18.224  0.00  0.00    +0.000 A 
ATOM     15  C   UNL     1       3.140   4.819  17.575  0.00  0.00    +0.000 A 
ATOM     16  C   UNL     1       4.312   5.228  16.947  0.00  0.00    +0.000 A 
ATOM     17  C   UNL     1       4.682   6.569  16.994  0.00  0.00    +0.000 A 
ATOM     18  C   UNL     1       3.860   7.499  17.636  0.00  0.00    +0.000 A 
ENDBRANCH  12  13
ENDBRANCH  10  12
ENDBRANCH   2   5
BRANCH   1  23
ATOM     19  C   UNL     1      -4.067  11.264  18.216  0.00  0.00    +0.000 A 
ATOM     20  C   UNL     1      -4.274  10.425  17.111  0.00  0.00    +0.000 A 
ATOM     21  C   UNL     1      -3.204   9.823  16.454  0.00  0.00    +0.000 A 
ATOM     22  C   UNL     1      -1.907  10.126  16.838  0.00  0.00    +0.000 A 
ATOM     23  C   UNL     1      -1.683  11.050  17.852  0.00  0.00    +0.000 A 
ATOM     24  C   UNL     1      -2.748  11.551  18.600  0.00  0.00    +0.000 A 
BRANCH  19  30
ATOM     25  C   UNL     1      -6.816  10.027  19.171  0.00  0.00    +0.000 C 
ATOM     26  N   UNL     1      -6.391  11.397  19.253  0.00  0.00    +0.000 N 
ATOM     27  C   UNL     1      -7.113  12.415  19.810  0.00  0.00    +0.000 A 
ATOM     28  N   UNL     1      -6.396  13.504  19.830  0.00  0.00    +0.000 NA
ATOM     29  N   UNL     1      -5.180  13.209  19.272  0.00  0.00    +0.000 NA
ATOM     30  C   UNL     1      -5.175  11.941  18.892  0.00  0.00    +0.000 A 
ENDBRANCH  19  30
ENDBRANCH   1  23
TORSDOF 5
ENDMDL
