MODEL 1
REMARK VINA RESULT:      -8.3      0.000      0.000
REMARK  Name = 
REMARK  4 active torsions:
REMARK  status: ('A' for Active; 'I' for Inactive)
REMARK    1  A    between atoms: N_3  and  C_4
REMARK    2  A    between atoms: C_4  and  C_5
REMARK    3  A    between atoms: C_15  and  C_16
REMARK    4  A    between atoms: C_19  and  C_20
REMARK                            x       y       z     vdW  Elec       q    Type
REMARK                         _______ _______ _______ _____ _____    ______ ____
ROOT
ATOM      1  O   UNL     1       2.242   7.463  17.814  0.00  0.00    +0.000 OA
ATOM      2  C   UNL     1       2.159   7.766  19.003  0.00  0.00    +0.000 C 
ATOM      3  N   UNL     1       2.781   7.035  19.977  0.00  0.00    +0.000 N 
ATOM      4  N   UNL     1       1.446   8.863  19.456  0.00  0.00    +0.000 N 
ATOM      5  C   UNL     1       1.476   9.401  20.818  0.00  0.00    +0.000 C 
ATOM      6  C   UNL     1       0.051   9.689  21.289  0.00  0.00    +0.000 C 
ATOM      7  C   UNL     1      -0.696  10.637  20.338  0.00  0.00    +0.000 C 
ATOM      8  C   UNL     1      -0.589  10.145  18.885  0.00  0.00    +0.000 C 
ATOM      9  C   UNL     1       0.838   9.764  18.476  0.00  0.00    +0.000 C 
ATOM     10  H   UNL     1       2.356   7.035  20.884  0.00  0.00    +0.000 HD
ENDROOT
BRANCH   7  11
ATOM     11  C   UNL     1      -0.179  12.040  20.476  0.00  0.00    +0.000 A 
ATOM     12  N   UNL     1       0.230  12.595  21.594  0.00  0.00    +0.000 NA
ATOM     13  C   UNL     1       0.595  13.863  21.274  0.00  0.00    +0.000 A 
ATOM     14  C   UNL     1       0.430  14.111  19.925  0.00  0.00    +0.000 A 
ATOM     15  N   UNL     1      -0.084  12.931  19.432  0.00  0.00    +0.000 N 
ATOM     16  H   UNL     1      -0.322  12.740  18.469  0.00  0.00    +0.000 HD
BRANCH  14  17
ATOM     17  C   UNL     1       0.724  15.314  19.159  0.00  0.00    +0.000 A 
ATOM     18  C   UNL     1      -0.333  16.174  18.811  0.00  0.00    +0.000 A 
ATOM     19  C   UNL     1      -0.115  17.294  18.007  0.00  0.00    +0.000 A 
ATOM     20  C   UNL     1       1.167  17.561  17.551  0.00  0.00    +0.000 A 
ATOM     21  F   UNL     1       1.375  18.622  16.759  0.00  0.00    +0.000 F 
ATOM     22  C   UNL     1       2.225  16.729  17.905  0.00  0.00    +0.000 A 
ATOM     23  F   UNL     1       3.462  16.990  17.460  0.00  0.00    +0.000 F 
ATOM     24  C   UNL     1       2.014  15.608  18.708  0.00  0.00    +0.000 A 
ENDBRANCH  14  17
ENDBRANCH   7  11
BRANCH   3  25
ATOM     25  C   UNL     1       3.548   5.850  19.666  0.00  0.00    +0.000 C 
BRANCH  25  26
ATOM     26  C   UNL     1       2.630   4.685  19.396  0.00  0.00    +0.000 A 
ATOM     27  C   UNL     1       1.644   4.304  20.321  0.00  0.00    +0.000 A 
ATOM     28  C   UNL     1       0.786   3.238  20.037  0.00  0.00    +0.000 A 
ATOM     29  C   UNL     1       0.914   2.551  18.835  0.00  0.00    +0.000 A 
ATOM     30  F   UNL     1       0.082   1.537  18.563  0.00  0.00    +0.000 F 
ATOM     31  C   UNL     1       1.891   2.902  17.913  0.00  0.00    +0.000 A 
ATOM     32  C   UNL     1       2.750   3.965  18.194  0.00  0.00    +0.000 A 
ENDBRANCH  25  26
ENDBRANCH   3  25
TORSDOF 4
ENDMDL
MODEL 2
REMARK VINA RESULT:      -8.0      4.555     10.133
REMARK  Name = 
REMARK  4 active torsions:
REMARK  status: ('A' for Active; 'I' for Inactive)
REMARK    1  A    between atoms: N_3  and  C_4
REMARK    2  A    between atoms: C_4  and  C_5
REMARK    3  A    between atoms: C_15  and  C_16
REMARK    4  A    between atoms: C_19  and  C_20
REMARK                            x       y       z     vdW  Elec       q    Type
REMARK                         _______ _______ _______ _____ _____    ______ ____
ROOT
ATOM      1  O   UNL     1       1.830   8.504  21.312  0.00  0.00    +0.000 OA
ATOM      2  C   UNL     1       1.593   8.206  20.143  0.00  0.00    +0.000 C 
ATOM      3  N   UNL     1       0.771   8.966  19.359  0.00  0.00    +0.000 N 
ATOM      4  N   UNL     1       2.135   7.093  19.522  0.00  0.00    +0.000 N 
ATOM      5  C   UNL     1       2.066   6.793  18.090  0.00  0.00    +0.000 C 
ATOM      6  C   UNL     1       1.680   5.329  17.889  0.00  0.00    +0.000 C 
ATOM      7  C   UNL     1       2.640   4.369  18.607  0.00  0.00    +0.000 C 
ATOM      8  C   UNL     1       2.828   4.785  20.076  0.00  0.00    +0.000 C 
ATOM      9  C   UNL     1       3.110   6.282  20.252  0.00  0.00    +0.000 C 
ATOM     10  H   UNL     1       0.276   8.492  18.628  0.00  0.00    +0.000 HD
ENDROOT
BRANCH   7  11
ATOM     11  C   UNL     1       3.958   4.303  17.889  0.00  0.00    +0.000 A 
ATOM     12  N   UNL     1       5.136   4.228  18.465  0.00  0.00    +0.000 NA
ATOM     13  C   UNL     1       6.046   4.205  17.458  0.00  0.00    +0.000 A 
ATOM     14  C   UNL     1       5.433   4.250  16.221  0.00  0.00    +0.000 A 
ATOM     15  N   UNL     1       4.090   4.329  16.521  0.00  0.00    +0.000 N 
ATOM     16  H   UNL     1       3.331   4.368  15.854  0.00  0.00    +0.000 HD
BRANCH  14  17
ATOM     17  C   UNL     1       6.023   4.215  14.890  0.00  0.00    +0.000 A 
ATOM     18  C   UNL     1       7.164   4.997  14.632  0.00  0.00    +0.000 A 
ATOM     19  C   UNL     1       7.715   5.063  13.351  0.00  0.00    +0.000 A 
ATOM     20  C   UNL     1       7.129   4.340  12.322  0.00  0.00    +0.000 A 
ATOM     21  F   UNL     1       7.643   4.421  11.088  0.00  0.00    +0.000 F 
ATOM     22  C   UNL     1       6.013   3.548  12.570  0.00  0.00    +0.000 A 
ATOM     23  F   UNL     1       5.447   2.853  11.573  0.00  0.00    +0.000 F 
ATOM     24  C   UNL     1       5.455   3.477  13.847  0.00  0.00    +0.000 A 
ENDBRANCH  14  17
ENDBRANCH   7  11
BRANCH   3  25
ATOM     25  C   UNL     1       0.114  10.148  19.868  0.00  0.00    +0.000 C 
BRANCH  25  26
ATOM     26  C   UNL     1      -1.025  10.548  18.963  0.00  0.00    +0.000 A 
ATOM     27  C   UNL     1      -1.929  11.557  19.334  0.00  0.00    +0.000 A 
ATOM     28  C   UNL     1      -2.960  11.931  18.468  0.00  0.00    +0.000 A 
ATOM     29  C   UNL     1      -3.091  11.297  17.237  0.00  0.00    +0.000 A 
ATOM     30  F   UNL     1      -4.075  11.667  16.406  0.00  0.00    +0.000 F 
ATOM     31  C   UNL     1      -2.217  10.287  16.857  0.00  0.00    +0.000 A 
ATOM     32  C   UNL     1      -1.187   9.912  17.721  0.00  0.00    +0.000 A 
ENDBRANCH  25  26
ENDBRANCH   3  25
TORSDOF 4
ENDMDL
MODEL 3
REMARK VINA RESULT:      -7.9      4.681     10.030
REMARK  Name = 
REMARK  4 active torsions:
REMARK  status: ('A' for Active; 'I' for Inactive)
REMARK    1  A    between atoms: N_3  and  C_4
REMARK    2  A    between atoms: C_4  and  C_5
REMARK    3  A    between atoms: C_15  and  C_16
REMARK    4  A    between atoms: C_19  and  C_20
REMARK                            x       y       z     vdW  Elec       q    Type
REMARK                         _______ _______ _______ _____ _____    ______ ____
ROOT
ATOM      1  O   UNL     1       1.907   8.232  21.630  0.00  0.00    +0.000 OA
ATOM      2  C   UNL     1       1.668   8.075  20.434  0.00  0.00    +0.000 C 
ATOM      3  N   UNL     1       0.901   8.962  19.731  0.00  0.00    +0.000 N 
ATOM      4  N   UNL     1       2.155   7.006  19.700  0.00  0.00    +0.000 N 
ATOM      5  C   UNL     1       2.088   6.867  18.244  0.00  0.00    +0.000 C 
ATOM      6  C   UNL     1       1.622   5.457  17.883  0.00  0.00    +0.000 C 
ATOM      7  C   UNL     1       2.516   4.371  18.500  0.00  0.00    +0.000 C 
ATOM      8  C   UNL     1       2.708   4.616  20.007  0.00  0.00    +0.000 C 
ATOM      9  C   UNL     1       3.073   6.066  20.345  0.00  0.00    +0.000 C 
ATOM     10  H   UNL     1       0.390   8.598  18.950  0.00  0.00    +0.000 HD
ENDROOT
BRANCH   7  11
ATOM     11  C   UNL     1       3.837   4.307  17.788  0.00  0.00    +0.000 A 
ATOM     12  N   UNL     1       5.007   4.161  18.367  0.00  0.00    +0.000 NA
ATOM     13  C   UNL     1       5.925   4.169  17.366  0.00  0.00    +0.000 A 
ATOM     14  C   UNL     1       5.325   4.307  16.130  0.00  0.00    +0.000 A 
ATOM     15  N   UNL     1       3.982   4.410  16.425  0.00  0.00    +0.000 N 
ATOM     16  H   UNL     1       3.231   4.512  15.756  0.00  0.00    +0.000 HD
BRANCH  14  17
ATOM     17  C   UNL     1       5.925   4.332  14.803  0.00  0.00    +0.000 A 
ATOM     18  C   UNL     1       5.370   3.527  13.791  0.00  0.00    +0.000 A 
ATOM     19  C   UNL     1       5.959   3.452  12.528  0.00  0.00    +0.000 A 
ATOM     20  C   UNL     1       7.107   4.188  12.271  0.00  0.00    +0.000 A 
ATOM     21  F   UNL     1       7.687   4.099  11.067  0.00  0.00    +0.000 F 
ATOM     22  C   UNL     1       7.653   5.003  13.257  0.00  0.00    +0.000 A 
ATOM     23  F   UNL     1       8.763   5.710  13.005  0.00  0.00    +0.000 F 
ATOM     24  C   UNL     1       7.070   5.083  14.522  0.00  0.00    +0.000 A 
ENDBRANCH  14  17
ENDBRANCH   7  11
BRANCH   3  25
ATOM     25  C   UNL     1       0.306  10.118  20.360  0.00  0.00    +0.000 C 
BRANCH  25  26
ATOM     26  C   UNL     1      -0.885  10.595  19.567  0.00  0.00    +0.000 A 
ATOM     27  C   UNL     1      -1.633  11.711  19.975  0.00  0.00    +0.000 A 
ATOM     28  C   UNL     1      -2.715  12.152  19.209  0.00  0.00    +0.000 A 
ATOM     29  C   UNL     1      -3.053  11.478  18.041  0.00  0.00    +0.000 A 
ATOM     30  F   UNL     1      -4.085  11.911  17.305  0.00  0.00    +0.000 F 
ATOM     31  C   UNL     1      -2.336  10.364  17.626  0.00  0.00    +0.000 A 
ATOM     32  C   UNL     1      -1.255   9.921  18.390  0.00  0.00    +0.000 A 
ENDBRANCH  25  26
ENDBRANCH   3  25
TORSDOF 4
ENDMDL
MODEL 4
REMARK VINA RESULT:      -7.9      4.553      5.773
REMARK  Name = 
REMARK  4 active torsions:
REMARK  status: ('A' for Active; 'I' for Inactive)
REMARK    1  A    between atoms: N_3  and  C_4
REMARK    2  A    between atoms: C_4  and  C_5
REMARK    3  A    between atoms: C_15  and  C_16
REMARK    4  A    between atoms: C_19  and  C_20
REMARK                            x       y       z     vdW  Elec       q    Type
REMARK                         _______ _______ _______ _____ _____    ______ ____
ROOT
ATOM      1  O   UNL     1       1.965   6.722  20.920  0.00  0.00    +0.000 OA
ATOM      2  C   UNL     1       2.021   7.355  19.868  0.00  0.00    +0.000 C 
ATOM      3  N   UNL     1       2.703   6.884  18.780  0.00  0.00    +0.000 N 
ATOM      4  N   UNL     1       1.402   8.581  19.689  0.00  0.00    +0.000 N 
ATOM      5  C   UNL     1       1.250   9.286  18.414  0.00  0.00    +0.000 C 
ATOM      6  C   UNL     1       1.617  10.758  18.594  0.00  0.00    +0.000 C 
ATOM      7  C   UNL     1       0.791  11.434  19.699  0.00  0.00    +0.000 C 
ATOM      8  C   UNL     1       0.829  10.602  20.992  0.00  0.00    +0.000 C 
ATOM      9  C   UNL     1       0.561   9.111  20.763  0.00  0.00    +0.000 C 
ATOM     10  H   UNL     1       3.083   7.568  18.153  0.00  0.00    +0.000 HD
ENDROOT
BRANCH   7  11
ATOM     11  C   UNL     1      -0.621  11.660  19.240  0.00  0.00    +0.000 A 
ATOM     12  N   UNL     1      -1.033  11.621  17.993  0.00  0.00    +0.000 NA
ATOM     13  C   UNL     1      -2.363  11.893  18.028  0.00  0.00    +0.000 A 
ATOM     14  C   UNL     1      -2.806  12.092  19.321  0.00  0.00    +0.000 A 
ATOM     15  N   UNL     1      -1.666  11.953  20.085  0.00  0.00    +0.000 N 
ATOM     16  H   UNL     1      -1.611  12.024  21.091  0.00  0.00    +0.000 HD
BRANCH  14  17
ATOM     17  C   UNL     1      -4.148  12.374  19.810  0.00  0.00    +0.000 A 
ATOM     18  C   UNL     1      -4.307  12.830  21.131  0.00  0.00    +0.000 A 
ATOM     19  C   UNL     1      -5.578  13.033  21.673  0.00  0.00    +0.000 A 
ATOM     20  C   UNL     1      -6.696  12.784  20.891  0.00  0.00    +0.000 A 
ATOM     21  F   UNL     1      -7.916  12.956  21.417  0.00  0.00    +0.000 F 
ATOM     22  C   UNL     1      -6.550  12.352  19.577  0.00  0.00    +0.000 A 
ATOM     23  F   UNL     1      -7.634  12.110  18.826  0.00  0.00    +0.000 F 
ATOM     24  C   UNL     1      -5.284  12.146  19.028  0.00  0.00    +0.000 A 
ENDBRANCH  14  17
ENDBRANCH   7  11
BRANCH   3  25
ATOM     25  C   UNL     1       3.417   5.629  18.815  0.00  0.00    +0.000 C 
BRANCH  25  26
ATOM     26  C   UNL     1       4.216   5.442  17.549  0.00  0.00    +0.000 A 
ATOM     27  C   UNL     1       4.626   4.167  17.128  0.00  0.00    +0.000 A 
ATOM     28  C   UNL     1       5.340   4.014  15.937  0.00  0.00    +0.000 A 
ATOM     29  C   UNL     1       5.649   5.132  15.170  0.00  0.00    +0.000 A 
ATOM     30  F   UNL     1       6.325   4.979  14.024  0.00  0.00    +0.000 F 
ATOM     31  C   UNL     1       5.266   6.404  15.575  0.00  0.00    +0.000 A 
ATOM     32  C   UNL     1       4.553   6.559  16.765  0.00  0.00    +0.000 A 
ENDBRANCH  25  26
ENDBRANCH   3  25
TORSDOF 4
ENDMDL
MODEL 5
REMARK VINA RESULT:      -7.9      4.819     10.171
REMARK  Name = 
REMARK  4 active torsions:
REMARK  status: ('A' for Active; 'I' for Inactive)
REMARK    1  A    between atoms: N_3  and  C_4
REMARK    2  A    between atoms: C_4  and  C_5
REMARK    3  A    between atoms: C_15  and  C_16
REMARK    4  A    between atoms: C_19  and  C_20
REMARK                            x       y       z     vdW  Elec       q    Type
REMARK                         _______ _______ _______ _____ _____    ______ ____
ROOT
ATOM      1  O   UNL     1      -3.050  11.284  17.441  0.00  0.00    +0.000 OA
ATOM      2  C   UNL     1      -2.574  11.286  18.575  0.00  0.00    +0.000 C 
ATOM      3  N   UNL     1      -3.209  11.893  19.622  0.00  0.00    +0.000 N 
ATOM      4  N   UNL     1      -1.372  10.674  18.890  0.00  0.00    +0.000 N 
ATOM      5  C   UNL     1      -0.851  10.457  20.241  0.00  0.00    +0.000 C 
ATOM      6  C   UNL     1       0.623  10.855  20.295  0.00  0.00    +0.000 C 
ATOM      7  C   UNL     1       1.467  10.107  19.252  0.00  0.00    +0.000 C 
ATOM      8  C   UNL     1       0.826  10.212  17.858  0.00  0.00    +0.000 C 
ATOM      9  C   UNL     1      -0.676   9.908  17.855  0.00  0.00    +0.000 C 
ATOM     10  H   UNL     1      -2.631  12.245  20.360  0.00  0.00    +0.000 HD
ENDROOT
BRANCH   7  11
ATOM     11  C   UNL     1       1.658   8.673  19.656  0.00  0.00    +0.000 A 
ATOM     12  N   UNL     1       1.362   8.167  20.831  0.00  0.00    +0.000 NA
ATOM     13  C   UNL     1       1.704   6.854  20.772  0.00  0.00    +0.000 A 
ATOM     14  C   UNL     1       2.212   6.519  19.532  0.00  0.00    +0.000 A 
ATOM     15  N   UNL     1       2.189   7.707  18.833  0.00  0.00    +0.000 N 
ATOM     16  H   UNL     1       2.481   7.841  17.875  0.00  0.00    +0.000 HD
BRANCH  14  17
ATOM     17  C   UNL     1       2.667   5.229  19.032  0.00  0.00    +0.000 A 
ATOM     18  C   UNL     1       2.096   4.717  17.853  0.00  0.00    +0.000 A 
ATOM     19  C   UNL     1       2.437   3.449  17.380  0.00  0.00    +0.000 A 
ATOM     20  C   UNL     1       3.357   2.687  18.086  0.00  0.00    +0.000 A 
ATOM     21  F   UNL     1       3.668   1.461  17.646  0.00  0.00    +0.000 F 
ATOM     22  C   UNL     1       3.944   3.191  19.242  0.00  0.00    +0.000 A 
ATOM     23  F   UNL     1       4.830   2.451  19.922  0.00  0.00    +0.000 F 
ATOM     24  C   UNL     1       3.608   4.457  19.721  0.00  0.00    +0.000 A 
ENDBRANCH  14  17
ENDBRANCH   7  11
BRANCH   3  25
ATOM     25  C   UNL     1      -4.463  12.590  19.449  0.00  0.00    +0.000 C 
BRANCH  25  26
ATOM     26  C   UNL     1      -5.225  12.632  20.750  0.00  0.00    +0.000 A 
ATOM     27  C   UNL     1      -4.588  12.961  21.958  0.00  0.00    +0.000 A 
ATOM     28  C   UNL     1      -5.321  13.021  23.146  0.00  0.00    +0.000 A 
ATOM     29  C   UNL     1      -6.684  12.750  23.131  0.00  0.00    +0.000 A 
ATOM     30  F   UNL     1      -7.384  12.820  24.271  0.00  0.00    +0.000 F 
ATOM     31  C   UNL     1      -7.331  12.410  21.950  0.00  0.00    +0.000 A 
ATOM     32  C   UNL     1      -6.602  12.348  20.762  0.00  0.00    +0.000 A 
ENDBRANCH  25  26
ENDBRANCH   3  25
TORSDOF 4
ENDMDL
MODEL 6
REMARK VINA RESULT:      -7.8      4.699      5.958
REMARK  Name = 
REMARK  4 active torsions:
REMARK  status: ('A' for Active; 'I' for Inactive)
REMARK    1  A    between atoms: N_3  and  C_4
REMARK    2  A    between atoms: C_4  and  C_5
REMARK    3  A    between atoms: C_15  and  C_16
REMARK    4  A    between atoms: C_19  and  C_20
REMARK                            x       y       z     vdW  Elec       q    Type
REMARK                         _______ _______ _______ _____ _____    ______ ____
ROOT
ATOM      1  O   UNL     1       2.051   6.852  20.512  0.00  0.00    +0.000 OA
ATOM      2  C   UNL     1       1.839   7.629  19.584  0.00  0.00    +0.000 C 
ATOM      3  N   UNL     1       2.108   7.292  18.287  0.00  0.00    +0.000 N 
ATOM      4  N   UNL     1       1.308   8.896  19.765  0.00  0.00    +0.000 N 
ATOM      5  C   UNL     1       0.837   9.786  18.703  0.00  0.00    +0.000 C 
ATOM      6  C   UNL     1       1.373  11.198  18.939  0.00  0.00    +0.000 C 
ATOM      7  C   UNL     1       0.991  11.742  20.324  0.00  0.00    +0.000 C 
ATOM      8  C   UNL     1       1.349  10.728  21.424  0.00  0.00    +0.000 C 
ATOM      9  C   UNL     1       0.889   9.300  21.108  0.00  0.00    +0.000 C 
ATOM     10  H   UNL     1       2.338   8.042  17.662  0.00  0.00    +0.000 HD
ENDROOT
BRANCH   7  11
ATOM     11  C   UNL     1      -0.468  12.098  20.368  0.00  0.00    +0.000 A 
ATOM     12  N   UNL     1      -1.193  12.468  19.337  0.00  0.00    +0.000 NA
ATOM     13  C   UNL     1      -2.439  12.707  19.821  0.00  0.00    +0.000 A 
ATOM     14  C   UNL     1      -2.509  12.470  21.180  0.00  0.00    +0.000 A 
ATOM     15  N   UNL     1      -1.226  12.094  21.516  0.00  0.00    +0.000 N 
ATOM     16  H   UNL     1      -0.903  11.832  22.437  0.00  0.00    +0.000 HD
BRANCH  14  17
ATOM     17  C   UNL     1      -3.647  12.569  22.083  0.00  0.00    +0.000 A 
ATOM     18  C   UNL     1      -4.905  12.913  21.555  0.00  0.00    +0.000 A 
ATOM     19  C   UNL     1      -6.007  13.103  22.390  0.00  0.00    +0.000 A 
ATOM     20  C   UNL     1      -5.855  12.946  23.760  0.00  0.00    +0.000 A 
ATOM     21  F   UNL     1      -6.906  13.151  24.564  0.00  0.00    +0.000 F 
ATOM     22  C   UNL     1      -4.621  12.587  24.291  0.00  0.00    +0.000 A 
ATOM     23  F   UNL     1      -4.478  12.438  25.615  0.00  0.00    +0.000 F 
ATOM     24  C   UNL     1      -3.515  12.395  23.463  0.00  0.00    +0.000 A 
ENDBRANCH  14  17
ENDBRANCH   7  11
BRANCH   3  25
ATOM     25  C   UNL     1       2.682   6.014  17.937  0.00  0.00    +0.000 C 
BRANCH  25  26
ATOM     26  C   UNL     1       4.182   6.051  18.088  0.00  0.00    +0.000 A 
ATOM     27  C   UNL     1       4.829   5.342  19.114  0.00  0.00    +0.000 A 
ATOM     28  C   UNL     1       6.222   5.368  19.218  0.00  0.00    +0.000 A 
ATOM     29  C   UNL     1       6.968   6.103  18.303  0.00  0.00    +0.000 A 
ATOM     30  F   UNL     1       8.304   6.115  18.400  0.00  0.00    +0.000 F 
ATOM     31  C   UNL     1       6.348   6.821  17.289  0.00  0.00    +0.000 A 
ATOM     32  C   UNL     1       4.957   6.798  17.184  0.00  0.00    +0.000 A 
ENDBRANCH  25  26
ENDBRANCH   3  25
TORSDOF 4
ENDMDL
MODEL 7
REMARK VINA RESULT:      -7.8      1.526      1.717
REMARK  Name = 
REMARK  4 active torsions:
REMARK  status: ('A' for Active; 'I' for Inactive)
REMARK    1  A    between atoms: N_3  and  C_4
REMARK    2  A    between atoms: C_4  and  C_5
REMARK    3  A    between atoms: C_15  and  C_16
REMARK    4  A    between atoms: C_19  and  C_20
REMARK                            x       y       z     vdW  Elec       q    Type
REMARK                         _______ _______ _______ _____ _____    ______ ____
ROOT
ATOM      1  O   UNL     1       2.631   7.318  17.739  0.00  0.00    +0.000 OA
ATOM      2  C   UNL     1       2.283   7.668  18.865  0.00  0.00    +0.000 C 
ATOM      3  N   UNL     1       2.648   6.970  19.982  0.00  0.00    +0.000 N 
ATOM      4  N   UNL     1       1.507   8.791  19.101  0.00  0.00    +0.000 N 
ATOM      5  C   UNL     1       1.233   9.382  20.412  0.00  0.00    +0.000 C 
ATOM      6  C   UNL     1      -0.256   9.705  20.530  0.00  0.00    +0.000 C 
ATOM      7  C   UNL     1      -0.744  10.623  19.399  0.00  0.00    +0.000 C 
ATOM      8  C   UNL     1      -0.315  10.073  18.028  0.00  0.00    +0.000 C 
ATOM      9  C   UNL     1       1.160   9.659  17.974  0.00  0.00    +0.000 C 
ATOM     10  H   UNL     1       2.025   7.010  20.765  0.00  0.00    +0.000 HD
ENDROOT
BRANCH   7  11
ATOM     11  C   UNL     1      -0.244  12.025  19.602  0.00  0.00    +0.000 A 
ATOM     12  N   UNL     1      -0.904  12.990  20.200  0.00  0.00    +0.000 NA
ATOM     13  C   UNL     1      -0.099  14.082  20.151  0.00  0.00    +0.000 A 
ATOM     14  C   UNL     1       1.099  13.801  19.524  0.00  0.00    +0.000 A 
ATOM     15  N   UNL     1       0.979  12.475  19.164  0.00  0.00    +0.000 N 
ATOM     16  H   UNL     1       1.679  11.921  18.689  0.00  0.00    +0.000 HD
BRANCH  14  17
ATOM     17  C   UNL     1       2.248  14.663  19.286  0.00  0.00    +0.000 A 
ATOM     18  C   UNL     1       2.264  15.947  19.860  0.00  0.00    +0.000 A 
ATOM     19  C   UNL     1       3.302  16.841  19.593  0.00  0.00    +0.000 A 
ATOM     20  C   UNL     1       4.334  16.450  18.752  0.00  0.00    +0.000 A 
ATOM     21  F   UNL     1       5.318  17.315  18.476  0.00  0.00    +0.000 F 
ATOM     22  C   UNL     1       4.339  15.176  18.195  0.00  0.00    +0.000 A 
ATOM     23  F   UNL     1       5.336  14.803  17.380  0.00  0.00    +0.000 F 
ATOM     24  C   UNL     1       3.305  14.277  18.457  0.00  0.00    +0.000 A 
ENDBRANCH  14  17
ENDBRANCH   7  11
BRANCH   3  25
ATOM     25  C   UNL     1       3.442   5.765  19.899  0.00  0.00    +0.000 C 
BRANCH  25  26
ATOM     26  C   UNL     1       2.574   4.587  19.533  0.00  0.00    +0.000 A 
ATOM     27  C   UNL     1       1.503   4.189  20.350  0.00  0.00    +0.000 A 
ATOM     28  C   UNL     1       0.695   3.112  19.976  0.00  0.00    +0.000 A 
ATOM     29  C   UNL     1       0.958   2.431  18.793  0.00  0.00    +0.000 A 
ATOM     30  F   UNL     1       0.173   1.405  18.434  0.00  0.00    +0.000 F 
ATOM     31  C   UNL     1       2.020   2.798  17.978  0.00  0.00    +0.000 A 
ATOM     32  C   UNL     1       2.829   3.873  18.349  0.00  0.00    +0.000 A 
ENDBRANCH  25  26
ENDBRANCH   3  25
TORSDOF 4
ENDMDL
MODEL 8
REMARK VINA RESULT:      -7.8      4.673      6.067
REMARK  Name = 
REMARK  4 active torsions:
REMARK  status: ('A' for Active; 'I' for Inactive)
REMARK    1  A    between atoms: N_3  and  C_4
REMARK    2  A    between atoms: C_4  and  C_5
REMARK    3  A    between atoms: C_15  and  C_16
REMARK    4  A    between atoms: C_19  and  C_20
REMARK                            x       y       z     vdW  Elec       q    Type
REMARK                         _______ _______ _______ _____ _____    ______ ____
ROOT
ATOM      1  O   UNL     1       1.926   6.704  20.620  0.00  0.00    +0.000 OA
ATOM      2  C   UNL     1       1.770   7.500  19.696  0.00  0.00    +0.000 C 
ATOM      3  N   UNL     1       2.114   7.186  18.411  0.00  0.00    +0.000 N 
ATOM      4  N   UNL     1       1.231   8.764  19.869  0.00  0.00    +0.000 N 
ATOM      5  C   UNL     1       0.824   9.675  18.798  0.00  0.00    +0.000 C 
ATOM      6  C   UNL     1       1.347  11.080  19.092  0.00  0.00    +0.000 C 
ATOM      7  C   UNL     1       0.884  11.599  20.462  0.00  0.00    +0.000 C 
ATOM      8  C   UNL     1       1.176  10.564  21.562  0.00  0.00    +0.000 C 
ATOM      9  C   UNL     1       0.734   9.144  21.192  0.00  0.00    +0.000 C 
ATOM     10  H   UNL     1       2.381   7.946  17.815  0.00  0.00    +0.000 HD
ENDROOT
BRANCH   7  11
ATOM     11  C   UNL     1      -0.573  11.958  20.427  0.00  0.00    +0.000 A 
ATOM     12  N   UNL     1      -1.277  12.179  19.340  0.00  0.00    +0.000 NA
ATOM     13  C   UNL     1      -2.532  12.484  19.761  0.00  0.00    +0.000 A 
ATOM     14  C   UNL     1      -2.629  12.441  21.138  0.00  0.00    +0.000 A 
ATOM     15  N   UNL     1      -1.354  12.116  21.548  0.00  0.00    +0.000 N 
ATOM     16  H   UNL     1      -1.050  11.986  22.503  0.00  0.00    +0.000 HD
BRANCH  14  17
ATOM     17  C   UNL     1      -3.784  12.666  21.995  0.00  0.00    +0.000 A 
ATOM     18  C   UNL     1      -3.613  12.623  23.391  0.00  0.00    +0.000 A 
ATOM     19  C   UNL     1      -4.703  12.749  24.253  0.00  0.00    +0.000 A 
ATOM     20  C   UNL     1      -5.972  12.924  23.721  0.00  0.00    +0.000 A 
ATOM     21  F   UNL     1      -7.022  13.021  24.546  0.00  0.00    +0.000 F 
ATOM     22  C   UNL     1      -6.151  12.988  22.343  0.00  0.00    +0.000 A 
ATOM     23  F   UNL     1      -7.379  13.155  21.832  0.00  0.00    +0.000 F 
ATOM     24  C   UNL     1      -5.066  12.863  21.474  0.00  0.00    +0.000 A 
ENDBRANCH  14  17
ENDBRANCH   7  11
BRANCH   3  25
ATOM     25  C   UNL     1       2.706   5.913  18.071  0.00  0.00    +0.000 C 
BRANCH  25  26
ATOM     26  C   UNL     1       4.210   5.993  18.152  0.00  0.00    +0.000 A 
ATOM     27  C   UNL     1       4.948   6.774  17.248  0.00  0.00    +0.000 A 
ATOM     28  C   UNL     1       6.338   6.856  17.359  0.00  0.00    +0.000 A 
ATOM     29  C   UNL     1       6.992   6.156  18.367  0.00  0.00    +0.000 A 
ATOM     30  F   UNL     1       8.324   6.246  18.476  0.00  0.00    +0.000 F 
ATOM     31  C   UNL     1       6.283   5.366  19.262  0.00  0.00    +0.000 A 
ATOM     32  C   UNL     1       4.895   5.282  19.153  0.00  0.00    +0.000 A 
ENDBRANCH  25  26
ENDBRANCH   3  25
TORSDOF 4
ENDMDL
MODEL 9
REMARK VINA RESULT:      -7.8      4.804      9.990
REMARK  Name = 
REMARK  4 active torsions:
REMARK  status: ('A' for Active; 'I' for Inactive)
REMARK    1  A    between atoms: N_3  and  C_4
REMARK    2  A    between atoms: C_4  and  C_5
REMARK    3  A    between atoms: C_15  and  C_16
REMARK    4  A    between atoms: C_19  and  C_20
REMARK                            x       y       z     vdW  Elec       q    Type
REMARK                         _______ _______ _______ _____ _____    ______ ____
ROOT
ATOM      1  O   UNL     1       1.739   9.077  20.832  0.00  0.00    +0.000 OA
ATOM      2  C   UNL     1       1.490   8.634  19.713  0.00  0.00    +0.000 C 
ATOM      3  N   UNL     1       0.640   9.278  18.857  0.00  0.00    +0.000 N 
ATOM      4  N   UNL     1       2.046   7.465  19.221  0.00  0.00    +0.000 N 
ATOM      5  C   UNL     1       1.962   6.992  17.838  0.00  0.00    +0.000 C 
ATOM      6  C   UNL     1       1.603   5.507  17.822  0.00  0.00    +0.000 C 
ATOM      7  C   UNL     1       2.594   4.660  18.634  0.00  0.00    +0.000 C 
ATOM      8  C   UNL     1       2.795   5.255  20.038  0.00  0.00    +0.000 C 
ATOM      9  C   UNL     1       3.049   6.767  20.027  0.00  0.00    +0.000 C 
ATOM     10  H   UNL     1       0.145   8.709  18.197  0.00  0.00    +0.000 HD
ENDROOT
BRANCH   7  11
ATOM     11  C   UNL     1       3.902   4.532  17.906  0.00  0.00    +0.000 A 
ATOM     12  N   UNL     1       5.071   4.336  18.471  0.00  0.00    +0.000 NA
ATOM     13  C   UNL     1       5.976   4.298  17.458  0.00  0.00    +0.000 A 
ATOM     14  C   UNL     1       5.366   4.457  16.229  0.00  0.00    +0.000 A 
ATOM     15  N   UNL     1       4.033   4.622  16.540  0.00  0.00    +0.000 N 
ATOM     16  H   UNL     1       3.279   4.755  15.881  0.00  0.00    +0.000 HD
BRANCH  14  17
ATOM     17  C   UNL     1       5.950   4.449  14.895  0.00  0.00    +0.000 A 
ATOM     18  C   UNL     1       5.373   3.631  13.906  0.00  0.00    +0.000 A 
ATOM     19  C   UNL     1       5.945   3.524  12.638  0.00  0.00    +0.000 A 
ATOM     20  C   UNL     1       7.098   4.241  12.352  0.00  0.00    +0.000 A 
ATOM     21  F   UNL     1       7.662   4.122  11.143  0.00  0.00    +0.000 F 
ATOM     22  C   UNL     1       7.666   5.068  13.315  0.00  0.00    +0.000 A 
ATOM     23  F   UNL     1       8.781   5.757  13.035  0.00  0.00    +0.000 F 
ATOM     24  C   UNL     1       7.100   5.180  14.585  0.00  0.00    +0.000 A 
ENDBRANCH  14  17
ENDBRANCH   7  11
BRANCH   3  25
ATOM     25  C   UNL     1      -0.033  10.500  19.230  0.00  0.00    +0.000 C 
BRANCH  25  26
ATOM     26  C   UNL     1      -1.331  10.638  18.475  0.00  0.00    +0.000 A 
ATOM     27  C   UNL     1      -1.594   9.868  17.330  0.00  0.00    +0.000 A 
ATOM     28  C   UNL     1      -2.815   9.992  16.663  0.00  0.00    +0.000 A 
ATOM     29  C   UNL     1      -3.770  10.887  17.133  0.00  0.00    +0.000 A 
ATOM     30  F   UNL     1      -4.944  10.994  16.496  0.00  0.00    +0.000 F 
ATOM     31  C   UNL     1      -3.526  11.668  18.254  0.00  0.00    +0.000 A 
ATOM     32  C   UNL     1      -2.307  11.546  18.922  0.00  0.00    +0.000 A 
ENDBRANCH  25  26
ENDBRANCH   3  25
TORSDOF 4
ENDMDL
