MODEL 1
REMARK VINA RESULT:      -8.5      0.000      0.000
REMARK  Name = 
REMARK  4 active torsions:
REMARK  status: ('A' for Active; 'I' for Inactive)
REMARK    1  A    between atoms: C_1  and  C_2
REMARK    2  A    between atoms: C_4  and  N_5
REMARK    3  A    between atoms: C_6  and  C_8
REMARK    4  A    between atoms: C_24  and  C_25
REMARK                            x       y       z     vdW  Elec       q    Type
REMARK                         _______ _______ _______ _____ _____    ______ ____
ROOT
ATOM      1  N   UNL     1       2.137   7.431  19.984  0.00  0.00    +0.000 N 
ATOM      2  C   UNL     1       1.844   8.273  18.916  0.00  0.00    +0.000 C 
ATOM      3  O   UNL     1       2.033   7.998  17.736  0.00  0.00    +0.000 OA
ATOM      4  H   UNL     1       1.951   7.811  20.905  0.00  0.00    +0.000 HD
ENDROOT
BRANCH   2   5
ATOM      5  C   UNL     1       1.261   9.556  19.286  0.00  0.00    +0.000 A 
ATOM      6  C   UNL     1       1.405  10.750  18.609  0.00  0.00    +0.000 A 
ATOM      7  C   UNL     1       0.631  11.818  19.177  0.00  0.00    +0.000 A 
ATOM      8  C   UNL     1      -0.057  11.392  20.297  0.00  0.00    +0.000 A 
ATOM      9  S   UNL     1       0.266   9.749  20.649  0.00  0.00    +0.000 S 
ATOM     10  C   UNL     1      -0.972  12.194  21.119  0.00  0.00    +0.000 A 
ATOM     11  C   UNL     1      -1.673  11.635  22.206  0.00  0.00    +0.000 A 
ATOM     12  C   UNL     1      -2.538  12.409  22.967  0.00  0.00    +0.000 A 
ATOM     13  F   UNL     1      -3.183  11.849  23.999  0.00  0.00    +0.000 F 
ATOM     14  C   UNL     1      -2.739  13.746  22.675  0.00  0.00    +0.000 A 
ATOM     15  C   UNL     1      -2.055  14.318  21.604  0.00  0.00    +0.000 A 
ATOM     16  C   UNL     1      -1.168  13.556  20.818  0.00  0.00    +0.000 A 
ATOM     17  S   UNL     1      -0.331  14.452  19.513  0.00  0.00    +0.000 S 
ATOM     18  C   UNL     1       0.567  13.182  18.577  0.00  0.00    +0.000 C 
ENDBRANCH   2   5
BRANCH   1  22
ATOM     19  C   UNL     1       1.687   2.625  21.053  0.00  0.00    +0.000 C 
ATOM     20  C   UNL     1       2.499   3.722  20.421  0.00  0.00    +0.000 A 
ATOM     21  C   UNL     1       1.976   5.026  20.484  0.00  0.00    +0.000 A 
ATOM     22  C   UNL     1       2.641   6.117  19.928  0.00  0.00    +0.000 A 
ATOM     23  C   UNL     1       3.867   5.900  19.300  0.00  0.00    +0.000 A 
ATOM     24  C   UNL     1       4.412   4.608  19.225  0.00  0.00    +0.000 A 
ATOM     25  C   UNL     1       3.730   3.509  19.778  0.00  0.00    +0.000 A 
BRANCH  25  26
ATOM     26  C   UNL     1       4.328   2.140  19.706  0.00  0.00    +0.000 C 
ATOM     27  N   UNL     1       3.997   1.359  18.633  0.00  0.00    +0.000 N 
ATOM     28  O   UNL     1       5.074   1.694  20.568  0.00  0.00    +0.000 OA
ATOM     29  H   UNL     1       3.245   1.577  17.997  0.00  0.00    +0.000 HD
ATOM     30  H   UNL     1       4.328   0.403  18.668  0.00  0.00    +0.000 HD
ENDBRANCH  25  26
ENDBRANCH   1  22
TORSDOF 3
ENDMDL
MODEL 2
REMARK VINA RESULT:      -8.3      1.455      1.580
REMARK  Name = 
REMARK  4 active torsions:
REMARK  status: ('A' for Active; 'I' for Inactive)
REMARK    1  A    between atoms: C_1  and  C_2
REMARK    2  A    between atoms: C_4  and  N_5
REMARK    3  A    between atoms: C_6  and  C_8
REMARK    4  A    between atoms: C_24  and  C_25
REMARK                            x       y       z     vdW  Elec       q    Type
REMARK                         _______ _______ _______ _____ _____    ______ ____
ROOT
ATOM      1  N   UNL     1       1.730   7.907  20.607  0.00  0.00    +0.000 N 
ATOM      2  C   UNL     1       1.313   8.936  19.769  0.00  0.00    +0.000 C 
ATOM      3  O   UNL     1       1.304   8.881  18.544  0.00  0.00    +0.000 OA
ATOM      4  H   UNL     1       1.707   8.113  21.599  0.00  0.00    +0.000 HD
ENDROOT
BRANCH   2   5
ATOM      5  C   UNL     1       0.852  10.138  20.452  0.00  0.00    +0.000 A 
ATOM      6  C   UNL     1       1.358  11.413  20.305  0.00  0.00    +0.000 A 
ATOM      7  C   UNL     1       0.628  12.400  21.049  0.00  0.00    +0.000 A 
ATOM      8  C   UNL     1      -0.401  11.821  21.768  0.00  0.00    +0.000 A 
ATOM      9  S   UNL     1      -0.441  10.124  21.554  0.00  0.00    +0.000 S 
ATOM     10  C   UNL     1      -1.375  12.518  22.616  0.00  0.00    +0.000 A 
ATOM     11  C   UNL     1      -2.426  11.830  23.254  0.00  0.00    +0.000 A 
ATOM     12  C   UNL     1      -3.341  12.507  24.048  0.00  0.00    +0.000 A 
ATOM     13  F   UNL     1      -4.325  11.822  24.646  0.00  0.00    +0.000 F 
ATOM     14  C   UNL     1      -3.247  13.875  24.229  0.00  0.00    +0.000 A 
ATOM     15  C   UNL     1      -2.214  14.574  23.608  0.00  0.00    +0.000 A 
ATOM     16  C   UNL     1      -1.270  13.910  22.801  0.00  0.00    +0.000 A 
ATOM     17  S   UNL     1       0.022  14.944  22.117  0.00  0.00    +0.000 S 
ATOM     18  C   UNL     1       0.941  13.857  20.990  0.00  0.00    +0.000 C 
ENDBRANCH   2   5
BRANCH   1  22
ATOM     19  C   UNL     1       1.358   2.992  20.993  0.00  0.00    +0.000 C 
ATOM     20  C   UNL     1       2.046   4.176  20.371  0.00  0.00    +0.000 A 
ATOM     21  C   UNL     1       1.598   5.454  20.751  0.00  0.00    +0.000 A 
ATOM     22  C   UNL     1       2.160   6.619  20.235  0.00  0.00    +0.000 A 
ATOM     23  C   UNL     1       3.206   6.504  19.318  0.00  0.00    +0.000 A 
ATOM     24  C   UNL     1       3.672   5.240  18.923  0.00  0.00    +0.000 A 
ATOM     25  C   UNL     1       3.092   4.067  19.439  0.00  0.00    +0.000 A 
BRANCH  25  26
ATOM     26  C   UNL     1       3.609   2.727  19.022  0.00  0.00    +0.000 C 
ATOM     27  N   UNL     1       4.709   2.242  19.675  0.00  0.00    +0.000 N 
ATOM     28  O   UNL     1       3.104   2.071  18.121  0.00  0.00    +0.000 OA
ATOM     29  H   UNL     1       5.290   2.801  20.280  0.00  0.00    +0.000 HD
ATOM     30  H   UNL     1       5.099   1.386  19.299  0.00  0.00    +0.000 HD
ENDBRANCH  25  26
ENDBRANCH   1  22
TORSDOF 3
ENDMDL
MODEL 3
REMARK VINA RESULT:      -8.2      0.347      1.371
REMARK  Name = 
REMARK  4 active torsions:
REMARK  status: ('A' for Active; 'I' for Inactive)
REMARK    1  A    between atoms: C_1  and  C_2
REMARK    2  A    between atoms: C_4  and  N_5
REMARK    3  A    between atoms: C_6  and  C_8
REMARK    4  A    between atoms: C_24  and  C_25
REMARK                            x       y       z     vdW  Elec       q    Type
REMARK                         _______ _______ _______ _____ _____    ______ ____
ROOT
ATOM      1  N   UNL     1       2.174   7.526  19.949  0.00  0.00    +0.000 N 
ATOM      2  C   UNL     1       1.877   8.386  18.897  0.00  0.00    +0.000 C 
ATOM      3  O   UNL     1       2.101   8.150  17.715  0.00  0.00    +0.000 OA
ATOM      4  H   UNL     1       1.956   7.875  20.875  0.00  0.00    +0.000 HD
ENDROOT
BRANCH   2   5
ATOM      5  C   UNL     1       1.244   9.640  19.287  0.00  0.00    +0.000 A 
ATOM      6  C   UNL     1       1.327  10.846  18.621  0.00  0.00    +0.000 A 
ATOM      7  C   UNL     1       0.515  11.873  19.209  0.00  0.00    +0.000 A 
ATOM      8  C   UNL     1      -0.139  11.407  20.333  0.00  0.00    +0.000 A 
ATOM      9  S   UNL     1       0.259   9.776  20.664  0.00  0.00    +0.000 S 
ATOM     10  C   UNL     1      -1.078  12.160  21.174  0.00  0.00    +0.000 A 
ATOM     11  C   UNL     1      -1.740  11.561  22.264  0.00  0.00    +0.000 A 
ATOM     12  C   UNL     1      -2.628  12.289  23.044  0.00  0.00    +0.000 A 
ATOM     13  F   UNL     1      -3.235  11.692  24.077  0.00  0.00    +0.000 F 
ATOM     14  C   UNL     1      -2.890  13.619  22.767  0.00  0.00    +0.000 A 
ATOM     15  C   UNL     1      -2.245  14.230  21.694  0.00  0.00    +0.000 A 
ATOM     16  C   UNL     1      -1.336  13.515  20.889  0.00  0.00    +0.000 A 
ATOM     17  S   UNL     1      -0.555  14.460  19.584  0.00  0.00    +0.000 S 
ATOM     18  C   UNL     1       0.385  13.239  18.624  0.00  0.00    +0.000 C 
ENDBRANCH   2   5
BRANCH   1  22
ATOM     19  C   UNL     1       5.773   4.487  18.447  0.00  0.00    +0.000 C 
ATOM     20  C   UNL     1       4.458   4.657  19.158  0.00  0.00    +0.000 A 
ATOM     21  C   UNL     1       3.930   5.958  19.232  0.00  0.00    +0.000 A 
ATOM     22  C   UNL     1       2.723   6.231  19.869  0.00  0.00    +0.000 A 
ATOM     23  C   UNL     1       2.017   5.172  20.442  0.00  0.00    +0.000 A 
ATOM     24  C   UNL     1       2.522   3.864  20.381  0.00  0.00    +0.000 A 
ATOM     25  C   UNL     1       3.749   3.596  19.746  0.00  0.00    +0.000 A 
BRANCH  25  26
ATOM     26  C   UNL     1       4.268   2.195  19.673  0.00  0.00    +0.000 C 
ATOM     27  N   UNL     1       3.849   1.419  18.628  0.00  0.00    +0.000 N 
ATOM     28  O   UNL     1       5.024   1.722  20.511  0.00  0.00    +0.000 OA
ATOM     29  H   UNL     1       3.084   1.668  18.020  0.00  0.00    +0.000 HD
ATOM     30  H   UNL     1       4.129   0.446  18.666  0.00  0.00    +0.000 HD
ENDBRANCH  25  26
ENDBRANCH   1  22
TORSDOF 3
ENDMDL
MODEL 4
REMARK VINA RESULT:      -8.1      2.233      2.887
REMARK  Name = 
REMARK  4 active torsions:
REMARK  status: ('A' for Active; 'I' for Inactive)
REMARK    1  A    between atoms: C_1  and  C_2
REMARK    2  A    between atoms: C_4  and  N_5
REMARK    3  A    between atoms: C_6  and  C_8
REMARK    4  A    between atoms: C_24  and  C_25
REMARK                            x       y       z     vdW  Elec       q    Type
REMARK                         _______ _______ _______ _____ _____    ______ ____
ROOT
ATOM      1  N   UNL     1       1.894   7.471  20.317  0.00  0.00    +0.000 N 
ATOM      2  C   UNL     1       1.609   8.428  19.347  0.00  0.00    +0.000 C 
ATOM      3  O   UNL     1       1.791   8.280  18.144  0.00  0.00    +0.000 OA
ATOM      4  H   UNL     1       1.717   7.752  21.274  0.00  0.00    +0.000 HD
ENDROOT
BRANCH   2   5
ATOM      5  C   UNL     1       1.046   9.671  19.856  0.00  0.00    +0.000 A 
ATOM      6  C   UNL     1       0.320   9.830  21.019  0.00  0.00    +0.000 A 
ATOM      7  C   UNL     1      -0.019  11.199  21.291  0.00  0.00    +0.000 A 
ATOM      8  C   UNL     1       0.445  12.034  20.292  0.00  0.00    +0.000 A 
ATOM      9  S   UNL     1       1.239  11.157  19.056  0.00  0.00    +0.000 S 
ATOM     10  C   UNL     1       0.316  13.495  20.244  0.00  0.00    +0.000 A 
ATOM     11  C   UNL     1       0.887  14.255  19.204  0.00  0.00    +0.000 A 
ATOM     12  C   UNL     1       0.759  15.637  19.179  0.00  0.00    +0.000 A 
ATOM     13  F   UNL     1       1.308  16.329  18.172  0.00  0.00    +0.000 F 
ATOM     14  C   UNL     1       0.072  16.304  20.177  0.00  0.00    +0.000 A 
ATOM     15  C   UNL     1      -0.502  15.570  21.214  0.00  0.00    +0.000 A 
ATOM     16  C   UNL     1      -0.389  14.167  21.261  0.00  0.00    +0.000 A 
ATOM     17  S   UNL     1      -1.225  13.373  22.631  0.00  0.00    +0.000 S 
ATOM     18  C   UNL     1      -0.737  11.627  22.525  0.00  0.00    +0.000 C 
ENDBRANCH   2   5
BRANCH   1  22
ATOM     19  C   UNL     1       1.532   2.604  21.105  0.00  0.00    +0.000 C 
ATOM     20  C   UNL     1       2.276   3.742  20.461  0.00  0.00    +0.000 A 
ATOM     21  C   UNL     1       1.773   5.038  20.669  0.00  0.00    +0.000 A 
ATOM     22  C   UNL     1       2.379   6.164  20.116  0.00  0.00    +0.000 A 
ATOM     23  C   UNL     1       3.526   5.991  19.342  0.00  0.00    +0.000 A 
ATOM     24  C   UNL     1       4.049   4.707  19.121  0.00  0.00    +0.000 A 
ATOM     25  C   UNL     1       3.426   3.572  19.671  0.00  0.00    +0.000 A 
BRANCH  25  26
ATOM     26  C   UNL     1       4.002   2.212  19.441  0.00  0.00    +0.000 C 
ATOM     27  N   UNL     1       5.071   1.839  20.210  0.00  0.00    +0.000 N 
ATOM     28  O   UNL     1       3.572   1.442  18.593  0.00  0.00    +0.000 OA
ATOM     29  H   UNL     1       5.598   2.482  20.781  0.00  0.00    +0.000 HD
ATOM     30  H   UNL     1       5.506   0.961  19.958  0.00  0.00    +0.000 HD
ENDBRANCH  25  26
ENDBRANCH   1  22
TORSDOF 3
ENDMDL
MODEL 5
REMARK VINA RESULT:      -8.0      2.304      3.082
REMARK  Name = 
REMARK  4 active torsions:
REMARK  status: ('A' for Active; 'I' for Inactive)
REMARK    1  A    between atoms: C_1  and  C_2
REMARK    2  A    between atoms: C_4  and  N_5
REMARK    3  A    between atoms: C_6  and  C_8
REMARK    4  A    between atoms: C_24  and  C_25
REMARK                            x       y       z     vdW  Elec       q    Type
REMARK                         _______ _______ _______ _____ _____    ______ ____
ROOT
ATOM      1  N   UNL     1       1.977   7.696  19.716  0.00  0.00    +0.000 N 
ATOM      2  C   UNL     1       1.870   8.549  18.622  0.00  0.00    +0.000 C 
ATOM      3  O   UNL     1       2.262   8.287  17.490  0.00  0.00    +0.000 OA
ATOM      4  H   UNL     1       1.633   8.065  20.594  0.00  0.00    +0.000 HD
ENDROOT
BRANCH   2   5
ATOM      5  C   UNL     1       1.227   9.826  18.898  0.00  0.00    +0.000 A 
ATOM      6  C   UNL     1       0.045  10.021  19.584  0.00  0.00    +0.000 A 
ATOM      7  C   UNL     1      -0.278  11.407  19.769  0.00  0.00    +0.000 A 
ATOM      8  C   UNL     1       0.671  12.223  19.182  0.00  0.00    +0.000 A 
ATOM      9  S   UNL     1       1.893  11.310  18.406  0.00  0.00    +0.000 S 
ATOM     10  C   UNL     1       0.691  13.691  19.194  0.00  0.00    +0.000 A 
ATOM     11  C   UNL     1       1.747  14.421  18.615  0.00  0.00    +0.000 A 
ATOM     12  C   UNL     1       1.752  15.808  18.642  0.00  0.00    +0.000 A 
ATOM     13  F   UNL     1       2.767  16.473  18.075  0.00  0.00    +0.000 F 
ATOM     14  C   UNL     1       0.721  16.509  19.242  0.00  0.00    +0.000 A 
ATOM     15  C   UNL     1      -0.334  15.806  19.820  0.00  0.00    +0.000 A 
ATOM     16  C   UNL     1      -0.364  14.397  19.802  0.00  0.00    +0.000 A 
ATOM     17  S   UNL     1      -1.813  13.649  20.543  0.00  0.00    +0.000 S 
ATOM     18  C   UNL     1      -1.467  11.867  20.543  0.00  0.00    +0.000 C 
ENDBRANCH   2   5
BRANCH   1  22
ATOM     19  C   UNL     1       1.638   2.990  21.194  0.00  0.00    +0.000 C 
ATOM     20  C   UNL     1       2.399   4.036  20.426  0.00  0.00    +0.000 A 
ATOM     21  C   UNL     1       1.869   5.338  20.416  0.00  0.00    +0.000 A 
ATOM     22  C   UNL     1       2.488   6.383  19.734  0.00  0.00    +0.000 A 
ATOM     23  C   UNL     1       3.675   6.121  19.050  0.00  0.00    +0.000 A 
ATOM     24  C   UNL     1       4.226   4.830  19.046  0.00  0.00    +0.000 A 
ATOM     25  C   UNL     1       3.590   3.776  19.726  0.00  0.00    +0.000 A 
BRANCH  25  26
ATOM     26  C   UNL     1       4.194   2.408  19.727  0.00  0.00    +0.000 C 
ATOM     27  N   UNL     1       3.889   1.580  18.682  0.00  0.00    +0.000 N 
ATOM     28  O   UNL     1       4.923   2.004  20.624  0.00  0.00    +0.000 OA
ATOM     29  H   UNL     1       3.151   1.766  18.021  0.00  0.00    +0.000 HD
ATOM     30  H   UNL     1       4.224   0.628  18.767  0.00  0.00    +0.000 HD
ENDBRANCH  25  26
ENDBRANCH   1  22
TORSDOF 3
ENDMDL
MODEL 6
REMARK VINA RESULT:      -8.0      2.083      2.988
REMARK  Name = 
REMARK  4 active torsions:
REMARK  status: ('A' for Active; 'I' for Inactive)
REMARK    1  A    between atoms: C_1  and  C_2
REMARK    2  A    between atoms: C_4  and  N_5
REMARK    3  A    between atoms: C_6  and  C_8
REMARK    4  A    between atoms: C_24  and  C_25
REMARK                            x       y       z     vdW  Elec       q    Type
REMARK                         _______ _______ _______ _____ _____    ______ ____
ROOT
ATOM      1  N   UNL     1       1.820   7.286  20.425  0.00  0.00    +0.000 N 
ATOM      2  C   UNL     1       1.591   8.313  19.515  0.00  0.00    +0.000 C 
ATOM      3  O   UNL     1       1.924   8.291  18.336  0.00  0.00    +0.000 OA
ATOM      4  H   UNL     1       1.512   7.463  21.373  0.00  0.00    +0.000 HD
ENDROOT
BRANCH   2   5
ATOM      5  C   UNL     1       0.889   9.469  20.057  0.00  0.00    +0.000 A 
ATOM      6  C   UNL     1       0.265   9.551  21.285  0.00  0.00    +0.000 A 
ATOM      7  C   UNL     1      -0.260  10.858  21.567  0.00  0.00    +0.000 A 
ATOM      8  C   UNL     1      -0.035  11.721  20.511  0.00  0.00    +0.000 A 
ATOM      9  S   UNL     1       0.763  10.939  19.215  0.00  0.00    +0.000 S 
ATOM     10  C   UNL     1      -0.400  13.142  20.451  0.00  0.00    +0.000 A 
ATOM     11  C   UNL     1      -0.063  13.947  19.345  0.00  0.00    +0.000 A 
ATOM     12  C   UNL     1      -0.412  15.289  19.309  0.00  0.00    +0.000 A 
ATOM     13  F   UNL     1      -0.082  16.025  18.239  0.00  0.00    +0.000 F 
ATOM     14  C   UNL     1      -1.096  15.873  20.360  0.00  0.00    +0.000 A 
ATOM     15  C   UNL     1      -1.440  15.094  21.464  0.00  0.00    +0.000 A 
ATOM     16  C   UNL     1      -1.101  13.728  21.523  0.00  0.00    +0.000 A 
ATOM     17  S   UNL     1      -1.660  12.859  22.986  0.00  0.00    +0.000 S 
ATOM     18  C   UNL     1      -0.912  11.209  22.860  0.00  0.00    +0.000 C 
ENDBRANCH   2   5
BRANCH   1  22
ATOM     19  C   UNL     1       5.480   4.597  18.469  0.00  0.00    +0.000 C 
ATOM     20  C   UNL     1       4.181   4.626  19.228  0.00  0.00    +0.000 A 
ATOM     21  C   UNL     1       3.609   5.887  19.475  0.00  0.00    +0.000 A 
ATOM     22  C   UNL     1       2.412   6.033  20.172  0.00  0.00    +0.000 A 
ATOM     23  C   UNL     1       1.762   4.885  20.626  0.00  0.00    +0.000 A 
ATOM     24  C   UNL     1       2.311   3.614  20.391  0.00  0.00    +0.000 A 
ATOM     25  C   UNL     1       3.527   3.474  19.698  0.00  0.00    +0.000 A 
BRANCH  25  26
ATOM     26  C   UNL     1       4.093   2.115  19.439  0.00  0.00    +0.000 C 
ATOM     27  N   UNL     1       5.095   1.679  20.263  0.00  0.00    +0.000 N 
ATOM     28  O   UNL     1       3.713   1.400  18.522  0.00  0.00    +0.000 OA
ATOM     29  H   UNL     1       5.591   2.280  20.904  0.00  0.00    +0.000 HD
ATOM     30  H   UNL     1       5.531   0.805  19.997  0.00  0.00    +0.000 HD
ENDBRANCH  25  26
ENDBRANCH   1  22
TORSDOF 3
ENDMDL
MODEL 7
REMARK VINA RESULT:      -8.0      2.886      3.637
REMARK  Name = 
REMARK  4 active torsions:
REMARK  status: ('A' for Active; 'I' for Inactive)
REMARK    1  A    between atoms: C_1  and  C_2
REMARK    2  A    between atoms: C_4  and  N_5
REMARK    3  A    between atoms: C_6  and  C_8
REMARK    4  A    between atoms: C_24  and  C_25
REMARK                            x       y       z     vdW  Elec       q    Type
REMARK                         _______ _______ _______ _____ _____    ______ ____
ROOT
ATOM      1  N   UNL     1       2.578   7.660  18.619  0.00  0.00    +0.000 N 
ATOM      2  C   UNL     1       1.979   7.447  19.857  0.00  0.00    +0.000 C 
ATOM      3  O   UNL     1       2.103   6.430  20.529  0.00  0.00    +0.000 OA
ATOM      4  H   UNL     1       2.357   8.541  18.171  0.00  0.00    +0.000 HD
ENDROOT
BRANCH   2   5
ATOM      5  C   UNL     1       1.166   8.554  20.345  0.00  0.00    +0.000 A 
ATOM      6  C   UNL     1       0.510   8.620  21.557  0.00  0.00    +0.000 A 
ATOM      7  C   UNL     1      -0.134   9.883  21.783  0.00  0.00    +0.000 A 
ATOM      8  C   UNL     1       0.036  10.728  20.702  0.00  0.00    +0.000 A 
ATOM      9  S   UNL     1       0.929   9.978  19.450  0.00  0.00    +0.000 S 
ATOM     10  C   UNL     1      -0.451  12.108  20.586  0.00  0.00    +0.000 A 
ATOM     11  C   UNL     1      -0.162  12.902  19.459  0.00  0.00    +0.000 A 
ATOM     12  C   UNL     1      -0.627  14.207  19.369  0.00  0.00    +0.000 A 
ATOM     13  F   UNL     1      -0.341  14.933  18.281  0.00  0.00    +0.000 F 
ATOM     14  C   UNL     1      -1.383  14.762  20.387  0.00  0.00    +0.000 A 
ATOM     15  C   UNL     1      -1.681  13.992  21.510  0.00  0.00    +0.000 A 
ATOM     16  C   UNL     1      -1.224  12.664  21.623  0.00  0.00    +0.000 A 
ATOM     17  S   UNL     1      -1.736  11.798  23.104  0.00  0.00    +0.000 S 
ATOM     18  C   UNL     1      -0.843  10.218  23.051  0.00  0.00    +0.000 C 
ENDBRANCH   2   5
BRANCH   1  22
ATOM     19  C   UNL     1       4.016   3.092  17.389  0.00  0.00    +0.000 C 
ATOM     20  C   UNL     1       4.245   4.575  17.283  0.00  0.00    +0.000 A 
ATOM     21  C   UNL     1       3.348   5.415  17.968  0.00  0.00    +0.000 A 
ATOM     22  C   UNL     1       3.462   6.802  17.936  0.00  0.00    +0.000 A 
ATOM     23  C   UNL     1       4.508   7.368  17.206  0.00  0.00    +0.000 A 
ATOM     24  C   UNL     1       5.418   6.552  16.515  0.00  0.00    +0.000 A 
ATOM     25  C   UNL     1       5.290   5.151  16.541  0.00  0.00    +0.000 A 
BRANCH  25  26
ATOM     26  C   UNL     1       6.275   4.292  15.814  0.00  0.00    +0.000 C 
ATOM     27  N   UNL     1       7.518   4.149  16.367  0.00  0.00    +0.000 N 
ATOM     28  O   UNL     1       6.020   3.740  14.752  0.00  0.00    +0.000 OA
ATOM     29  H   UNL     1       7.863   4.723  17.121  0.00  0.00    +0.000 HD
ATOM     30  H   UNL     1       8.195   3.654  15.799  0.00  0.00    +0.000 HD
ENDBRANCH  25  26
ENDBRANCH   1  22
TORSDOF 3
ENDMDL
MODEL 8
REMARK VINA RESULT:      -8.0      1.697      2.379
REMARK  Name = 
REMARK  4 active torsions:
REMARK  status: ('A' for Active; 'I' for Inactive)
REMARK    1  A    between atoms: C_1  and  C_2
REMARK    2  A    between atoms: C_4  and  N_5
REMARK    3  A    between atoms: C_6  and  C_8
REMARK    4  A    between atoms: C_24  and  C_25
REMARK                            x       y       z     vdW  Elec       q    Type
REMARK                         _______ _______ _______ _____ _____    ______ ____
ROOT
ATOM      1  N   UNL     1       1.682   8.347  20.308  0.00  0.00    +0.000 N 
ATOM      2  C   UNL     1       1.101   9.382  19.582  0.00  0.00    +0.000 C 
ATOM      3  O   UNL     1       0.934   9.377  18.367  0.00  0.00    +0.000 OA
ATOM      4  H   UNL     1       1.777   8.511  21.303  0.00  0.00    +0.000 HD
ENDROOT
BRANCH   2   5
ATOM      5  C   UNL     1       0.668  10.524  20.376  0.00  0.00    +0.000 A 
ATOM      6  C   UNL     1       1.203  11.796  20.349  0.00  0.00    +0.000 A 
ATOM      7  C   UNL     1       0.496  12.724  21.185  0.00  0.00    +0.000 A 
ATOM      8  C   UNL     1      -0.547  12.103  21.847  0.00  0.00    +0.000 A 
ATOM      9  S   UNL     1      -0.626  10.435  21.473  0.00  0.00    +0.000 S 
ATOM     10  C   UNL     1      -1.506  12.739  22.759  0.00  0.00    +0.000 A 
ATOM     11  C   UNL     1      -2.573  12.018  23.330  0.00  0.00    +0.000 A 
ATOM     12  C   UNL     1      -3.473  12.638  24.186  0.00  0.00    +0.000 A 
ATOM     13  F   UNL     1      -4.472  11.923  24.718  0.00  0.00    +0.000 F 
ATOM     14  C   UNL     1      -3.347  13.981  24.496  0.00  0.00    +0.000 A 
ATOM     15  C   UNL     1      -2.297  14.711  23.942  0.00  0.00    +0.000 A 
ATOM     16  C   UNL     1      -1.369  14.105  23.074  0.00  0.00    +0.000 A 
ATOM     17  S   UNL     1      -0.052  15.169  22.489  0.00  0.00    +0.000 S 
ATOM     18  C   UNL     1       0.842  14.172  21.263  0.00  0.00    +0.000 C 
ENDBRANCH   2   5
BRANCH   1  22
ATOM     19  C   UNL     1       4.339   5.728  17.065  0.00  0.00    +0.000 C 
ATOM     20  C   UNL     1       3.415   5.731  18.252  0.00  0.00    +0.000 A 
ATOM     21  C   UNL     1       2.983   6.982  18.726  0.00  0.00    +0.000 A 
ATOM     22  C   UNL     1       2.130   7.104  19.821  0.00  0.00    +0.000 A 
ATOM     23  C   UNL     1       1.689   5.942  20.454  0.00  0.00    +0.000 A 
ATOM     24  C   UNL     1       2.105   4.680  19.999  0.00  0.00    +0.000 A 
ATOM     25  C   UNL     1       2.976   4.564  18.901  0.00  0.00    +0.000 A 
BRANCH  25  26
ATOM     26  C   UNL     1       3.399   3.214  18.415  0.00  0.00    +0.000 C 
ATOM     27  N   UNL     1       4.531   2.672  18.959  0.00  0.00    +0.000 N 
ATOM     28  O   UNL     1       2.790   2.598  17.551  0.00  0.00    +0.000 OA
ATOM     29  H   UNL     1       5.186   3.196  19.519  0.00  0.00    +0.000 HD
ATOM     30  H   UNL     1       4.851   1.811  18.533  0.00  0.00    +0.000 HD
ENDBRANCH  25  26
ENDBRANCH   1  22
TORSDOF 3
ENDMDL
MODEL 9
REMARK VINA RESULT:      -8.0      1.859      2.302
REMARK  Name = 
REMARK  4 active torsions:
REMARK  status: ('A' for Active; 'I' for Inactive)
REMARK    1  A    between atoms: C_1  and  C_2
REMARK    2  A    between atoms: C_4  and  N_5
REMARK    3  A    between atoms: C_6  and  C_8
REMARK    4  A    between atoms: C_24  and  C_25
REMARK                            x       y       z     vdW  Elec       q    Type
REMARK                         _______ _______ _______ _____ _____    ______ ____
ROOT
ATOM      1  N   UNL     1       1.177   8.381  20.301  0.00  0.00    +0.000 N 
ATOM      2  C   UNL     1       1.269   9.076  21.503  0.00  0.00    +0.000 C 
ATOM      3  O   UNL     1       1.988   8.755  22.443  0.00  0.00    +0.000 OA
ATOM      4  H   UNL     1       0.517   8.754  19.629  0.00  0.00    +0.000 HD
ENDROOT
BRANCH   2   5
ATOM      5  C   UNL     1       0.439  10.270  21.589  0.00  0.00    +0.000 A 
ATOM      6  C   UNL     1       0.499  11.375  20.765  0.00  0.00    +0.000 A 
ATOM      7  C   UNL     1      -0.515  12.350  21.051  0.00  0.00    +0.000 A 
ATOM      8  C   UNL     1      -1.299  11.953  22.119  0.00  0.00    +0.000 A 
ATOM      9  S   UNL     1      -0.780  10.452  22.758  0.00  0.00    +0.000 S 
ATOM     10  C   UNL     1      -2.450  12.675  22.675  0.00  0.00    +0.000 A 
ATOM     11  C   UNL     1      -3.219  12.142  23.728  0.00  0.00    +0.000 A 
ATOM     12  C   UNL     1      -4.307  12.837  24.236  0.00  0.00    +0.000 A 
ATOM     13  F   UNL     1      -5.014  12.306  25.242  0.00  0.00    +0.000 F 
ATOM     14  C   UNL     1      -4.667  14.069  23.719  0.00  0.00    +0.000 A 
ATOM     15  C   UNL     1      -3.918  14.614  22.677  0.00  0.00    +0.000 A 
ATOM     16  C   UNL     1      -2.807  13.930  22.146  0.00  0.00    +0.000 A 
ATOM     17  S   UNL     1      -1.924  14.790  20.847  0.00  0.00    +0.000 S 
ATOM     18  C   UNL     1      -0.696  13.593  20.248  0.00  0.00    +0.000 C 
ENDBRANCH   2   5
BRANCH   1  22
ATOM     19  C   UNL     1       2.387   3.637  20.989  0.00  0.00    +0.000 C 
ATOM     20  C   UNL     1       2.563   4.897  20.185  0.00  0.00    +0.000 A 
ATOM     21  C   UNL     1       1.823   6.024  20.586  0.00  0.00    +0.000 A 
ATOM     22  C   UNL     1       1.905   7.240  19.912  0.00  0.00    +0.000 A 
ATOM     23  C   UNL     1       2.757   7.336  18.811  0.00  0.00    +0.000 A 
ATOM     24  C   UNL     1       3.507   6.225  18.392  0.00  0.00    +0.000 A 
ATOM     25  C   UNL     1       3.411   4.996  19.069  0.00  0.00    +0.000 A 
BRANCH  25  26
ATOM     26  C   UNL     1       4.227   3.826  18.622  0.00  0.00    +0.000 C 
ATOM     27  N   UNL     1       5.494   3.709  19.125  0.00  0.00    +0.000 N 
ATOM     28  O   UNL     1       3.817   2.996  17.821  0.00  0.00    +0.000 OA
ATOM     29  H   UNL     1       5.966   4.447  19.624  0.00  0.00    +0.000 HD
ATOM     30  H   UNL     1       6.058   2.971  18.722  0.00  0.00    +0.000 HD
ENDBRANCH  25  26
ENDBRANCH   1  22
TORSDOF 3
ENDMDL
