MODEL 1
REMARK VINA RESULT:      -8.3      0.000      0.000
REMARK  Name = 
REMARK  6 active torsions:
REMARK  status: ('A' for Active; 'I' for Inactive)
REMARK    1  A    between atoms: C_1  and  C_2
REMARK    2  A    between atoms: C_5  and  C_6
REMARK    3  A    between atoms: C_7  and  C_8
REMARK    4  A    between atoms: C_8  and  C_9
REMARK    5  A    between atoms: N_11  and  C_12
REMARK    6  A    between atoms: C_16  and  C_17
REMARK                            x       y       z     vdW  Elec       q    Type
REMARK                         _______ _______ _______ _____ _____    ______ ____
ROOT
ATOM      1  C   UNL     1       3.476   5.204  19.127  0.00  0.00    +0.000 A 
ATOM      2  C   UNL     1       2.903   4.422  20.136  0.00  0.00    +0.000 A 
ATOM      3  C   UNL     1       1.967   4.976  21.010  0.00  0.00    +0.000 A 
ATOM      4  C   UNL     1       1.547   6.296  20.848  0.00  0.00    +0.000 A 
ATOM      5  C   UNL     1       2.070   7.064  19.800  0.00  0.00    +0.000 A 
ATOM      6  C   UNL     1       3.048   6.527  18.952  0.00  0.00    +0.000 A 
ENDROOT
BRANCH   5   7
ATOM      7  C   UNL     1       1.512   8.418  19.536  0.00  0.00    +0.000 C 
ATOM      8  O   UNL     1       1.728   8.945  18.453  0.00  0.00    +0.000 OA
ATOM      9  N   UNL     1       0.820   8.980  20.592  0.00  0.00    +0.000 N 
ATOM     10  C   UNL     1       0.300  10.277  20.574  0.00  0.00    +0.000 A 
ATOM     11  C   UNL     1      -0.342  10.813  19.462  0.00  0.00    +0.000 A 
ATOM     12  C   UNL     1      -0.792  12.131  19.520  0.00  0.00    +0.000 A 
ATOM     13  C   UNL     1      -0.556  12.879  20.667  0.00  0.00    +0.000 A 
ATOM     14  C   UNL     1       0.071  12.254  21.731  0.00  0.00    +0.000 A 
ATOM     15  N   UNL     1       0.459  10.957  21.729  0.00  0.00    +0.000 NA
ATOM     16  H   UNL     1       1.052   8.665  21.524  0.00  0.00    +0.000 HD
ENDBRANCH   5   7
BRANCH   1  19
ATOM     17  C   UNL     1       4.165   3.909  17.149  0.00  0.00    +0.000 C 
ATOM     18  O   UNL     1       3.039   3.787  16.674  0.00  0.00    +0.000 OA
ATOM     19  N   UNL     1       4.459   4.603  18.311  0.00  0.00    +0.000 N 
ATOM     20  H   UNL     1       5.394   4.994  18.363  0.00  0.00    +0.000 HD
BRANCH  17  21
ATOM     21  C   UNL     1       5.376   3.299  16.467  0.00  0.00    +0.000 C 
BRANCH  21  28
ATOM     22  C   UNL     1       5.949   3.651  13.227  0.00  0.00    +0.000 C 
ATOM     23  C   UNL     1       6.508   4.420  14.364  0.00  0.00    +0.000 A 
ATOM     24  N   UNL     1       7.394   5.395  14.114  0.00  0.00    +0.000 NA
ATOM     25  O   UNL     1       7.771   5.887  15.344  0.00  0.00    +0.000 OA
ATOM     26  C   UNL     1       7.108   5.223  16.321  0.00  0.00    +0.000 A 
ATOM     27  C   UNL     1       7.458   5.613  17.704  0.00  0.00    +0.000 C 
ATOM     28  C   UNL     1       6.258   4.285  15.761  0.00  0.00    +0.000 A 
ENDBRANCH  21  28
ENDBRANCH  17  21
ENDBRANCH   1  19
TORSDOF 4
ENDMDL
MODEL 2
REMARK VINA RESULT:      -8.3      1.085      1.970
REMARK  Name = 
REMARK  6 active torsions:
REMARK  status: ('A' for Active; 'I' for Inactive)
REMARK    1  A    between atoms: C_1  and  C_2
REMARK    2  A    between atoms: C_5  and  C_6
REMARK    3  A    between atoms: C_7  and  C_8
REMARK    4  A    between atoms: C_8  and  C_9
REMARK    5  A    between atoms: N_11  and  C_12
REMARK    6  A    between atoms: C_16  and  C_17
REMARK                            x       y       z     vdW  Elec       q    Type
REMARK                         _______ _______ _______ _____ _____    ______ ____
ROOT
ATOM      1  C   UNL     1       3.474   4.233  19.323  0.00  0.00    +0.000 A 
ATOM      2  C   UNL     1       2.842   3.300  20.150  0.00  0.00    +0.000 A 
ATOM      3  C   UNL     1       1.899   3.717  21.091  0.00  0.00    +0.000 A 
ATOM      4  C   UNL     1       1.535   5.060  21.175  0.00  0.00    +0.000 A 
ATOM      5  C   UNL     1       2.118   5.990  20.305  0.00  0.00    +0.000 A 
ATOM      6  C   UNL     1       3.102   5.583  19.394  0.00  0.00    +0.000 A 
ENDROOT
BRANCH   5   7
ATOM      7  C   UNL     1       1.621   7.392  20.292  0.00  0.00    +0.000 C 
ATOM      8  O   UNL     1       2.145   8.198  19.535  0.00  0.00    +0.000 OA
ATOM      9  N   UNL     1       0.611   7.662  21.196  0.00  0.00    +0.000 N 
ATOM     10  C   UNL     1       0.074   8.936  21.399  0.00  0.00    +0.000 A 
ATOM     11  C   UNL     1      -0.207   9.808  20.353  0.00  0.00    +0.000 A 
ATOM     12  C   UNL     1      -0.703  11.076  20.653  0.00  0.00    +0.000 A 
ATOM     13  C   UNL     1      -0.866  11.443  21.983  0.00  0.00    +0.000 A 
ATOM     14  C   UNL     1      -0.582  10.500  22.955  0.00  0.00    +0.000 A 
ATOM     15  N   UNL     1      -0.164   9.240  22.693  0.00  0.00    +0.000 NA
ATOM     16  H   UNL     1       0.551   7.077  22.018  0.00  0.00    +0.000 HD
ENDBRANCH   5   7
BRANCH   1  19
ATOM     17  C   UNL     1       4.230   3.548  17.082  0.00  0.00    +0.000 C 
ATOM     18  O   UNL     1       3.175   3.802  16.506  0.00  0.00    +0.000 OA
ATOM     19  N   UNL     1       4.460   3.756  18.432  0.00  0.00    +0.000 N 
ATOM     20  H   UNL     1       5.427   3.926  18.689  0.00  0.00    +0.000 HD
BRANCH  17  21
ATOM     21  C   UNL     1       5.418   2.976  16.330  0.00  0.00    +0.000 C 
BRANCH  21  28
ATOM     22  C   UNL     1       7.324   5.372  17.589  0.00  0.00    +0.000 C 
ATOM     23  C   UNL     1       7.063   5.033  16.169  0.00  0.00    +0.000 A 
ATOM     24  N   UNL     1       7.631   5.778  15.210  0.00  0.00    +0.000 NA
ATOM     25  O   UNL     1       7.173   5.269  14.015  0.00  0.00    +0.000 OA
ATOM     26  C   UNL     1       6.348   4.222  14.254  0.00  0.00    +0.000 A 
ATOM     27  C   UNL     1       5.735   3.608  13.056  0.00  0.00    +0.000 C 
ATOM     28  C   UNL     1       6.256   3.997  15.618  0.00  0.00    +0.000 A 
ENDBRANCH  21  28
ENDBRANCH  17  21
ENDBRANCH   1  19
TORSDOF 4
ENDMDL
MODEL 3
REMARK VINA RESULT:      -8.1      0.800      1.727
REMARK  Name = 
REMARK  6 active torsions:
REMARK  status: ('A' for Active; 'I' for Inactive)
REMARK    1  A    between atoms: C_1  and  C_2
REMARK    2  A    between atoms: C_5  and  C_6
REMARK    3  A    between atoms: C_7  and  C_8
REMARK    4  A    between atoms: C_8  and  C_9
REMARK    5  A    between atoms: N_11  and  C_12
REMARK    6  A    between atoms: C_16  and  C_17
REMARK                            x       y       z     vdW  Elec       q    Type
REMARK                         _______ _______ _______ _____ _____    ______ ____
ROOT
ATOM      1  C   UNL     1       3.342   5.523  18.908  0.00  0.00    +0.000 A 
ATOM      2  C   UNL     1       2.710   4.862  19.967  0.00  0.00    +0.000 A 
ATOM      3  C   UNL     1       1.817   5.548  20.792  0.00  0.00    +0.000 A 
ATOM      4  C   UNL     1       1.501   6.881  20.534  0.00  0.00    +0.000 A 
ATOM      5  C   UNL     1       2.082   7.529  19.437  0.00  0.00    +0.000 A 
ATOM      6  C   UNL     1       3.017   6.860  18.637  0.00  0.00    +0.000 A 
ENDROOT
BRANCH   5   7
ATOM      7  C   UNL     1       1.630   8.899  19.073  0.00  0.00    +0.000 C 
ATOM      8  O   UNL     1       1.804   9.294  17.928  0.00  0.00    +0.000 OA
ATOM      9  N   UNL     1       1.080   9.627  20.111  0.00  0.00    +0.000 N 
ATOM     10  C   UNL     1       0.681  10.962  19.994  0.00  0.00    +0.000 A 
ATOM     11  C   UNL     1       0.002  11.447  18.882  0.00  0.00    +0.000 A 
ATOM     12  C   UNL     1      -0.320  12.802  18.833  0.00  0.00    +0.000 A 
ATOM     13  C   UNL     1       0.076  13.631  19.875  0.00  0.00    +0.000 A 
ATOM     14  C   UNL     1       0.727  13.055  20.951  0.00  0.00    +0.000 A 
ATOM     15  N   UNL     1       0.994  11.732  21.057  0.00  0.00    +0.000 NA
ATOM     16  H   UNL     1       1.357   9.384  21.052  0.00  0.00    +0.000 HD
ENDBRANCH   5   7
BRANCH   1  19
ATOM     17  C   UNL     1       3.916   3.856  17.190  0.00  0.00    +0.000 C 
ATOM     18  O   UNL     1       2.760   3.599  16.866  0.00  0.00    +0.000 OA
ATOM     19  N   UNL     1       4.278   4.792  18.145  0.00  0.00    +0.000 N 
ATOM     20  H   UNL     1       5.192   5.214  18.020  0.00  0.00    +0.000 HD
BRANCH  17  21
ATOM     21  C   UNL     1       5.091   3.151  16.536  0.00  0.00    +0.000 C 
BRANCH  21  28
ATOM     22  C   UNL     1       7.457   5.169  17.670  0.00  0.00    +0.000 C 
ATOM     23  C   UNL     1       7.022   4.930  16.273  0.00  0.00    +0.000 A 
ATOM     24  N   UNL     1       7.615   5.613  15.283  0.00  0.00    +0.000 NA
ATOM     25  O   UNL     1       6.979   5.228  14.124  0.00  0.00    +0.000 OA
ATOM     26  C   UNL     1       6.022   4.314  14.414  0.00  0.00    +0.000 A 
ATOM     27  C   UNL     1       5.217   3.850  13.263  0.00  0.00    +0.000 C 
ATOM     28  C   UNL     1       6.015   4.054  15.774  0.00  0.00    +0.000 A 
ENDBRANCH  21  28
ENDBRANCH  17  21
ENDBRANCH   1  19
TORSDOF 4
ENDMDL
MODEL 4
REMARK VINA RESULT:      -8.0      1.483      2.017
REMARK  Name = 
REMARK  6 active torsions:
REMARK  status: ('A' for Active; 'I' for Inactive)
REMARK    1  A    between atoms: C_1  and  C_2
REMARK    2  A    between atoms: C_5  and  C_6
REMARK    3  A    between atoms: C_7  and  C_8
REMARK    4  A    between atoms: C_8  and  C_9
REMARK    5  A    between atoms: N_11  and  C_12
REMARK    6  A    between atoms: C_16  and  C_17
REMARK                            x       y       z     vdW  Elec       q    Type
REMARK                         _______ _______ _______ _____ _____    ______ ____
ROOT
ATOM      1  C   UNL     1       3.766   3.553  19.373  0.00  0.00    +0.000 A 
ATOM      2  C   UNL     1       3.428   2.537  20.273  0.00  0.00    +0.000 A 
ATOM      3  C   UNL     1       2.580   2.802  21.349  0.00  0.00    +0.000 A 
ATOM      4  C   UNL     1       2.013   4.066  21.504  0.00  0.00    +0.000 A 
ATOM      5  C   UNL     1       2.297   5.070  20.570  0.00  0.00    +0.000 A 
ATOM      6  C   UNL     1       3.188   4.823  19.518  0.00  0.00    +0.000 A 
ENDROOT
BRANCH   5   7
ATOM      7  C   UNL     1       1.577   6.369  20.650  0.00  0.00    +0.000 C 
ATOM      8  O   UNL     1       0.516   6.420  21.257  0.00  0.00    +0.000 OA
ATOM      9  N   UNL     1       2.178   7.413  19.972  0.00  0.00    +0.000 N 
ATOM     10  C   UNL     1       1.612   8.685  19.852  0.00  0.00    +0.000 A 
ATOM     11  C   UNL     1       0.978   9.328  20.910  0.00  0.00    +0.000 A 
ATOM     12  C   UNL     1       0.406  10.579  20.687  0.00  0.00    +0.000 A 
ATOM     13  C   UNL     1       0.454  11.129  19.412  0.00  0.00    +0.000 A 
ATOM     14  C   UNL     1       1.126  10.427  18.428  0.00  0.00    +0.000 A 
ATOM     15  N   UNL     1       1.749   9.242  18.630  0.00  0.00    +0.000 NA
ATOM     16  H   UNL     1       2.784   7.180  19.198  0.00  0.00    +0.000 HD
ENDBRANCH   5   7
BRANCH   1  19
ATOM     17  C   UNL     1       4.433   3.517  17.004  0.00  0.00    +0.000 C 
ATOM     18  O   UNL     1       3.444   4.110  16.581  0.00  0.00    +0.000 OA
ATOM     19  N   UNL     1       4.673   3.237  18.339  0.00  0.00    +0.000 N 
ATOM     20  H   UNL     1       5.651   3.156  18.600  0.00  0.00    +0.000 HD
BRANCH  17  21
ATOM     21  C   UNL     1       5.523   3.035  16.063  0.00  0.00    +0.000 C 
BRANCH  21  28
ATOM     22  C   UNL     1       6.215   3.629  12.882  0.00  0.00    +0.000 C 
ATOM     23  C   UNL     1       6.659   4.366  14.089  0.00  0.00    +0.000 A 
ATOM     24  N   UNL     1       7.476   5.419  13.942  0.00  0.00    +0.000 NA
ATOM     25  O   UNL     1       7.756   5.861  15.216  0.00  0.00    +0.000 OA
ATOM     26  C   UNL     1       7.104   5.089  16.118  0.00  0.00    +0.000 A 
ATOM     27  C   UNL     1       7.358   5.418  17.537  0.00  0.00    +0.000 C 
ATOM     28  C   UNL     1       6.356   4.127  15.461  0.00  0.00    +0.000 A 
ENDBRANCH  21  28
ENDBRANCH  17  21
ENDBRANCH   1  19
TORSDOF 4
ENDMDL
MODEL 5
REMARK VINA RESULT:      -8.0      1.438      1.619
REMARK  Name = 
REMARK  6 active torsions:
REMARK  status: ('A' for Active; 'I' for Inactive)
REMARK    1  A    between atoms: C_1  and  C_2
REMARK    2  A    between atoms: C_5  and  C_6
REMARK    3  A    between atoms: C_7  and  C_8
REMARK    4  A    between atoms: C_8  and  C_9
REMARK    5  A    between atoms: N_11  and  C_12
REMARK    6  A    between atoms: C_16  and  C_17
REMARK                            x       y       z     vdW  Elec       q    Type
REMARK                         _______ _______ _______ _____ _____    ______ ____
ROOT
ATOM      1  C   UNL     1       2.779   5.203  18.718  0.00  0.00    +0.000 A 
ATOM      2  C   UNL     1       2.229   4.344  19.675  0.00  0.00    +0.000 A 
ATOM      3  C   UNL     1       1.546   4.861  20.776  0.00  0.00    +0.000 A 
ATOM      4  C   UNL     1       1.351   6.235  20.902  0.00  0.00    +0.000 A 
ATOM      5  C   UNL     1       1.843   7.097  19.913  0.00  0.00    +0.000 A 
ATOM      6  C   UNL     1       2.574   6.586  18.833  0.00  0.00    +0.000 A 
ENDROOT
BRANCH   5   7
ATOM      7  C   UNL     1       1.506   8.545  19.970  0.00  0.00    +0.000 C 
ATOM      8  O   UNL     1       1.720   9.162  21.004  0.00  0.00    +0.000 OA
ATOM      9  N   UNL     1       0.925   9.053  18.823  0.00  0.00    +0.000 N 
ATOM     10  C   UNL     1       0.455  10.365  18.711  0.00  0.00    +0.000 A 
ATOM     11  C   UNL     1       1.149  11.458  19.217  0.00  0.00    +0.000 A 
ATOM     12  C   UNL     1       0.583  12.726  19.095  0.00  0.00    +0.000 A 
ATOM     13  C   UNL     1      -0.669  12.856  18.507  0.00  0.00    +0.000 A 
ATOM     14  C   UNL     1      -1.274  11.714  18.012  0.00  0.00    +0.000 A 
ATOM     15  N   UNL     1      -0.720  10.481  18.055  0.00  0.00    +0.000 NA
ATOM     16  H   UNL     1       0.431   8.408  18.224  0.00  0.00    +0.000 HD
ENDBRANCH   5   7
BRANCH   1  19
ATOM     17  C   UNL     1       4.628   3.829  17.849  0.00  0.00    +0.000 C 
ATOM     18  O   UNL     1       5.074   3.502  18.946  0.00  0.00    +0.000 OA
ATOM     19  N   UNL     1       3.509   4.623  17.658  0.00  0.00    +0.000 N 
ATOM     20  H   UNL     1       3.006   4.468  16.790  0.00  0.00    +0.000 HD
BRANCH  17  21
ATOM     21  C   UNL     1       5.285   3.362  16.562  0.00  0.00    +0.000 C 
BRANCH  21  28
ATOM     22  C   UNL     1       6.109   3.731  13.378  0.00  0.00    +0.000 C 
ATOM     23  C   UNL     1       6.559   4.509  14.557  0.00  0.00    +0.000 A 
ATOM     24  N   UNL     1       7.442   5.502  14.379  0.00  0.00    +0.000 NA
ATOM     25  O   UNL     1       7.708   6.000  15.635  0.00  0.00    +0.000 OA
ATOM     26  C   UNL     1       6.983   5.322  16.556  0.00  0.00    +0.000 A 
ATOM     27  C   UNL     1       7.213   5.716  17.963  0.00  0.00    +0.000 C 
ATOM     28  C   UNL     1       6.200   4.368  15.929  0.00  0.00    +0.000 A 
ENDBRANCH  21  28
ENDBRANCH  17  21
ENDBRANCH   1  19
TORSDOF 4
ENDMDL
MODEL 6
REMARK VINA RESULT:      -7.9      1.250      1.443
REMARK  Name = 
REMARK  6 active torsions:
REMARK  status: ('A' for Active; 'I' for Inactive)
REMARK    1  A    between atoms: C_1  and  C_2
REMARK    2  A    between atoms: C_5  and  C_6
REMARK    3  A    between atoms: C_7  and  C_8
REMARK    4  A    between atoms: C_8  and  C_9
REMARK    5  A    between atoms: N_11  and  C_12
REMARK    6  A    between atoms: C_16  and  C_17
REMARK                            x       y       z     vdW  Elec       q    Type
REMARK                         _______ _______ _______ _____ _____    ______ ____
ROOT
ATOM      1  C   UNL     1       3.050   3.940  19.018  0.00  0.00    +0.000 A 
ATOM      2  C   UNL     1       2.395   3.013  19.835  0.00  0.00    +0.000 A 
ATOM      3  C   UNL     1       1.562   3.448  20.867  0.00  0.00    +0.000 A 
ATOM      4  C   UNL     1       1.326   4.809  21.054  0.00  0.00    +0.000 A 
ATOM      5  C   UNL     1       1.928   5.740  20.198  0.00  0.00    +0.000 A 
ATOM      6  C   UNL     1       2.805   5.309  19.194  0.00  0.00    +0.000 A 
ENDROOT
BRANCH   5   7
ATOM      7  C   UNL     1       1.558   7.177  20.303  0.00  0.00    +0.000 C 
ATOM      8  O   UNL     1       2.185   7.998  19.647  0.00  0.00    +0.000 OA
ATOM      9  N   UNL     1       0.536   7.453  21.191  0.00  0.00    +0.000 N 
ATOM     10  C   UNL     1       0.105   8.747  21.497  0.00  0.00    +0.000 A 
ATOM     11  C   UNL     1      -0.049   9.735  20.531  0.00  0.00    +0.000 A 
ATOM     12  C   UNL     1      -0.443  11.010  20.934  0.00  0.00    +0.000 A 
ATOM     13  C   UNL     1      -0.634  11.265  22.286  0.00  0.00    +0.000 A 
ATOM     14  C   UNL     1      -0.480  10.214  23.172  0.00  0.00    +0.000 A 
ATOM     15  N   UNL     1      -0.163   8.950  22.804  0.00  0.00    +0.000 NA
ATOM     16  H   UNL     1       0.386   6.802  21.949  0.00  0.00    +0.000 HD
ENDBRANCH   5   7
BRANCH   1  19
ATOM     17  C   UNL     1       4.335   4.177  16.931  0.00  0.00    +0.000 C 
ATOM     18  O   UNL     1       4.032   5.349  16.723  0.00  0.00    +0.000 OA
ATOM     19  N   UNL     1       3.924   3.439  18.029  0.00  0.00    +0.000 N 
ATOM     20  H   UNL     1       4.548   2.690  18.310  0.00  0.00    +0.000 HD
BRANCH  17  21
ATOM     21  C   UNL     1       5.228   3.414  15.970  0.00  0.00    +0.000 C 
BRANCH  21  28
ATOM     22  C   UNL     1       5.928   3.474  12.735  0.00  0.00    +0.000 C 
ATOM     23  C   UNL     1       6.519   4.273  13.835  0.00  0.00    +0.000 A 
ATOM     24  N   UNL     1       7.496   5.145  13.549  0.00  0.00    +0.000 NA
ATOM     25  O   UNL     1       7.879   5.693  14.754  0.00  0.00    +0.000 OA
ATOM     26  C   UNL     1       7.130   5.163  15.751  0.00  0.00    +0.000 A 
ATOM     27  C   UNL     1       7.472   5.622  17.115  0.00  0.00    +0.000 C 
ATOM     28  C   UNL     1       6.216   4.265  15.227  0.00  0.00    +0.000 A 
ENDBRANCH  21  28
ENDBRANCH  17  21
ENDBRANCH   1  19
TORSDOF 4
ENDMDL
MODEL 7
REMARK VINA RESULT:      -7.8      1.597      2.623
REMARK  Name = 
REMARK  6 active torsions:
REMARK  status: ('A' for Active; 'I' for Inactive)
REMARK    1  A    between atoms: C_1  and  C_2
REMARK    2  A    between atoms: C_5  and  C_6
REMARK    3  A    between atoms: C_7  and  C_8
REMARK    4  A    between atoms: C_8  and  C_9
REMARK    5  A    between atoms: N_11  and  C_12
REMARK    6  A    between atoms: C_16  and  C_17
REMARK                            x       y       z     vdW  Elec       q    Type
REMARK                         _______ _______ _______ _____ _____    ______ ____
ROOT
ATOM      1  C   UNL     1       3.779   3.460  19.382  0.00  0.00    +0.000 A 
ATOM      2  C   UNL     1       3.435   2.473  20.311  0.00  0.00    +0.000 A 
ATOM      3  C   UNL     1       2.604   2.781  21.390  0.00  0.00    +0.000 A 
ATOM      4  C   UNL     1       2.060   4.058  21.518  0.00  0.00    +0.000 A 
ATOM      5  C   UNL     1       2.349   5.032  20.555  0.00  0.00    +0.000 A 
ATOM      6  C   UNL     1       3.224   4.742  19.499  0.00  0.00    +0.000 A 
ENDROOT
BRANCH   5   7
ATOM      7  C   UNL     1       1.651   6.345  20.608  0.00  0.00    +0.000 C 
ATOM      8  O   UNL     1       0.609   6.434  21.243  0.00  0.00    +0.000 OA
ATOM      9  N   UNL     1       2.247   7.353  19.875  0.00  0.00    +0.000 N 
ATOM     10  C   UNL     1       1.698   8.630  19.726  0.00  0.00    +0.000 A 
ATOM     11  C   UNL     1       1.104   9.320  20.777  0.00  0.00    +0.000 A 
ATOM     12  C   UNL     1       0.545  10.572  20.526  0.00  0.00    +0.000 A 
ATOM     13  C   UNL     1       0.564  11.075  19.231  0.00  0.00    +0.000 A 
ATOM     14  C   UNL     1       1.196  10.327  18.254  0.00  0.00    +0.000 A 
ATOM     15  N   UNL     1       1.807   9.141  18.481  0.00  0.00    +0.000 NA
ATOM     16  H   UNL     1       2.827   7.083  19.093  0.00  0.00    +0.000 HD
ENDBRANCH   5   7
BRANCH   1  19
ATOM     17  C   UNL     1       4.401   3.318  17.004  0.00  0.00    +0.000 C 
ATOM     18  O   UNL     1       3.400   3.883  16.573  0.00  0.00    +0.000 OA
ATOM     19  N   UNL     1       4.669   3.102  18.346  0.00  0.00    +0.000 N 
ATOM     20  H   UNL     1       5.651   3.039  18.591  0.00  0.00    +0.000 HD
BRANCH  17  21
ATOM     21  C   UNL     1       5.477   2.799  16.066  0.00  0.00    +0.000 C 
BRANCH  21  28
ATOM     22  C   UNL     1       7.353   5.148  17.451  0.00  0.00    +0.000 C 
ATOM     23  C   UNL     1       7.094   4.882  16.016  0.00  0.00    +0.000 A 
ATOM     24  N   UNL     1       7.652   5.685  15.098  0.00  0.00    +0.000 NA
ATOM     25  O   UNL     1       7.199   5.235  13.877  0.00  0.00    +0.000 OA
ATOM     26  C   UNL     1       6.388   4.166  14.060  0.00  0.00    +0.000 A 
ATOM     27  C   UNL     1       5.782   3.610  12.831  0.00  0.00    +0.000 C 
ATOM     28  C   UNL     1       6.300   3.866  15.409  0.00  0.00    +0.000 A 
ENDBRANCH  21  28
ENDBRANCH  17  21
ENDBRANCH   1  19
TORSDOF 4
ENDMDL
MODEL 8
REMARK VINA RESULT:      -7.8      1.932      9.001
REMARK  Name = 
REMARK  6 active torsions:
REMARK  status: ('A' for Active; 'I' for Inactive)
REMARK    1  A    between atoms: C_1  and  C_2
REMARK    2  A    between atoms: C_5  and  C_6
REMARK    3  A    between atoms: C_7  and  C_8
REMARK    4  A    between atoms: C_8  and  C_9
REMARK    5  A    between atoms: N_11  and  C_12
REMARK    6  A    between atoms: C_16  and  C_17
REMARK                            x       y       z     vdW  Elec       q    Type
REMARK                         _______ _______ _______ _____ _____    ______ ____
ROOT
ATOM      1  C   UNL     1       2.691   6.969  18.698  0.00  0.00    +0.000 A 
ATOM      2  C   UNL     1       3.041   6.120  19.752  0.00  0.00    +0.000 A 
ATOM      3  C   UNL     1       4.018   5.140  19.572  0.00  0.00    +0.000 A 
ATOM      4  C   UNL     1       4.698   5.038  18.359  0.00  0.00    +0.000 A 
ATOM      5  C   UNL     1       4.397   5.928  17.321  0.00  0.00    +0.000 A 
ATOM      6  C   UNL     1       3.381   6.879  17.480  0.00  0.00    +0.000 A 
ENDROOT
BRANCH   5   7
ATOM      7  C   UNL     1       5.224   5.918  16.084  0.00  0.00    +0.000 C 
ATOM      8  O   UNL     1       5.636   6.981  15.640  0.00  0.00    +0.000 OA
ATOM      9  N   UNL     1       5.416   4.670  15.521  0.00  0.00    +0.000 N 
ATOM     10  C   UNL     1       6.085   4.462  14.312  0.00  0.00    +0.000 A 
ATOM     11  C   UNL     1       7.254   5.137  13.975  0.00  0.00    +0.000 A 
ATOM     12  C   UNL     1       7.831   4.896  12.729  0.00  0.00    +0.000 A 
ATOM     13  C   UNL     1       7.205   4.021  11.850  0.00  0.00    +0.000 A 
ATOM     14  C   UNL     1       6.057   3.378  12.281  0.00  0.00    +0.000 A 
ATOM     15  N   UNL     1       5.512   3.541  13.509  0.00  0.00    +0.000 NA
ATOM     16  H   UNL     1       4.723   3.960  15.711  0.00  0.00    +0.000 HD
ENDBRANCH   5   7
BRANCH   1  19
ATOM     17  C   UNL     1       1.529   9.087  18.218  0.00  0.00    +0.000 C 
ATOM     18  O   UNL     1       2.261   9.431  17.294  0.00  0.00    +0.000 OA
ATOM     19  N   UNL     1       1.655   7.901  18.924  0.00  0.00    +0.000 N 
ATOM     20  H   UNL     1       0.797   7.539  19.327  0.00  0.00    +0.000 HD
BRANCH  17  21
ATOM     21  C   UNL     1       0.373   9.960  18.673  0.00  0.00    +0.000 C 
BRANCH  21  28
ATOM     22  C   UNL     1      -0.472   8.722  21.624  0.00  0.00    +0.000 C 
ATOM     23  C   UNL     1       0.163  10.023  21.301  0.00  0.00    +0.000 A 
ATOM     24  N   UNL     1       0.438  10.874  22.300  0.00  0.00    +0.000 NA
ATOM     25  O   UNL     1       0.965  11.998  21.704  0.00  0.00    +0.000 OA
ATOM     26  C   UNL     1       1.016  11.819  20.362  0.00  0.00    +0.000 A 
ATOM     27  C   UNL     1       1.512  12.974  19.584  0.00  0.00    +0.000 C 
ATOM     28  C   UNL     1       0.543  10.559  20.037  0.00  0.00    +0.000 A 
ENDBRANCH  21  28
ENDBRANCH  17  21
ENDBRANCH   1  19
TORSDOF 4
ENDMDL
MODEL 9
REMARK VINA RESULT:      -7.8      2.808      5.015
REMARK  Name = 
REMARK  6 active torsions:
REMARK  status: ('A' for Active; 'I' for Inactive)
REMARK    1  A    between atoms: C_1  and  C_2
REMARK    2  A    between atoms: C_5  and  C_6
REMARK    3  A    between atoms: C_7  and  C_8
REMARK    4  A    between atoms: C_8  and  C_9
REMARK    5  A    between atoms: N_11  and  C_12
REMARK    6  A    between atoms: C_16  and  C_17
REMARK                            x       y       z     vdW  Elec       q    Type
REMARK                         _______ _______ _______ _____ _____    ______ ____
ROOT
ATOM      1  C   UNL     1       1.575   8.427  20.037  0.00  0.00    +0.000 A 
ATOM      2  C   UNL     1       1.559   8.925  18.731  0.00  0.00    +0.000 A 
ATOM      3  C   UNL     1       0.765  10.026  18.406  0.00  0.00    +0.000 A 
ATOM      4  C   UNL     1       0.028  10.678  19.393  0.00  0.00    +0.000 A 
ATOM      5  C   UNL     1       0.090  10.223  20.716  0.00  0.00    +0.000 A 
ATOM      6  C   UNL     1       0.845   9.087  21.036  0.00  0.00    +0.000 A 
ENDROOT
BRANCH   5   7
ATOM      7  C   UNL     1      -0.574  11.007  21.792  0.00  0.00    +0.000 C 
ATOM      8  O   UNL     1      -0.202  10.857  22.948  0.00  0.00    +0.000 OA
ATOM      9  N   UNL     1      -1.606  11.822  21.368  0.00  0.00    +0.000 N 
ATOM     10  C   UNL     1      -2.411  12.567  22.235  0.00  0.00    +0.000 A 
ATOM     11  C   UNL     1      -1.897  13.260  23.326  0.00  0.00    +0.000 A 
ATOM     12  C   UNL     1      -2.780  13.943  24.161  0.00  0.00    +0.000 A 
ATOM     13  C   UNL     1      -4.144  13.881  23.902  0.00  0.00    +0.000 A 
ATOM     14  C   UNL     1      -4.560  13.185  22.780  0.00  0.00    +0.000 A 
ATOM     15  N   UNL     1      -3.722  12.570  21.914  0.00  0.00    +0.000 NA
ATOM     16  H   UNL     1      -2.084  11.567  20.515  0.00  0.00    +0.000 HD
ENDBRANCH   5   7
BRANCH   1  19
ATOM     17  C   UNL     1       2.638   6.323  19.326  0.00  0.00    +0.000 C 
ATOM     18  O   UNL     1       2.298   6.398  18.148  0.00  0.00    +0.000 OA
ATOM     19  N   UNL     1       2.352   7.276  20.290  0.00  0.00    +0.000 N 
ATOM     20  H   UNL     1       3.012   7.332  21.059  0.00  0.00    +0.000 HD
BRANCH  17  21
ATOM     21  C   UNL     1       3.440   5.142  19.840  0.00  0.00    +0.000 C 
BRANCH  21  28
ATOM     22  C   UNL     1       4.274   3.657  17.002  0.00  0.00    +0.000 C 
ATOM     23  C   UNL     1       3.361   3.186  18.071  0.00  0.00    +0.000 A 
ATOM     24  N   UNL     1       2.736   2.011  17.917  0.00  0.00    +0.000 NA
ATOM     25  O   UNL     1       1.929   1.864  19.023  0.00  0.00    +0.000 OA
ATOM     26  C   UNL     1       2.078   2.935  19.839  0.00  0.00    +0.000 A 
ATOM     27  C   UNL     1       1.225   2.939  21.047  0.00  0.00    +0.000 C 
ATOM     28  C   UNL     1       3.007   3.811  19.301  0.00  0.00    +0.000 A 
ENDBRANCH  21  28
ENDBRANCH  17  21
ENDBRANCH   1  19
TORSDOF 4
ENDMDL
