MODEL 1
REMARK VINA RESULT:      -8.2      0.000      0.000
REMARK  Name = 
REMARK  3 active torsions:
REMARK  status: ('A' for Active; 'I' for Inactive)
REMARK    1  A    between atoms: C_1  and  C_2
REMARK    2  A    between atoms: C_9  and  C_10
REMARK    3  A    between atoms: C_10  and  N_11
REMARK                            x       y       z     vdW  Elec       q    Type
REMARK                         _______ _______ _______ _____ _____    ______ ____
ROOT
ATOM      1  N   UNL     1      -2.504  12.084  21.733  0.00  0.00    +0.000 N 
ATOM      2  C   UNL     1      -2.136  11.636  22.993  0.00  0.00    +0.000 C 
ATOM      3  O   UNL     1      -1.053  11.212  23.358  0.00  0.00    +0.000 OA
ATOM      4  N   UNL     1      -3.170  11.992  23.883  0.00  0.00    +0.000 N 
ATOM      5  C   UNL     1      -3.757  13.212  23.349  0.00  0.00    +0.000 C 
ATOM      6  C   UNL     1      -2.713  14.334  23.649  0.00  0.00    +0.000 C 
ATOM      7  C   UNL     1      -3.105  15.732  23.235  0.00  0.00    +0.000 C 
ATOM      8  C   UNL     1      -4.544  16.100  23.520  0.00  0.00    +0.000 C 
ATOM      9  C   UNL     1      -5.522  14.974  23.707  0.00  0.00    +0.000 A 
ATOM     10  C   UNL     1      -6.870  15.355  23.842  0.00  0.00    +0.000 A 
ATOM     11  C   UNL     1      -7.865  14.404  24.010  0.00  0.00    +0.000 A 
ATOM     12  C   UNL     1      -7.520  13.058  24.068  0.00  0.00    +0.000 A 
ATOM     13  C   UNL     1      -6.181  12.661  23.931  0.00  0.00    +0.000 A 
ATOM     14  C   UNL     1      -5.163  13.607  23.735  0.00  0.00    +0.000 A 
ATOM     15  C   UNL     1      -3.656  12.795  21.876  0.00  0.00    +0.000 C 
ATOM     16  O   UNL     1      -4.353  13.183  20.944  0.00  0.00    +0.000 OA
ATOM     17  H   UNL     1      -2.941  11.921  24.862  0.00  0.00    +0.000 HD
ENDROOT
BRANCH   1  18
ATOM     18  C   UNL     1      -1.542  12.594  20.776  0.00  0.00    +0.000 C 
BRANCH  18  27
ATOM     19  C   UNL     1      -3.965   9.966  15.054  0.00  0.00    +0.000 C 
ATOM     20  C   UNL     1      -3.239  10.415  16.291  0.00  0.00    +0.000 A 
ATOM     21  C   UNL     1      -2.010   9.832  16.617  0.00  0.00    +0.000 A 
ATOM     22  C   UNL     1      -1.313  10.254  17.754  0.00  0.00    +0.000 A 
ATOM     23  O   UNL     1      -0.072   9.630  17.968  0.00  0.00    +0.000 OA
ATOM     24  C   UNL     1       0.742  10.002  19.022  0.00  0.00    +0.000 A 
ATOM     25  O   UNL     1       1.859   9.534  19.181  0.00  0.00    +0.000 OA
ATOM     26  C   UNL     1       0.201  11.001  19.970  0.00  0.00    +0.000 A 
ATOM     27  C   UNL     1      -0.992  11.595  19.806  0.00  0.00    +0.000 A 
ATOM     28  C   UNL     1      -1.790  11.243  18.610  0.00  0.00    +0.000 A 
ATOM     29  C   UNL     1      -3.021  11.830  18.274  0.00  0.00    +0.000 A 
ATOM     30  C   UNL     1      -3.733  11.423  17.129  0.00  0.00    +0.000 A 
ATOM     31 CL   UNL     1      -5.231  12.218  16.791  0.00  0.00    +0.000 Cl
ENDBRANCH  18  27
ENDBRANCH   1  18
TORSDOF 2
ENDMDL
MODEL 2
REMARK VINA RESULT:      -7.7      4.627      9.720
REMARK  Name = 
REMARK  3 active torsions:
REMARK  status: ('A' for Active; 'I' for Inactive)
REMARK    1  A    between atoms: C_1  and  C_2
REMARK    2  A    between atoms: C_9  and  C_10
REMARK    3  A    between atoms: C_10  and  N_11
REMARK                            x       y       z     vdW  Elec       q    Type
REMARK                         _______ _______ _______ _____ _____    ______ ____
ROOT
ATOM      1  N   UNL     1       2.115   8.022  19.199  0.00  0.00    +0.000 N 
ATOM      2  C   UNL     1       1.974   7.328  20.391  0.00  0.00    +0.000 C 
ATOM      3  O   UNL     1       1.059   7.385  21.194  0.00  0.00    +0.000 OA
ATOM      4  N   UNL     1       2.964   6.326  20.413  0.00  0.00    +0.000 N 
ATOM      5  C   UNL     1       3.195   5.959  19.023  0.00  0.00    +0.000 C 
ATOM      6  C   UNL     1       1.942   5.124  18.607  0.00  0.00    +0.000 C 
ATOM      7  C   UNL     1       1.952   4.570  17.202  0.00  0.00    +0.000 C 
ATOM      8  C   UNL     1       3.280   4.006  16.750  0.00  0.00    +0.000 C 
ATOM      9  C   UNL     1       4.512   4.463  17.481  0.00  0.00    +0.000 A 
ATOM     10  C   UNL     1       5.735   4.016  16.950  0.00  0.00    +0.000 A 
ATOM     11  C   UNL     1       6.939   4.381  17.532  0.00  0.00    +0.000 A 
ATOM     12  C   UNL     1       6.933   5.181  18.670  0.00  0.00    +0.000 A 
ATOM     13  C   UNL     1       5.721   5.638  19.210  0.00  0.00    +0.000 A 
ATOM     14  C   UNL     1       4.493   5.300  18.620  0.00  0.00    +0.000 A 
ATOM     15  C   UNL     1       3.072   7.384  18.469  0.00  0.00    +0.000 C 
ATOM     16  O   UNL     1       3.574   7.828  17.442  0.00  0.00    +0.000 OA
ATOM     17  H   UNL     1       2.843   5.613  21.115  0.00  0.00    +0.000 HD
ENDROOT
BRANCH   1  18
ATOM     18  C   UNL     1       0.981   8.546  18.463  0.00  0.00    +0.000 C 
BRANCH  18  27
ATOM     19  C   UNL     1      -4.645  11.886  16.817  0.00  0.00    +0.000 C 
ATOM     20  C   UNL     1      -3.383  11.285  17.369  0.00  0.00    +0.000 A 
ATOM     21  C   UNL     1      -2.801  11.837  18.514  0.00  0.00    +0.000 A 
ATOM     22  C   UNL     1      -1.638  11.277  19.051  0.00  0.00    +0.000 A 
ATOM     23  O   UNL     1      -1.159  11.885  20.224  0.00  0.00    +0.000 OA
ATOM     24  C   UNL     1      -0.052  11.387  20.886  0.00  0.00    +0.000 A 
ATOM     25  O   UNL     1       0.333  11.846  21.950  0.00  0.00    +0.000 OA
ATOM     26  C   UNL     1       0.664  10.260  20.247  0.00  0.00    +0.000 A 
ATOM     27  C   UNL     1       0.245   9.676  19.114  0.00  0.00    +0.000 A 
ATOM     28  C   UNL     1      -1.001  10.173  18.489  0.00  0.00    +0.000 A 
ATOM     29  C   UNL     1      -1.593   9.618  17.342  0.00  0.00    +0.000 A 
ATOM     30  C   UNL     1      -2.769  10.165  16.793  0.00  0.00    +0.000 A 
ATOM     31 CL   UNL     1      -3.430   9.399  15.390  0.00  0.00    +0.000 Cl
ENDBRANCH  18  27
ENDBRANCH   1  18
TORSDOF 2
ENDMDL
MODEL 3
REMARK VINA RESULT:      -7.6      3.090      7.412
REMARK  Name = 
REMARK  3 active torsions:
REMARK  status: ('A' for Active; 'I' for Inactive)
REMARK    1  A    between atoms: C_1  and  C_2
REMARK    2  A    between atoms: C_9  and  C_10
REMARK    3  A    between atoms: C_10  and  N_11
REMARK                            x       y       z     vdW  Elec       q    Type
REMARK                         _______ _______ _______ _____ _____    ______ ____
ROOT
ATOM      1  N   UNL     1      -0.501  11.821  18.506  0.00  0.00    +0.000 N 
ATOM      2  C   UNL     1       0.714  12.488  18.459  0.00  0.00    +0.000 C 
ATOM      3  O   UNL     1       0.922  13.686  18.544  0.00  0.00    +0.000 OA
ATOM      4  N   UNL     1       1.730  11.515  18.550  0.00  0.00    +0.000 N 
ATOM      5  C   UNL     1       1.177  10.430  19.346  0.00  0.00    +0.000 C 
ATOM      6  C   UNL     1       1.152  10.967  20.812  0.00  0.00    +0.000 C 
ATOM      7  C   UNL     1       0.660  10.002  21.864  0.00  0.00    +0.000 C 
ATOM      8  C   UNL     1       1.158   8.583  21.707  0.00  0.00    +0.000 C 
ATOM      9  C   UNL     1       1.646   8.166  20.348  0.00  0.00    +0.000 A 
ATOM     10  C   UNL     1       1.980   6.806  20.213  0.00  0.00    +0.000 A 
ATOM     11  C   UNL     1       2.432   6.302  19.003  0.00  0.00    +0.000 A 
ATOM     12  C   UNL     1       2.580   7.159  17.918  0.00  0.00    +0.000 A 
ATOM     13  C   UNL     1       2.248   8.518  18.036  0.00  0.00    +0.000 A 
ATOM     14  C   UNL     1       1.764   9.042  19.245  0.00  0.00    +0.000 A 
ATOM     15  C   UNL     1      -0.233  10.507  18.745  0.00  0.00    +0.000 C 
ATOM     16  O   UNL     1      -1.061   9.605  18.672  0.00  0.00    +0.000 OA
ATOM     17  H   UNL     1       2.653  11.871  18.744  0.00  0.00    +0.000 HD
ENDROOT
BRANCH   1  18
ATOM     18  C   UNL     1      -1.669  12.374  19.163  0.00  0.00    +0.000 C 
BRANCH  18  27
ATOM     19  C   UNL     1      -7.916  12.211  21.704  0.00  0.00    +0.000 C 
ATOM     20  C   UNL     1      -6.623  12.169  20.940  0.00  0.00    +0.000 A 
ATOM     21  C   UNL     1      -6.613  11.683  19.630  0.00  0.00    +0.000 A 
ATOM     22  C   UNL     1      -5.420  11.657  18.899  0.00  0.00    +0.000 A 
ATOM     23  O   UNL     1      -5.530  11.184  17.580  0.00  0.00    +0.000 OA
ATOM     24  C   UNL     1      -4.435  11.166  16.735  0.00  0.00    +0.000 A 
ATOM     25  O   UNL     1      -4.522  10.840  15.562  0.00  0.00    +0.000 OA
ATOM     26  C   UNL     1      -3.131  11.561  17.314  0.00  0.00    +0.000 A 
ATOM     27  C   UNL     1      -2.992  11.991  18.577  0.00  0.00    +0.000 A 
ATOM     28  C   UNL     1      -4.204  12.091  19.421  0.00  0.00    +0.000 A 
ATOM     29  C   UNL     1      -4.221  12.586  20.736  0.00  0.00    +0.000 A 
ATOM     30  C   UNL     1      -5.414  12.627  21.483  0.00  0.00    +0.000 A 
ATOM     31 CL   UNL     1      -5.335  13.269  23.086  0.00  0.00    +0.000 Cl
ENDBRANCH  18  27
ENDBRANCH   1  18
TORSDOF 2
ENDMDL
MODEL 4
REMARK VINA RESULT:      -7.4      5.062      7.636
REMARK  Name = 
REMARK  3 active torsions:
REMARK  status: ('A' for Active; 'I' for Inactive)
REMARK    1  A    between atoms: C_1  and  C_2
REMARK    2  A    between atoms: C_9  and  C_10
REMARK    3  A    between atoms: C_10  and  N_11
REMARK                            x       y       z     vdW  Elec       q    Type
REMARK                         _______ _______ _______ _____ _____    ______ ____
ROOT
ATOM      1  N   UNL     1       0.798  12.987  19.679  0.00  0.00    +0.000 N 
ATOM      2  C   UNL     1       0.965  11.817  20.404  0.00  0.00    +0.000 C 
ATOM      3  O   UNL     1       1.617  11.644  21.419  0.00  0.00    +0.000 OA
ATOM      4  N   UNL     1       0.034  10.881  19.910  0.00  0.00    +0.000 N 
ATOM      5  C   UNL     1      -1.107  11.657  19.447  0.00  0.00    +0.000 C 
ATOM      6  C   UNL     1      -1.832  12.135  20.745  0.00  0.00    +0.000 C 
ATOM      7  C   UNL     1      -3.099  12.931  20.542  0.00  0.00    +0.000 C 
ATOM      8  C   UNL     1      -4.008  12.412  19.451  0.00  0.00    +0.000 C 
ATOM      9  C   UNL     1      -3.397  11.526  18.402  0.00  0.00    +0.000 A 
ATOM     10  C   UNL     1      -4.245  11.168  17.338  0.00  0.00    +0.000 A 
ATOM     11  C   UNL     1      -3.790  10.363  16.306  0.00  0.00    +0.000 A 
ATOM     12  C   UNL     1      -2.484   9.884  16.338  0.00  0.00    +0.000 A 
ATOM     13  C   UNL     1      -1.625  10.234  17.391  0.00  0.00    +0.000 A 
ATOM     14  C   UNL     1      -2.060  11.069  18.432  0.00  0.00    +0.000 A 
ATOM     15  C   UNL     1      -0.279  12.809  18.864  0.00  0.00    +0.000 C 
ATOM     16  O   UNL     1      -0.602  13.574  17.962  0.00  0.00    +0.000 OA
ATOM     17  H   UNL     1      -0.103  10.064  20.484  0.00  0.00    +0.000 HD
ENDROOT
BRANCH   1  18
ATOM     18  C   UNL     1       0.951  14.301  20.273  0.00  0.00    +0.000 C 
BRANCH  18  27
ATOM     19  C   UNL     1       7.469  15.407  21.617  0.00  0.00    +0.000 C 
ATOM     20  C   UNL     1       6.045  15.318  21.146  0.00  0.00    +0.000 A 
ATOM     21  C   UNL     1       5.609  16.149  20.110  0.00  0.00    +0.000 A 
ATOM     22  C   UNL     1       4.292  16.063  19.647  0.00  0.00    +0.000 A 
ATOM     23  O   UNL     1       3.970  16.917  18.578  0.00  0.00    +0.000 OA
ATOM     24  C   UNL     1       2.718  16.884  17.990  0.00  0.00    +0.000 A 
ATOM     25  O   UNL     1       2.441  17.555  17.009  0.00  0.00    +0.000 OA
ATOM     26  C   UNL     1       1.709  15.994  18.606  0.00  0.00    +0.000 A 
ATOM     27  C   UNL     1       1.980  15.188  19.644  0.00  0.00    +0.000 A 
ATOM     28  C   UNL     1       3.359  15.178  20.181  0.00  0.00    +0.000 A 
ATOM     29  C   UNL     1       3.803  14.339  21.217  0.00  0.00    +0.000 A 
ATOM     30  C   UNL     1       5.128  14.407  21.690  0.00  0.00    +0.000 A 
ATOM     31 CL   UNL     1       5.584  13.322  22.957  0.00  0.00    +0.000 Cl
ENDBRANCH  18  27
ENDBRANCH   1  18
TORSDOF 2
ENDMDL
MODEL 5
REMARK VINA RESULT:      -7.4      8.848     11.209
REMARK  Name = 
REMARK  3 active torsions:
REMARK  status: ('A' for Active; 'I' for Inactive)
REMARK    1  A    between atoms: C_1  and  C_2
REMARK    2  A    between atoms: C_9  and  C_10
REMARK    3  A    between atoms: C_10  and  N_11
REMARK                            x       y       z     vdW  Elec       q    Type
REMARK                         _______ _______ _______ _____ _____    ______ ____
ROOT
ATOM      1  N   UNL     1       5.813  15.772  18.878  0.00  0.00    +0.000 N 
ATOM      2  C   UNL     1       5.635  14.856  17.852  0.00  0.00    +0.000 C 
ATOM      3  O   UNL     1       6.301  13.867  17.598  0.00  0.00    +0.000 OA
ATOM      4  N   UNL     1       4.376  15.114  17.274  0.00  0.00    +0.000 N 
ATOM      5  C   UNL     1       3.543  15.642  18.344  0.00  0.00    +0.000 C 
ATOM      6  C   UNL     1       3.206  14.413  19.246  0.00  0.00    +0.000 C 
ATOM      7  C   UNL     1       2.297  14.682  20.421  0.00  0.00    +0.000 C 
ATOM      8  C   UNL     1       1.134  15.603  20.128  0.00  0.00    +0.000 C 
ATOM      9  C   UNL     1       1.250  16.506  18.932  0.00  0.00    +0.000 A 
ATOM     10  C   UNL     1       0.206  17.435  18.767  0.00  0.00    +0.000 A 
ATOM     11  C   UNL     1       0.209  18.328  17.707  0.00  0.00    +0.000 A 
ATOM     12  C   UNL     1       1.247  18.287  16.782  0.00  0.00    +0.000 A 
ATOM     13  C   UNL     1       2.298  17.369  16.934  0.00  0.00    +0.000 A 
ATOM     14  C   UNL     1       2.325  16.474  18.015  0.00  0.00    +0.000 A 
ATOM     15  C   UNL     1       4.653  16.474  19.000  0.00  0.00    +0.000 C 
ATOM     16  O   UNL     1       4.519  17.480  19.689  0.00  0.00    +0.000 OA
ATOM     17  H   UNL     1       4.025  14.393  16.663  0.00  0.00    +0.000 HD
ENDROOT
BRANCH   1  18
ATOM     18  C   UNL     1       6.501  15.438  20.110  0.00  0.00    +0.000 C 
BRANCH  18  27
ATOM     19  C   UNL     1      12.172  11.795  19.808  0.00  0.00    +0.000 C 
ATOM     20  C   UNL     1      11.050  12.791  19.899  0.00  0.00    +0.000 A 
ATOM     21  C   UNL     1      11.344  14.139  20.123  0.00  0.00    +0.000 A 
ATOM     22  C   UNL     1      10.313  15.081  20.190  0.00  0.00    +0.000 A 
ATOM     23  O   UNL     1      10.721  16.413  20.381  0.00  0.00    +0.000 OA
ATOM     24  C   UNL     1       9.801  17.446  20.403  0.00  0.00    +0.000 A 
ATOM     25  O   UNL     1      10.138  18.616  20.484  0.00  0.00    +0.000 OA
ATOM     26  C   UNL     1       8.371  17.075  20.327  0.00  0.00    +0.000 A 
ATOM     27  C   UNL     1       7.950  15.810  20.171  0.00  0.00    +0.000 A 
ATOM     28  C   UNL     1       8.969  14.743  20.051  0.00  0.00    +0.000 A 
ATOM     29  C   UNL     1       8.679  13.388  19.818  0.00  0.00    +0.000 A 
ATOM     30  C   UNL     1       9.706  12.427  19.741  0.00  0.00    +0.000 A 
ATOM     31 CL   UNL     1       9.249  10.788  19.434  0.00  0.00    +0.000 Cl
ENDBRANCH  18  27
ENDBRANCH   1  18
TORSDOF 2
ENDMDL
MODEL 6
REMARK VINA RESULT:      -7.3      5.844      8.437
REMARK  Name = 
REMARK  3 active torsions:
REMARK  status: ('A' for Active; 'I' for Inactive)
REMARK    1  A    between atoms: C_1  and  C_2
REMARK    2  A    between atoms: C_9  and  C_10
REMARK    3  A    between atoms: C_10  and  N_11
REMARK                            x       y       z     vdW  Elec       q    Type
REMARK                         _______ _______ _______ _____ _____    ______ ____
ROOT
ATOM      1  N   UNL     1       1.345  13.907  19.491  0.00  0.00    +0.000 N 
ATOM      2  C   UNL     1       0.063  14.021  18.974  0.00  0.00    +0.000 C 
ATOM      3  O   UNL     1      -0.306  14.664  18.007  0.00  0.00    +0.000 OA
ATOM      4  N   UNL     1      -0.734  13.048  19.610  0.00  0.00    +0.000 N 
ATOM      5  C   UNL     1       0.159  11.943  19.929  0.00  0.00    +0.000 C 
ATOM      6  C   UNL     1       0.444  11.241  18.563  0.00  0.00    +0.000 C 
ATOM      7  C   UNL     1       1.319  10.012  18.620  0.00  0.00    +0.000 C 
ATOM      8  C   UNL     1       1.032   9.080  19.775  0.00  0.00    +0.000 C 
ATOM      9  C   UNL     1       0.308   9.650  20.962  0.00  0.00    +0.000 A 
ATOM     10  C   UNL     1       0.172   8.787  22.065  0.00  0.00    +0.000 A 
ATOM     11  C   UNL     1      -0.469   9.205  23.221  0.00  0.00    +0.000 A 
ATOM     12  C   UNL     1      -1.004  10.488  23.280  0.00  0.00    +0.000 A 
ATOM     13  C   UNL     1      -0.874  11.362  22.190  0.00  0.00    +0.000 A 
ATOM     14  C   UNL     1      -0.207  10.965  21.020  0.00  0.00    +0.000 A 
ATOM     15  C   UNL     1       1.355  12.823  20.316  0.00  0.00    +0.000 C 
ATOM     16  O   UNL     1       2.274  12.535  21.075  0.00  0.00    +0.000 OA
ATOM     17  H   UNL     1      -1.629  12.874  19.181  0.00  0.00    +0.000 HD
ENDROOT
BRANCH   1  18
ATOM     18  C   UNL     1       2.532  14.119  18.686  0.00  0.00    +0.000 C 
BRANCH  18  27
ATOM     19  C   UNL     1       9.077  15.595  17.979  0.00  0.00    +0.000 C 
ATOM     20  C   UNL     1       7.600  15.480  18.230  0.00  0.00    +0.000 A 
ATOM     21  C   UNL     1       6.928  16.524  18.873  0.00  0.00    +0.000 A 
ATOM     22  C   UNL     1       5.549  16.441  19.094  0.00  0.00    +0.000 A 
ATOM     23  O   UNL     1       4.968  17.560  19.713  0.00  0.00    +0.000 OA
ATOM     24  C   UNL     1       3.603  17.627  19.933  0.00  0.00    +0.000 A 
ATOM     25  O   UNL     1       3.065  18.622  20.392  0.00  0.00    +0.000 OA
ATOM     26  C   UNL     1       2.807  16.429  19.587  0.00  0.00    +0.000 A 
ATOM     27  C   UNL     1       3.339  15.335  19.019  0.00  0.00    +0.000 A 
ATOM     28  C   UNL     1       4.786  15.341  18.709  0.00  0.00    +0.000 A 
ATOM     29  C   UNL     1       5.465  14.298  18.057  0.00  0.00    +0.000 A 
ATOM     30  C   UNL     1       6.851  14.369  17.818  0.00  0.00    +0.000 A 
ATOM     31 CL   UNL     1       7.592  13.042  16.994  0.00  0.00    +0.000 Cl
ENDBRANCH  18  27
ENDBRANCH   1  18
TORSDOF 2
ENDMDL
MODEL 7
REMARK VINA RESULT:      -7.1      2.892      7.599
REMARK  Name = 
REMARK  3 active torsions:
REMARK  status: ('A' for Active; 'I' for Inactive)
REMARK    1  A    between atoms: C_1  and  C_2
REMARK    2  A    between atoms: C_9  and  C_10
REMARK    3  A    between atoms: C_10  and  N_11
REMARK                            x       y       z     vdW  Elec       q    Type
REMARK                         _______ _______ _______ _____ _____    ______ ____
ROOT
ATOM      1  N   UNL     1      -1.117  11.939  19.509  0.00  0.00    +0.000 N 
ATOM      2  C   UNL     1      -0.012  12.776  19.559  0.00  0.00    +0.000 C 
ATOM      3  O   UNL     1       0.044  13.930  19.948  0.00  0.00    +0.000 OA
ATOM      4  N   UNL     1       1.127  11.982  19.318  0.00  0.00    +0.000 N 
ATOM      5  C   UNL     1       0.808  10.657  19.830  0.00  0.00    +0.000 C 
ATOM      6  C   UNL     1       0.869  10.793  21.385  0.00  0.00    +0.000 C 
ATOM      7  C   UNL     1       0.622   9.528  22.171  0.00  0.00    +0.000 C 
ATOM      8  C   UNL     1       1.282   8.290  21.608  0.00  0.00    +0.000 C 
ATOM      9  C   UNL     1       1.674   8.313  20.156  0.00  0.00    +0.000 A 
ATOM     10  C   UNL     1       2.168   7.101  19.640  0.00  0.00    +0.000 A 
ATOM     11  C   UNL     1       2.551   6.998  18.311  0.00  0.00    +0.000 A 
ATOM     12  C   UNL     1       2.469   8.116  17.487  0.00  0.00    +0.000 A 
ATOM     13  C   UNL     1       1.976   9.331  17.987  0.00  0.00    +0.000 A 
ATOM     14  C   UNL     1       1.559   9.449  19.322  0.00  0.00    +0.000 A 
ATOM     15  C   UNL     1      -0.656  10.666  19.369  0.00  0.00    +0.000 C 
ATOM     16  O   UNL     1      -1.360   9.695  19.114  0.00  0.00    +0.000 OA
ATOM     17  H   UNL     1       2.010  12.415  19.538  0.00  0.00    +0.000 HD
ENDROOT
BRANCH   1  18
ATOM     18  C   UNL     1      -2.271  12.120  20.368  0.00  0.00    +0.000 C 
BRANCH  18  27
ATOM     19  C   UNL     1      -7.917  15.326  22.201  0.00  0.00    +0.000 C 
ATOM     20  C   UNL     1      -6.771  14.568  21.593  0.00  0.00    +0.000 A 
ATOM     21  C   UNL     1      -6.928  13.979  20.334  0.00  0.00    +0.000 A 
ATOM     22  C   UNL     1      -5.864  13.287  19.746  0.00  0.00    +0.000 A 
ATOM     23  O   UNL     1      -6.116  12.767  18.464  0.00  0.00    +0.000 OA
ATOM     24  C   UNL     1      -5.127  12.116  17.750  0.00  0.00    +0.000 A 
ATOM     25  O   UNL     1      -5.296  11.730  16.604  0.00  0.00    +0.000 OA
ATOM     26  C   UNL     1      -3.835  11.896  18.437  0.00  0.00    +0.000 A 
ATOM     27  C   UNL     1      -3.574  12.358  19.671  0.00  0.00    +0.000 A 
ATOM     28  C   UNL     1      -4.625  13.138  20.363  0.00  0.00    +0.000 A 
ATOM     29  C   UNL     1      -4.470  13.737  21.624  0.00  0.00    +0.000 A 
ATOM     30  C   UNL     1      -5.528  14.444  22.228  0.00  0.00    +0.000 A 
ATOM     31 CL   UNL     1      -5.235  15.160  23.774  0.00  0.00    +0.000 Cl
ENDBRANCH  18  27
ENDBRANCH   1  18
TORSDOF 2
ENDMDL
MODEL 8
REMARK VINA RESULT:      -7.1      2.586      6.971
REMARK  Name = 
REMARK  3 active torsions:
REMARK  status: ('A' for Active; 'I' for Inactive)
REMARK    1  A    between atoms: C_1  and  C_2
REMARK    2  A    between atoms: C_9  and  C_10
REMARK    3  A    between atoms: C_10  and  N_11
REMARK                            x       y       z     vdW  Elec       q    Type
REMARK                         _______ _______ _______ _____ _____    ______ ____
ROOT
ATOM      1  N   UNL     1      -2.068  12.891  21.741  0.00  0.00    +0.000 N 
ATOM      2  C   UNL     1      -1.027  13.430  22.483  0.00  0.00    +0.000 C 
ATOM      3  O   UNL     1      -1.084  14.017  23.549  0.00  0.00    +0.000 OA
ATOM      4  N   UNL     1       0.176  12.959  21.919  0.00  0.00    +0.000 N 
ATOM      5  C   UNL     1      -0.127  11.650  21.360  0.00  0.00    +0.000 C 
ATOM      6  C   UNL     1      -0.264  10.701  22.593  0.00  0.00    +0.000 C 
ATOM      7  C   UNL     1      -0.532   9.247  22.283  0.00  0.00    +0.000 C 
ATOM      8  C   UNL     1       0.261   8.687  21.125  0.00  0.00    +0.000 C 
ATOM      9  C   UNL     1       0.825   9.665  20.133  0.00  0.00    +0.000 A 
ATOM     10  C   UNL     1       1.445   9.099  19.005  0.00  0.00    +0.000 A 
ATOM     11  C   UNL     1       1.994   9.902  18.016  0.00  0.00    +0.000 A 
ATOM     12  C   UNL     1       1.949  11.285  18.157  0.00  0.00    +0.000 A 
ATOM     13  C   UNL     1       1.330  11.866  19.275  0.00  0.00    +0.000 A 
ATOM     14  C   UNL     1       0.747  11.070  20.274  0.00  0.00    +0.000 A 
ATOM     15  C   UNL     1      -1.522  12.027  20.842  0.00  0.00    +0.000 C 
ATOM     16  O   UNL     1      -2.134  11.511  19.913  0.00  0.00    +0.000 OA
ATOM     17  H   UNL     1       1.000  13.096  22.483  0.00  0.00    +0.000 HD
ENDROOT
BRANCH   1  18
ATOM     18  C   UNL     1      -3.327  12.492  22.341  0.00  0.00    +0.000 C 
BRANCH  18  27
ATOM     19  C   UNL     1      -7.917  14.058  17.651  0.00  0.00    +0.000 C 
ATOM     20  C   UNL     1      -6.992  13.881  18.822  0.00  0.00    +0.000 A 
ATOM     21  C   UNL     1      -7.092  14.746  19.915  0.00  0.00    +0.000 A 
ATOM     22  C   UNL     1      -6.252  14.581  21.021  0.00  0.00    +0.000 A 
ATOM     23  O   UNL     1      -6.463  15.480  22.080  0.00  0.00    +0.000 OA
ATOM     24  C   UNL     1      -5.739  15.383  23.255  0.00  0.00    +0.000 A 
ATOM     25  O   UNL     1      -5.961  16.098  24.219  0.00  0.00    +0.000 OA
ATOM     26  C   UNL     1      -4.666  14.365  23.301  0.00  0.00    +0.000 A 
ATOM     27  C   UNL     1      -4.424  13.510  22.295  0.00  0.00    +0.000 A 
ATOM     28  C   UNL     1      -5.287  13.580  21.094  0.00  0.00    +0.000 A 
ATOM     29  C   UNL     1      -5.194  12.709  19.996  0.00  0.00    +0.000 A 
ATOM     30  C   UNL     1      -6.037  12.856  18.878  0.00  0.00    +0.000 A 
ATOM     31 CL   UNL     1      -5.858  11.723  17.583  0.00  0.00    +0.000 Cl
ENDBRANCH  18  27
ENDBRANCH   1  18
TORSDOF 2
ENDMDL
MODEL 9
REMARK VINA RESULT:      -7.0      4.814      9.903
REMARK  Name = 
REMARK  3 active torsions:
REMARK  status: ('A' for Active; 'I' for Inactive)
REMARK    1  A    between atoms: C_1  and  C_2
REMARK    2  A    between atoms: C_9  and  C_10
REMARK    3  A    between atoms: C_10  and  N_11
REMARK                            x       y       z     vdW  Elec       q    Type
REMARK                         _______ _______ _______ _____ _____    ______ ____
ROOT
ATOM      1  N   UNL     1       2.296   7.990  18.917  0.00  0.00    +0.000 N 
ATOM      2  C   UNL     1       2.200   7.357  20.147  0.00  0.00    +0.000 C 
ATOM      3  O   UNL     1       1.317   7.457  20.981  0.00  0.00    +0.000 OA
ATOM      4  N   UNL     1       3.188   6.352  20.179  0.00  0.00    +0.000 N 
ATOM      5  C   UNL     1       3.364   5.916  18.802  0.00  0.00    +0.000 C 
ATOM      6  C   UNL     1       2.094   5.067  18.477  0.00  0.00    +0.000 C 
ATOM      7  C   UNL     1       2.047   4.444  17.102  0.00  0.00    +0.000 C 
ATOM      8  C   UNL     1       3.355   3.852  16.627  0.00  0.00    +0.000 C 
ATOM      9  C   UNL     1       4.615   4.340  17.286  0.00  0.00    +0.000 A 
ATOM     10  C   UNL     1       5.816   3.861  16.731  0.00  0.00    +0.000 A 
ATOM     11  C   UNL     1       7.043   4.250  17.247  0.00  0.00    +0.000 A 
ATOM     12  C   UNL     1       7.083   5.105  18.343  0.00  0.00    +0.000 A 
ATOM     13  C   UNL     1       5.894   5.594  18.906  0.00  0.00    +0.000 A 
ATOM     14  C   UNL     1       4.643   5.232  18.382  0.00  0.00    +0.000 A 
ATOM     15  C   UNL     1       3.222   7.313  18.183  0.00  0.00    +0.000 C 
ATOM     16  O   UNL     1       3.685   7.703  17.116  0.00  0.00    +0.000 OA
ATOM     17  H   UNL     1       3.093   5.676  20.921  0.00  0.00    +0.000 HD
ENDROOT
BRANCH   1  18
ATOM     18  C   UNL     1       1.136   8.482  18.201  0.00  0.00    +0.000 C 
BRANCH  18  27
ATOM     19  C   UNL     1      -4.585  12.056  18.081  0.00  0.00    +0.000 C 
ATOM     20  C   UNL     1      -3.205  11.466  18.140  0.00  0.00    +0.000 A 
ATOM     21  C   UNL     1      -2.099  12.312  18.264  0.00  0.00    +0.000 A 
ATOM     22  C   UNL     1      -0.809  11.777  18.340  0.00  0.00    +0.000 A 
ATOM     23  O   UNL     1       0.226  12.714  18.502  0.00  0.00    +0.000 OA
ATOM     24  C   UNL     1       1.540  12.308  18.652  0.00  0.00    +0.000 A 
ATOM     25  O   UNL     1       2.444  13.097  18.876  0.00  0.00    +0.000 OA
ATOM     26  C   UNL     1       1.815  10.860  18.525  0.00  0.00    +0.000 A 
ATOM     27  C   UNL     1       0.850   9.945  18.344  0.00  0.00    +0.000 A 
ATOM     28  C   UNL     1      -0.554  10.409  18.289  0.00  0.00    +0.000 A 
ATOM     29  C   UNL     1      -1.669   9.562  18.171  0.00  0.00    +0.000 A 
ATOM     30  C   UNL     1      -2.975  10.083  18.101  0.00  0.00    +0.000 A 
ATOM     31 CL   UNL     1      -4.282   8.959  17.975  0.00  0.00    +0.000 Cl
ENDBRANCH  18  27
ENDBRANCH   1  18
TORSDOF 2
ENDMDL
