MODEL 1
REMARK VINA RESULT:      -7.7      0.000      0.000
REMARK  Name = 
REMARK  6 active torsions:
REMARK  status: ('A' for Active; 'I' for Inactive)
REMARK    1  A    between atoms: C_1  and  C_2
REMARK    2  A    between atoms: C_2  and  C_3
REMARK    3  A    between atoms: C_7  and  N_8
REMARK    4  A    between atoms: C_13  and  C_14
REMARK    5  A    between atoms: C_14  and  N_15
REMARK    6  A    between atoms: C_17  and  C_18
REMARK                            x       y       z     vdW  Elec       q    Type
REMARK                         _______ _______ _______ _____ _____    ______ ____
ROOT
ATOM      1  N   UNL     1       3.648   5.175  19.250  0.00  0.00    +0.000 N 
ATOM      2  C   UNL     1       5.044   5.667  19.360  0.00  0.00    +0.000 C 
ATOM      3  C   UNL     1       5.619   5.300  18.029  0.00  0.00    +0.000 A 
ATOM      4  C   UNL     1       4.892   4.210  17.545  0.00  0.00    +0.000 A 
ATOM      5  C   UNL     1       5.081   3.677  16.284  0.00  0.00    +0.000 A 
ATOM      6  C   UNL     1       6.041   4.279  15.462  0.00  0.00    +0.000 A 
ATOM      7  C   UNL     1       6.775   5.394  15.946  0.00  0.00    +0.000 A 
ATOM      8  C   UNL     1       6.569   5.932  17.234  0.00  0.00    +0.000 A 
ATOM      9  C   UNL     1       3.700   4.038  18.413  0.00  0.00    +0.000 C 
ATOM     10  O   UNL     1       2.862   3.177  18.233  0.00  0.00    +0.000 OA
ENDROOT
BRANCH   1  15
ATOM     11  C   UNL     1       1.580   8.146  19.811  0.00  0.00    +0.000 A 
ATOM     12  C   UNL     1       2.144   8.933  18.787  0.00  0.00    +0.000 A 
ATOM     13  C   UNL     1       2.833   8.374  17.713  0.00  0.00    +0.000 A 
ATOM     14  C   UNL     1       3.098   7.013  17.699  0.00  0.00    +0.000 A 
ATOM     15  C   UNL     1       2.760   6.243  18.818  0.00  0.00    +0.000 A 
ATOM     16  C   UNL     1       1.869   6.769  19.765  0.00  0.00    +0.000 A 
BRANCH  11  18
ATOM     17  C   UNL     1      -0.389   7.888  21.422  0.00  0.00    +0.000 C 
ATOM     18  C   UNL     1       0.780   8.799  21.036  0.00  0.00    +0.000 C 
ATOM     19  C   UNL     1       1.614   9.306  22.240  0.00  0.00    +0.000 C 
ATOM     20  O   UNL     1       1.383  10.687  21.877  0.00  0.00    +0.000 OA
ATOM     21  C   UNL     1       0.368  10.287  20.927  0.00  0.00    +0.000 C 
ENDBRANCH  11  18
ENDBRANCH   1  15
BRANCH   8  22
ATOM     22  C   UNL     1       7.292   7.197  17.635  0.00  0.00    +0.000 C 
ATOM     23  F   UNL     1       8.003   7.088  18.789  0.00  0.00    +0.000 F 
ATOM     24  F   UNL     1       8.182   7.601  16.691  0.00  0.00    +0.000 F 
ATOM     25  F   UNL     1       6.440   8.242  17.823  0.00  0.00    +0.000 F 
ENDBRANCH   8  22
BRANCH   6  26
ATOM     26  C   UNL     1       6.255   3.789  14.050  0.00  0.00    +0.000 C 
BRANCH  26  27
ATOM     27  N   UNL     1       7.109   4.695  13.289  0.00  0.00    +0.000 NA
ATOM     28  H   UNL     1       7.025   4.480  12.297  0.00  0.00    +0.000 HD
ATOM     29  H   UNL     1       8.081   4.518  13.535  0.00  0.00    +0.000 HD
ENDBRANCH  26  27
ENDBRANCH   6  26
TORSDOF 5
ENDMDL
MODEL 2
REMARK VINA RESULT:      -7.5      0.527      1.127
REMARK  Name = 
REMARK  6 active torsions:
REMARK  status: ('A' for Active; 'I' for Inactive)
REMARK    1  A    between atoms: C_1  and  C_2
REMARK    2  A    between atoms: C_2  and  C_3
REMARK    3  A    between atoms: C_7  and  N_8
REMARK    4  A    between atoms: C_13  and  C_14
REMARK    5  A    between atoms: C_14  and  N_15
REMARK    6  A    between atoms: C_17  and  C_18
REMARK                            x       y       z     vdW  Elec       q    Type
REMARK                         _______ _______ _______ _____ _____    ______ ____
ROOT
ATOM      1  N   UNL     1       3.642   5.138  19.345  0.00  0.00    +0.000 N 
ATOM      2  C   UNL     1       5.033   5.647  19.423  0.00  0.00    +0.000 C 
ATOM      3  C   UNL     1       5.585   5.281  18.082  0.00  0.00    +0.000 A 
ATOM      4  C   UNL     1       4.860   4.181  17.618  0.00  0.00    +0.000 A 
ATOM      5  C   UNL     1       5.030   3.645  16.355  0.00  0.00    +0.000 A 
ATOM      6  C   UNL     1       5.965   4.255  15.511  0.00  0.00    +0.000 A 
ATOM      7  C   UNL     1       6.695   5.380  15.974  0.00  0.00    +0.000 A 
ATOM      8  C   UNL     1       6.510   5.921  17.265  0.00  0.00    +0.000 A 
ATOM      9  C   UNL     1       3.689   3.998  18.511  0.00  0.00    +0.000 C 
ATOM     10  O   UNL     1       2.858   3.126  18.352  0.00  0.00    +0.000 OA
ENDROOT
BRANCH   1  15
ATOM     11  C   UNL     1       1.731   8.218  19.876  0.00  0.00    +0.000 A 
ATOM     12  C   UNL     1       2.180   8.890  18.721  0.00  0.00    +0.000 A 
ATOM     13  C   UNL     1       2.716   8.213  17.628  0.00  0.00    +0.000 A 
ATOM     14  C   UNL     1       2.945   6.847  17.709  0.00  0.00    +0.000 A 
ATOM     15  C   UNL     1       2.731   6.193  18.927  0.00  0.00    +0.000 A 
ATOM     16  C   UNL     1       1.979   6.833  19.924  0.00  0.00    +0.000 A 
BRANCH  11  18
ATOM     17  C   UNL     1       1.983   8.777  22.359  0.00  0.00    +0.000 C 
ATOM     18  C   UNL     1       1.107   9.006  21.123  0.00  0.00    +0.000 C 
ATOM     19  C   UNL     1       0.699  10.484  20.899  0.00  0.00    +0.000 C 
ATOM     20  O   UNL     1      -0.707  10.147  20.922  0.00  0.00    +0.000 OA
ATOM     21  C   UNL     1      -0.401   8.824  21.419  0.00  0.00    +0.000 C 
ENDBRANCH  11  18
ENDBRANCH   1  15
BRANCH   8  22
ATOM     22  C   UNL     1       7.226   7.196  17.645  0.00  0.00    +0.000 C 
ATOM     23  F   UNL     1       6.398   8.253  17.865  0.00  0.00    +0.000 F 
ATOM     24  F   UNL     1       7.955   7.056  18.784  0.00  0.00    +0.000 F 
ATOM     25  F   UNL     1       8.100   7.605  16.685  0.00  0.00    +0.000 F 
ENDBRANCH   8  22
BRANCH   6  26
ATOM     26  C   UNL     1       6.154   3.761  14.096  0.00  0.00    +0.000 C 
BRANCH  26  27
ATOM     27  N   UNL     1       7.048   4.631  13.338  0.00  0.00    +0.000 NA
ATOM     28  H   UNL     1       7.977   4.213  13.311  0.00  0.00    +0.000 HD
ATOM     29  H   UNL     1       7.151   5.513  13.835  0.00  0.00    +0.000 HD
ENDBRANCH  26  27
ENDBRANCH   6  26
TORSDOF 5
ENDMDL
MODEL 3
REMARK VINA RESULT:      -7.4      4.600      7.726
REMARK  Name = 
REMARK  6 active torsions:
REMARK  status: ('A' for Active; 'I' for Inactive)
REMARK    1  A    between atoms: C_1  and  C_2
REMARK    2  A    between atoms: C_2  and  C_3
REMARK    3  A    between atoms: C_7  and  N_8
REMARK    4  A    between atoms: C_13  and  C_14
REMARK    5  A    between atoms: C_14  and  N_15
REMARK    6  A    between atoms: C_17  and  C_18
REMARK                            x       y       z     vdW  Elec       q    Type
REMARK                         _______ _______ _______ _____ _____    ______ ____
ROOT
ATOM      1  N   UNL     1       0.714   8.269  21.323  0.00  0.00    +0.000 N 
ATOM      2  C   UNL     1      -0.496   8.634  20.545  0.00  0.00    +0.000 C 
ATOM      3  C   UNL     1      -0.208  10.048  20.151  0.00  0.00    +0.000 A 
ATOM      4  C   UNL     1       0.668  10.578  21.101  0.00  0.00    +0.000 A 
ATOM      5  C   UNL     1       1.233  11.834  20.989  0.00  0.00    +0.000 A 
ATOM      6  C   UNL     1       0.912  12.591  19.856  0.00  0.00    +0.000 A 
ATOM      7  C   UNL     1       0.032  12.052  18.882  0.00  0.00    +0.000 A 
ATOM      8  C   UNL     1      -0.536  10.766  19.006  0.00  0.00    +0.000 A 
ATOM      9  C   UNL     1       1.152   9.458  21.947  0.00  0.00    +0.000 C 
ATOM     10  O   UNL     1       1.944   9.603  22.857  0.00  0.00    +0.000 OA
ENDROOT
BRANCH   1  15
ATOM     11  C   UNL     1       2.063   5.370  19.534  0.00  0.00    +0.000 A 
ATOM     12  C   UNL     1       2.209   6.003  18.283  0.00  0.00    +0.000 A 
ATOM     13  C   UNL     1       2.281   7.389  18.155  0.00  0.00    +0.000 A 
ATOM     14  C   UNL     1       2.073   8.194  19.265  0.00  0.00    +0.000 A 
ATOM     15  C   UNL     1       1.689   7.601  20.473  0.00  0.00    +0.000 A 
ATOM     16  C   UNL     1       1.855   6.218  20.638  0.00  0.00    +0.000 A 
BRANCH  11  18
ATOM     17  C   UNL     1       1.348   3.185  18.414  0.00  0.00    +0.000 C 
ATOM     18  C   UNL     1       1.992   3.776  19.671  0.00  0.00    +0.000 C 
ATOM     19  C   UNL     1       3.280   3.044  20.128  0.00  0.00    +0.000 C 
ATOM     20  O   UNL     1       2.721   2.779  21.434  0.00  0.00    +0.000 OA
ATOM     21  C   UNL     1       1.410   3.181  20.976  0.00  0.00    +0.000 C 
ENDBRANCH  11  18
ENDBRANCH   1  15
BRANCH   8  22
ATOM     22  C   UNL     1      -1.360  10.206  17.871  0.00  0.00    +0.000 C 
ATOM     23  F   UNL     1      -0.711   9.276  17.120  0.00  0.00    +0.000 F 
ATOM     24  F   UNL     1      -2.494   9.598  18.310  0.00  0.00    +0.000 F 
ATOM     25  F   UNL     1      -1.762  11.170  16.998  0.00  0.00    +0.000 F 
ENDBRANCH   8  22
BRANCH   6  26
ATOM     26  C   UNL     1       1.544  13.946  19.638  0.00  0.00    +0.000 C 
BRANCH  26  27
ATOM     27  N   UNL     1       2.460  13.934  18.503  0.00  0.00    +0.000 NA
ATOM     28  H   UNL     1       1.924  13.847  17.641  0.00  0.00    +0.000 HD
ATOM     29  H   UNL     1       3.044  13.102  18.557  0.00  0.00    +0.000 HD
ENDBRANCH  26  27
ENDBRANCH   6  26
TORSDOF 5
ENDMDL
MODEL 4
REMARK VINA RESULT:      -7.4      6.878      9.559
REMARK  Name = 
REMARK  6 active torsions:
REMARK  status: ('A' for Active; 'I' for Inactive)
REMARK    1  A    between atoms: C_1  and  C_2
REMARK    2  A    between atoms: C_2  and  C_3
REMARK    3  A    between atoms: C_7  and  N_8
REMARK    4  A    between atoms: C_13  and  C_14
REMARK    5  A    between atoms: C_14  and  N_15
REMARK    6  A    between atoms: C_17  and  C_18
REMARK                            x       y       z     vdW  Elec       q    Type
REMARK                         _______ _______ _______ _____ _____    ______ ____
ROOT
ATOM      1  N   UNL     1      -0.315  11.108  18.378  0.00  0.00    +0.000 N 
ATOM      2  C   UNL     1       0.378  10.330  19.434  0.00  0.00    +0.000 C 
ATOM      3  C   UNL     1      -0.033  11.046  20.681  0.00  0.00    +0.000 A 
ATOM      4  C   UNL     1      -0.331  12.364  20.329  0.00  0.00    +0.000 A 
ATOM      5  C   UNL     1      -0.853  13.284  21.219  0.00  0.00    +0.000 A 
ATOM      6  C   UNL     1      -1.101  12.852  22.527  0.00  0.00    +0.000 A 
ATOM      7  C   UNL     1      -0.811  11.510  22.887  0.00  0.00    +0.000 A 
ATOM      8  C   UNL     1      -0.282  10.579  21.968  0.00  0.00    +0.000 A 
ATOM      9  C   UNL     1      -0.372  12.439  18.847  0.00  0.00    +0.000 C 
ATOM     10  O   UNL     1      -0.624  13.460  18.237  0.00  0.00    +0.000 OA
ENDROOT
BRANCH   1  15
ATOM     11  C   UNL     1      -3.958  11.130  17.995  0.00  0.00    +0.000 A 
ATOM     12  C   UNL     1      -3.987  10.629  16.677  0.00  0.00    +0.000 A 
ATOM     13  C   UNL     1      -2.920   9.922  16.127  0.00  0.00    +0.000 A 
ATOM     14  C   UNL     1      -1.732   9.808  16.834  0.00  0.00    +0.000 A 
ATOM     15  C   UNL     1      -1.592  10.497  18.044  0.00  0.00    +0.000 A 
ATOM     16  C   UNL     1      -2.738  10.995  18.683  0.00  0.00    +0.000 A 
BRANCH  11  18
ATOM     17  C   UNL     1      -4.723  12.711  19.853  0.00  0.00    +0.000 C 
ATOM     18  C   UNL     1      -5.194  11.932  18.621  0.00  0.00    +0.000 C 
ATOM     19  C   UNL     1      -6.075  12.757  17.648  0.00  0.00    +0.000 C 
ATOM     20  O   UNL     1      -7.159  11.805  17.750  0.00  0.00    +0.000 OA
ATOM     21  C   UNL     1      -6.513  11.161  18.872  0.00  0.00    +0.000 C 
ENDBRANCH  11  18
ENDBRANCH   1  15
BRANCH   8  22
ATOM     22  C   UNL     1      -0.118   9.136  22.383  0.00  0.00    +0.000 C 
ATOM     23  F   UNL     1      -0.960   8.277  21.748  0.00  0.00    +0.000 F 
ATOM     24  F   UNL     1       1.136   8.670  22.140  0.00  0.00    +0.000 F 
ATOM     25  F   UNL     1      -0.338   8.952  23.714  0.00  0.00    +0.000 F 
ENDBRANCH   8  22
BRANCH   6  26
ATOM     26  C   UNL     1      -1.730  13.786  23.534  0.00  0.00    +0.000 C 
BRANCH  26  27
ATOM     27  N   UNL     1      -0.782  14.793  23.998  0.00  0.00    +0.000 NA
ATOM     28  H   UNL     1      -0.854  14.879  25.010  0.00  0.00    +0.000 HD
ATOM     29  H   UNL     1      -1.050  15.699  23.619  0.00  0.00    +0.000 HD
ENDBRANCH  26  27
ENDBRANCH   6  26
TORSDOF 5
ENDMDL
MODEL 5
REMARK VINA RESULT:      -7.4      4.485      7.847
REMARK  Name = 
REMARK  6 active torsions:
REMARK  status: ('A' for Active; 'I' for Inactive)
REMARK    1  A    between atoms: C_1  and  C_2
REMARK    2  A    between atoms: C_2  and  C_3
REMARK    3  A    between atoms: C_7  and  N_8
REMARK    4  A    between atoms: C_13  and  C_14
REMARK    5  A    between atoms: C_14  and  N_15
REMARK    6  A    between atoms: C_17  and  C_18
REMARK                            x       y       z     vdW  Elec       q    Type
REMARK                         _______ _______ _______ _____ _____    ______ ____
ROOT
ATOM      1  N   UNL     1       0.729   8.266  21.268  0.00  0.00    +0.000 N 
ATOM      2  C   UNL     1      -0.491   8.627  20.504  0.00  0.00    +0.000 C 
ATOM      3  C   UNL     1      -0.238  10.058  20.154  0.00  0.00    +0.000 A 
ATOM      4  C   UNL     1       0.627  10.579  21.119  0.00  0.00    +0.000 A 
ATOM      5  C   UNL     1       1.162  11.852  21.044  0.00  0.00    +0.000 A 
ATOM      6  C   UNL     1       0.820  12.636  19.936  0.00  0.00    +0.000 A 
ATOM      7  C   UNL     1      -0.049  12.106  18.947  0.00  0.00    +0.000 A 
ATOM      8  C   UNL     1      -0.586  10.804  19.032  0.00  0.00    +0.000 A 
ATOM      9  C   UNL     1       1.140   9.446  21.928  0.00  0.00    +0.000 C 
ATOM     10  O   UNL     1       1.931   9.582  22.841  0.00  0.00    +0.000 OA
ENDROOT
BRANCH   1  15
ATOM     11  C   UNL     1       2.146   5.455  19.395  0.00  0.00    +0.000 A 
ATOM     12  C   UNL     1       2.270   6.126  18.162  0.00  0.00    +0.000 A 
ATOM     13  C   UNL     1       2.304   7.516  18.072  0.00  0.00    +0.000 A 
ATOM     14  C   UNL     1       2.080   8.285  19.204  0.00  0.00    +0.000 A 
ATOM     15  C   UNL     1       1.717   7.649  20.397  0.00  0.00    +0.000 A 
ATOM     16  C   UNL     1       1.921   6.266  20.523  0.00  0.00    +0.000 A 
BRANCH  11  18
ATOM     17  C   UNL     1       1.095   3.426  20.543  0.00  0.00    +0.000 C 
ATOM     18  C   UNL     1       2.119   3.856  19.488  0.00  0.00    +0.000 C 
ATOM     19  C   UNL     1       2.029   3.067  18.157  0.00  0.00    +0.000 C 
ATOM     20  O   UNL     1       3.409   2.649  18.259  0.00  0.00    +0.000 OA
ATOM     21  C   UNL     1       3.469   3.111  19.628  0.00  0.00    +0.000 C 
ENDBRANCH  11  18
ENDBRANCH   1  15
BRANCH   8  22
ATOM     22  C   UNL     1      -1.399  10.259  17.882  0.00  0.00    +0.000 C 
ATOM     23  F   UNL     1      -2.546   9.632  18.260  0.00  0.00    +0.000 F 
ATOM     24  F   UNL     1      -1.781  11.234  17.015  0.00  0.00    +0.000 F 
ATOM     25  F   UNL     1      -0.706   9.348  17.144  0.00  0.00    +0.000 F 
ENDBRANCH   8  22
BRANCH   6  26
ATOM     26  C   UNL     1       1.419  14.011  19.759  0.00  0.00    +0.000 C 
BRANCH  26  27
ATOM     27  N   UNL     1       2.877  13.963  19.739  0.00  0.00    +0.000 NA
ATOM     28  H   UNL     1       3.245  14.884  19.973  0.00  0.00    +0.000 HD
ATOM     29  H   UNL     1       3.190  13.768  18.790  0.00  0.00    +0.000 HD
ENDBRANCH  26  27
ENDBRANCH   6  26
TORSDOF 5
ENDMDL
MODEL 6
REMARK VINA RESULT:      -7.3      3.469      4.389
REMARK  Name = 
REMARK  6 active torsions:
REMARK  status: ('A' for Active; 'I' for Inactive)
REMARK    1  A    between atoms: C_1  and  C_2
REMARK    2  A    between atoms: C_2  and  C_3
REMARK    3  A    between atoms: C_7  and  N_8
REMARK    4  A    between atoms: C_13  and  C_14
REMARK    5  A    between atoms: C_14  and  N_15
REMARK    6  A    between atoms: C_17  and  C_18
REMARK                            x       y       z     vdW  Elec       q    Type
REMARK                         _______ _______ _______ _____ _____    ______ ____
ROOT
ATOM      1  N   UNL     1       2.057   7.250  18.077  0.00  0.00    +0.000 N 
ATOM      2  C   UNL     1       1.946   5.789  18.312  0.00  0.00    +0.000 C 
ATOM      3  C   UNL     1       3.374   5.385  18.497  0.00  0.00    +0.000 A 
ATOM      4  C   UNL     1       4.164   6.315  17.816  0.00  0.00    +0.000 A 
ATOM      5  C   UNL     1       5.545   6.312  17.867  0.00  0.00    +0.000 A 
ATOM      6  C   UNL     1       6.164   5.333  18.654  0.00  0.00    +0.000 A 
ATOM      7  C   UNL     1       5.365   4.395  19.357  0.00  0.00    +0.000 A 
ATOM      8  C   UNL     1       3.955   4.410  19.301  0.00  0.00    +0.000 A 
ATOM      9  C   UNL     1       3.291   7.448  17.420  0.00  0.00    +0.000 C 
ATOM     10  O   UNL     1       3.697   8.425  16.822  0.00  0.00    +0.000 OA
ENDROOT
BRANCH   1  15
ATOM     11  C   UNL     1       0.433   9.767  20.187  0.00  0.00    +0.000 A 
ATOM     12  C   UNL     1       0.170   8.918  21.280  0.00  0.00    +0.000 A 
ATOM     13  C   UNL     1       0.869   7.731  21.486  0.00  0.00    +0.000 A 
ATOM     14  C   UNL     1       1.767   7.286  20.526  0.00  0.00    +0.000 A 
ATOM     15  C   UNL     1       1.873   7.986  19.319  0.00  0.00    +0.000 A 
ATOM     16  C   UNL     1       1.349   9.285  19.233  0.00  0.00    +0.000 A 
BRANCH  11  18
ATOM     17  C   UNL     1      -0.561  11.837  21.314  0.00  0.00    +0.000 C 
ATOM     18  C   UNL     1      -0.370  11.135  19.966  0.00  0.00    +0.000 C 
ATOM     19  C   UNL     1       0.115  12.069  18.827  0.00  0.00    +0.000 C 
ATOM     20  O   UNL     1      -1.026  11.734  18.005  0.00  0.00    +0.000 OA
ATOM     21  C   UNL     1      -1.671  11.090  19.127  0.00  0.00    +0.000 C 
ENDBRANCH  11  18
ENDBRANCH   1  15
BRANCH   8  22
ATOM     22  C   UNL     1       3.166   3.464  20.176  0.00  0.00    +0.000 C 
ATOM     23  F   UNL     1       2.173   2.802  19.523  0.00  0.00    +0.000 F 
ATOM     24  F   UNL     1       3.950   2.501  20.728  0.00  0.00    +0.000 F 
ATOM     25  F   UNL     1       2.563   4.103  21.216  0.00  0.00    +0.000 F 
ENDBRANCH   8  22
BRANCH   6  26
ATOM     26  C   UNL     1       7.666   5.312  18.805  0.00  0.00    +0.000 C 
BRANCH  26  27
ATOM     27  N   UNL     1       8.068   5.469  20.199  0.00  0.00    +0.000 NA
ATOM     28  H   UNL     1       8.462   6.399  20.331  0.00  0.00    +0.000 HD
ATOM     29  H   UNL     1       8.819   4.814  20.404  0.00  0.00    +0.000 HD
ENDBRANCH  26  27
ENDBRANCH   6  26
TORSDOF 5
ENDMDL
MODEL 7
REMARK VINA RESULT:      -7.3      3.302      4.176
REMARK  Name = 
REMARK  6 active torsions:
REMARK  status: ('A' for Active; 'I' for Inactive)
REMARK    1  A    between atoms: C_1  and  C_2
REMARK    2  A    between atoms: C_2  and  C_3
REMARK    3  A    between atoms: C_7  and  N_8
REMARK    4  A    between atoms: C_13  and  C_14
REMARK    5  A    between atoms: C_14  and  N_15
REMARK    6  A    between atoms: C_17  and  C_18
REMARK                            x       y       z     vdW  Elec       q    Type
REMARK                         _______ _______ _______ _____ _____    ______ ____
ROOT
ATOM      1  N   UNL     1       2.102   7.063  18.156  0.00  0.00    +0.000 N 
ATOM      2  C   UNL     1       2.038   5.589  18.321  0.00  0.00    +0.000 C 
ATOM      3  C   UNL     1       3.483   5.215  18.422  0.00  0.00    +0.000 A 
ATOM      4  C   UNL     1       4.217   6.198  17.755  0.00  0.00    +0.000 A 
ATOM      5  C   UNL     1       5.599   6.230  17.744  0.00  0.00    +0.000 A 
ATOM      6  C   UNL     1       6.277   5.231  18.453  0.00  0.00    +0.000 A 
ATOM      7  C   UNL     1       5.535   4.238  19.143  0.00  0.00    +0.000 A 
ATOM      8  C   UNL     1       4.124   4.218  19.149  0.00  0.00    +0.000 A 
ATOM      9  C   UNL     1       3.300   7.326  17.455  0.00  0.00    +0.000 C 
ATOM     10  O   UNL     1       3.654   8.342  16.890  0.00  0.00    +0.000 OA
ENDROOT
BRANCH   1  15
ATOM     11  C   UNL     1       0.698   9.607  20.387  0.00  0.00    +0.000 A 
ATOM     12  C   UNL     1       0.297   8.723  21.409  0.00  0.00    +0.000 A 
ATOM     13  C   UNL     1       0.848   7.452  21.552  0.00  0.00    +0.000 A 
ATOM     14  C   UNL     1       1.724   6.969  20.591  0.00  0.00    +0.000 A 
ATOM     15  C   UNL     1       1.957   7.730  19.440  0.00  0.00    +0.000 A 
ATOM     16  C   UNL     1       1.589   9.084  19.430  0.00  0.00    +0.000 A 
BRANCH  11  18
ATOM     17  C   UNL     1      -0.943  11.075  19.086  0.00  0.00    +0.000 C 
ATOM     18  C   UNL     1       0.066  11.071  20.238  0.00  0.00    +0.000 C 
ATOM     19  C   UNL     1      -0.443  11.760  21.530  0.00  0.00    +0.000 C 
ATOM     20  O   UNL     1       0.673  12.679  21.533  0.00  0.00    +0.000 OA
ATOM     21  C   UNL     1       1.031  12.280  20.190  0.00  0.00    +0.000 C 
ENDBRANCH  11  18
ENDBRANCH   1  15
BRANCH   8  22
ATOM     22  C   UNL     1       3.399   3.209  20.009  0.00  0.00    +0.000 C 
ATOM     23  F   UNL     1       2.692   3.758  21.033  0.00  0.00    +0.000 F 
ATOM     24  F   UNL     1       2.504   2.474  19.295  0.00  0.00    +0.000 F 
ATOM     25  F   UNL     1       4.249   2.314  20.584  0.00  0.00    +0.000 F 
ENDBRANCH   8  22
BRANCH   6  26
ATOM     26  C   UNL     1       7.785   5.243  18.537  0.00  0.00    +0.000 C 
BRANCH  26  27
ATOM     27  N   UNL     1       8.245   5.463  19.904  0.00  0.00    +0.000 NA
ATOM     28  H   UNL     1       7.437   5.580  20.513  0.00  0.00    +0.000 HD
ATOM     29  H   UNL     1       8.757   6.342  19.944  0.00  0.00    +0.000 HD
ENDBRANCH  26  27
ENDBRANCH   6  26
TORSDOF 5
ENDMDL
MODEL 8
REMARK VINA RESULT:      -7.3      6.913      9.502
REMARK  Name = 
REMARK  6 active torsions:
REMARK  status: ('A' for Active; 'I' for Inactive)
REMARK    1  A    between atoms: C_1  and  C_2
REMARK    2  A    between atoms: C_2  and  C_3
REMARK    3  A    between atoms: C_7  and  N_8
REMARK    4  A    between atoms: C_13  and  C_14
REMARK    5  A    between atoms: C_14  and  N_15
REMARK    6  A    between atoms: C_17  and  C_18
REMARK                            x       y       z     vdW  Elec       q    Type
REMARK                         _______ _______ _______ _____ _____    ______ ____
ROOT
ATOM      1  N   UNL     1      -0.344  11.178  18.346  0.00  0.00    +0.000 N 
ATOM      2  C   UNL     1       0.370  10.410  19.395  0.00  0.00    +0.000 C 
ATOM      3  C   UNL     1      -0.062  11.103  20.649  0.00  0.00    +0.000 A 
ATOM      4  C   UNL     1      -0.397  12.416  20.308  0.00  0.00    +0.000 A 
ATOM      5  C   UNL     1      -0.945  13.312  21.206  0.00  0.00    +0.000 A 
ATOM      6  C   UNL     1      -1.182  12.862  22.510  0.00  0.00    +0.000 A 
ATOM      7  C   UNL     1      -0.854  11.525  22.857  0.00  0.00    +0.000 A 
ATOM      8  C   UNL     1      -0.298  10.618  21.930  0.00  0.00    +0.000 A 
ATOM      9  C   UNL     1      -0.439  12.503  18.827  0.00  0.00    +0.000 C 
ATOM     10  O   UNL     1      -0.720  13.521  18.226  0.00  0.00    +0.000 OA
ENDROOT
BRANCH   1  15
ATOM     11  C   UNL     1      -3.973  11.135  17.844  0.00  0.00    +0.000 A 
ATOM     12  C   UNL     1      -3.953  10.562  16.556  0.00  0.00    +0.000 A 
ATOM     13  C   UNL     1      -2.861   9.838  16.081  0.00  0.00    +0.000 A 
ATOM     14  C   UNL     1      -1.696   9.778  16.831  0.00  0.00    +0.000 A 
ATOM     15  C   UNL     1      -1.603  10.534  18.005  0.00  0.00    +0.000 A 
ATOM     16  C   UNL     1      -2.774  11.053  18.578  0.00  0.00    +0.000 A 
BRANCH  11  18
ATOM     17  C   UNL     1      -5.899  12.697  17.219  0.00  0.00    +0.000 C 
ATOM     18  C   UNL     1      -5.237  11.956  18.385  0.00  0.00    +0.000 C 
ATOM     19  C   UNL     1      -6.232  11.205  19.306  0.00  0.00    +0.000 C 
ATOM     20  O   UNL     1      -5.771  11.927  20.470  0.00  0.00    +0.000 OA
ATOM     21  C   UNL     1      -5.044  12.854  19.631  0.00  0.00    +0.000 C 
ENDBRANCH  11  18
ENDBRANCH   1  15
BRANCH   8  22
ATOM     22  C   UNL     1      -0.095   9.176  22.333  0.00  0.00    +0.000 C 
ATOM     23  F   UNL     1      -0.885   8.296  21.662  0.00  0.00    +0.000 F 
ATOM     24  F   UNL     1       1.182   8.759  22.122  0.00  0.00    +0.000 F 
ATOM     25  F   UNL     1      -0.347   8.967  23.654  0.00  0.00    +0.000 F 
ENDBRANCH   8  22
BRANCH   6  26
ATOM     26  C   UNL     1      -1.838  13.768  23.524  0.00  0.00    +0.000 C 
BRANCH  26  27
ATOM     27  N   UNL     1      -0.875  14.684  24.128  0.00  0.00    +0.000 NA
ATOM     28  H   UNL     1      -0.016  14.673  23.582  0.00  0.00    +0.000 HD
ATOM     29  H   UNL     1      -0.625  14.339  25.053  0.00  0.00    +0.000 HD
ENDBRANCH  26  27
ENDBRANCH   6  26
TORSDOF 5
ENDMDL
MODEL 9
REMARK VINA RESULT:      -7.2      0.635      1.277
REMARK  Name = 
REMARK  6 active torsions:
REMARK  status: ('A' for Active; 'I' for Inactive)
REMARK    1  A    between atoms: C_1  and  C_2
REMARK    2  A    between atoms: C_2  and  C_3
REMARK    3  A    between atoms: C_7  and  N_8
REMARK    4  A    between atoms: C_13  and  C_14
REMARK    5  A    between atoms: C_14  and  N_15
REMARK    6  A    between atoms: C_17  and  C_18
REMARK                            x       y       z     vdW  Elec       q    Type
REMARK                         _______ _______ _______ _____ _____    ______ ____
ROOT
ATOM      1  N   UNL     1       3.482   5.409  19.272  0.00  0.00    +0.000 N 
ATOM      2  C   UNL     1       4.892   5.857  19.389  0.00  0.00    +0.000 C 
ATOM      3  C   UNL     1       5.479   5.409  18.088  0.00  0.00    +0.000 A 
ATOM      4  C   UNL     1       4.723   4.325  17.638  0.00  0.00    +0.000 A 
ATOM      5  C   UNL     1       4.917   3.728  16.406  0.00  0.00    +0.000 A 
ATOM      6  C   UNL     1       5.913   4.258  15.579  0.00  0.00    +0.000 A 
ATOM      7  C   UNL     1       6.676   5.368  16.026  0.00  0.00    +0.000 A 
ATOM      8  C   UNL     1       6.466   5.971  17.285  0.00  0.00    +0.000 A 
ATOM      9  C   UNL     1       3.509   4.234  18.488  0.00  0.00    +0.000 C 
ATOM     10  O   UNL     1       2.645   3.394  18.330  0.00  0.00    +0.000 OA
ENDROOT
BRANCH   1  15
ATOM     11  C   UNL     1       1.644   8.559  19.618  0.00  0.00    +0.000 A 
ATOM     12  C   UNL     1       2.197   9.195  18.488  0.00  0.00    +0.000 A 
ATOM     13  C   UNL     1       2.787   8.482  17.447  0.00  0.00    +0.000 A 
ATOM     14  C   UNL     1       2.963   7.111  17.564  0.00  0.00    +0.000 A 
ATOM     15  C   UNL     1       2.640   6.486  18.774  0.00  0.00    +0.000 A 
ATOM     16  C   UNL     1       1.841   7.167  19.704  0.00  0.00    +0.000 A 
BRANCH  11  18
ATOM     17  C   UNL     1       0.973  10.879  20.457  0.00  0.00    +0.000 C 
ATOM     18  C   UNL     1       0.959   9.388  20.804  0.00  0.00    +0.000 C 
ATOM     19  C   UNL     1      -0.403   8.873  21.338  0.00  0.00    +0.000 C 
ATOM     20  O   UNL     1       0.205   8.397  22.560  0.00  0.00    +0.000 OA
ATOM     21  C   UNL     1       1.426   9.108  22.253  0.00  0.00    +0.000 C 
ENDBRANCH  11  18
ENDBRANCH   1  15
BRANCH   8  22
ATOM     22  C   UNL     1       7.225   7.227  17.643  0.00  0.00    +0.000 C 
ATOM     23  F   UNL     1       8.125   7.619  16.702  0.00  0.00    +0.000 F 
ATOM     24  F   UNL     1       6.399   8.291  17.829  0.00  0.00    +0.000 F 
ATOM     25  F   UNL     1       7.933   7.092  18.798  0.00  0.00    +0.000 F 
ENDBRANCH   8  22
BRANCH   6  26
ATOM     26  C   UNL     1       6.136   3.697  14.194  0.00  0.00    +0.000 C 
BRANCH  26  27
ATOM     27  N   UNL     1       7.002   4.559  13.397  0.00  0.00    +0.000 NA
ATOM     28  H   UNL     1       7.896   4.093  13.253  0.00  0.00    +0.000 HD
ATOM     29  H   UNL     1       7.207   5.404  13.927  0.00  0.00    +0.000 HD
ENDBRANCH  26  27
ENDBRANCH   6  26
TORSDOF 5
ENDMDL
