MODEL 1
REMARK VINA RESULT:      -7.4      0.000      0.000
REMARK  Name = 
REMARK  3 active torsions:
REMARK  status: ('A' for Active; 'I' for Inactive)
REMARK    1  A    between atoms: C_1  and  C_2
REMARK    2  A    between atoms: C_5  and  C_6
REMARK    3  A    between atoms: C_24  and  C_25
REMARK                            x       y       z     vdW  Elec       q    Type
REMARK                         _______ _______ _______ _____ _____    ______ ____
ROOT
ATOM      1  C   UNL     1      -2.875  14.444  22.324  0.00  0.00    +0.000 C 
ATOM      2  C   UNL     1      -1.862  13.345  22.250  0.00  0.00    +0.000 A 
ATOM      3  C   UNL     1      -2.084  12.489  23.249  0.00  0.00    +0.000 A 
ATOM      4  O   UNL     1      -1.410  11.344  23.541  0.00  0.00    +0.000 OA
ATOM      5  C   UNL     1      -0.719  10.785  22.505  0.00  0.00    +0.000 A 
ATOM      6  C   UNL     1      -0.134   9.552  22.782  0.00  0.00    +0.000 A 
ATOM      7  C   UNL     1       0.366   8.783  21.735  0.00  0.00    +0.000 A 
ATOM      8  C   UNL     1       0.263   9.259  20.428  0.00  0.00    +0.000 A 
ATOM      9  C   UNL     1      -0.251  10.546  20.164  0.00  0.00    +0.000 A 
ATOM     10  C   UNL     1      -0.702  11.345  21.223  0.00  0.00    +0.000 A 
ATOM     11  C   UNL     1      -1.208  12.752  21.056  0.00  0.00    +0.000 A 
ATOM     12  O   UNL     1      -1.118  13.361  19.999  0.00  0.00    +0.000 OA
ATOM     13  C   UNL     1      -3.539  12.628  23.550  0.00  0.00    +0.000 C 
ATOM     14  O   UNL     1      -4.168  11.880  24.281  0.00  0.00    +0.000 OA
ATOM     15  N   UNL     1      -4.027  13.627  22.679  0.00  0.00    +0.000 N 
ATOM     16  C   UNL     1      -4.890  13.191  21.631  0.00  0.00    +0.000 A 
ATOM     17  C   UNL     1      -5.950  12.328  21.887  0.00  0.00    +0.000 A 
ATOM     18  C   UNL     1      -6.681  11.805  20.814  0.00  0.00    +0.000 A 
ATOM     19  C   UNL     1      -6.331  12.136  19.508  0.00  0.00    +0.000 A 
ATOM     20  C   UNL     1      -7.052  11.578  18.323  0.00  0.00    +0.000 C 
ATOM     21  C   UNL     1      -5.273  13.017  19.346  0.00  0.00    +0.000 A 
ATOM     22  N   UNL     1      -4.575  13.560  20.371  0.00  0.00    +0.000 NA
ENDROOT
BRANCH   1  27
ATOM     23  C   UNL     1      -1.533  18.631  26.285  0.00  0.00    +0.000 C 
ATOM     24  C   UNL     1      -1.874  17.490  25.368  0.00  0.00    +0.000 A 
ATOM     25  C   UNL     1      -3.201  17.161  25.078  0.00  0.00    +0.000 A 
ATOM     26  C   UNL     1      -3.524  16.137  24.173  0.00  0.00    +0.000 A 
ATOM     27  C   UNL     1      -2.514  15.396  23.530  0.00  0.00    +0.000 A 
ATOM     28  C   UNL     1      -1.176  15.682  23.898  0.00  0.00    +0.000 A 
ATOM     29  C   UNL     1      -0.862  16.727  24.786  0.00  0.00    +0.000 A 
ENDBRANCH   1  27
TORSDOF 1
ENDMDL
MODEL 2
REMARK VINA RESULT:      -6.8      9.107     13.924
REMARK  Name = 
REMARK  3 active torsions:
REMARK  status: ('A' for Active; 'I' for Inactive)
REMARK    1  A    between atoms: C_1  and  C_2
REMARK    2  A    between atoms: C_5  and  C_6
REMARK    3  A    between atoms: C_24  and  C_25
REMARK                            x       y       z     vdW  Elec       q    Type
REMARK                         _______ _______ _______ _____ _____    ______ ____
ROOT
ATOM      1  C   UNL     1       5.964   6.239  15.816  0.00  0.00    +0.000 C 
ATOM      2  C   UNL     1       4.772   6.086  16.709  0.00  0.00    +0.000 A 
ATOM      3  C   UNL     1       4.999   5.083  17.559  0.00  0.00    +0.000 A 
ATOM      4  O   UNL     1       4.187   4.619  18.548  0.00  0.00    +0.000 OA
ATOM      5  C   UNL     1       3.246   5.498  19.000  0.00  0.00    +0.000 A 
ATOM      6  C   UNL     1       2.504   5.058  20.092  0.00  0.00    +0.000 A 
ATOM      7  C   UNL     1       1.709   5.965  20.787  0.00  0.00    +0.000 A 
ATOM      8  C   UNL     1       1.678   7.298  20.380  0.00  0.00    +0.000 A 
ATOM      9  C   UNL     1       2.364   7.718  19.222  0.00  0.00    +0.000 A 
ATOM     10  C   UNL     1       3.119   6.794  18.488  0.00  0.00    +0.000 A 
ATOM     11  C   UNL     1       3.835   7.124  17.206  0.00  0.00    +0.000 A 
ATOM     12  O   UNL     1       3.683   8.190  16.625  0.00  0.00    +0.000 OA
ATOM     13  C   UNL     1       6.484   5.022  17.685  0.00  0.00    +0.000 C 
ATOM     14  O   UNL     1       7.081   4.353  18.514  0.00  0.00    +0.000 OA
ATOM     15  N   UNL     1       6.993   6.018  16.823  0.00  0.00    +0.000 N 
ATOM     16  C   UNL     1       7.580   7.160  17.446  0.00  0.00    +0.000 A 
ATOM     17  C   UNL     1       8.495   7.020  18.482  0.00  0.00    +0.000 A 
ATOM     18  C   UNL     1       8.933   8.159  19.167  0.00  0.00    +0.000 A 
ATOM     19  C   UNL     1       8.438   9.412  18.818  0.00  0.00    +0.000 A 
ATOM     20  C   UNL     1       8.842  10.658  19.538  0.00  0.00    +0.000 C 
ATOM     21  C   UNL     1       7.543   9.461  17.760  0.00  0.00    +0.000 A 
ATOM     22  N   UNL     1       7.132   8.375  17.065  0.00  0.00    +0.000 NA
ENDROOT
BRANCH   1  27
ATOM     23  C   UNL     1       5.865   2.368  11.341  0.00  0.00    +0.000 C 
ATOM     24  C   UNL     1       5.919   3.262  12.548  0.00  0.00    +0.000 A 
ATOM     25  C   UNL     1       7.095   3.926  12.910  0.00  0.00    +0.000 A 
ATOM     26  C   UNL     1       7.134   4.810  14.000  0.00  0.00    +0.000 A 
ATOM     27  C   UNL     1       5.984   5.052  14.776  0.00  0.00    +0.000 A 
ATOM     28  C   UNL     1       4.822   4.307  14.451  0.00  0.00    +0.000 A 
ATOM     29  C   UNL     1       4.786   3.443  13.342  0.00  0.00    +0.000 A 
ENDBRANCH   1  27
TORSDOF 1
ENDMDL
MODEL 3
REMARK VINA RESULT:      -6.7      1.682      6.599
REMARK  Name = 
REMARK  3 active torsions:
REMARK  status: ('A' for Active; 'I' for Inactive)
REMARK    1  A    between atoms: C_1  and  C_2
REMARK    2  A    between atoms: C_5  and  C_6
REMARK    3  A    between atoms: C_24  and  C_25
REMARK                            x       y       z     vdW  Elec       q    Type
REMARK                         _______ _______ _______ _____ _____    ______ ____
ROOT
ATOM      1  C   UNL     1      -1.721  13.066  22.125  0.00  0.00    +0.000 C 
ATOM      2  C   UNL     1      -3.049  13.212  21.449  0.00  0.00    +0.000 A 
ATOM      3  C   UNL     1      -3.961  12.531  22.145  0.00  0.00    +0.000 A 
ATOM      4  O   UNL     1      -5.293  12.411  21.894  0.00  0.00    +0.000 OA
ATOM      5  C   UNL     1      -5.838  13.394  21.119  0.00  0.00    +0.000 A 
ATOM      6  C   UNL     1      -7.221  13.328  20.969  0.00  0.00    +0.000 A 
ATOM      7  C   UNL     1      -7.900  14.414  20.423  0.00  0.00    +0.000 A 
ATOM      8  C   UNL     1      -7.183  15.548  20.044  0.00  0.00    +0.000 A 
ATOM      9  C   UNL     1      -5.775  15.573  20.118  0.00  0.00    +0.000 A 
ATOM     10  C   UNL     1      -5.085  14.459  20.614  0.00  0.00    +0.000 A 
ATOM     11  C   UNL     1      -3.584  14.359  20.675  0.00  0.00    +0.000 A 
ATOM     12  O   UNL     1      -2.850  15.185  20.150  0.00  0.00    +0.000 OA
ATOM     13  C   UNL     1      -3.432  12.505  23.540  0.00  0.00    +0.000 C 
ATOM     14  O   UNL     1      -4.066  12.133  24.514  0.00  0.00    +0.000 OA
ATOM     15  N   UNL     1      -2.187  13.172  23.501  0.00  0.00    +0.000 N 
ATOM     16  C   UNL     1      -2.130  14.450  24.133  0.00  0.00    +0.000 A 
ATOM     17  C   UNL     1      -2.648  14.643  25.408  0.00  0.00    +0.000 A 
ATOM     18  C   UNL     1      -2.709  15.939  25.933  0.00  0.00    +0.000 A 
ATOM     19  C   UNL     1      -2.268  17.018  25.171  0.00  0.00    +0.000 A 
ATOM     20  C   UNL     1      -2.344  18.427  25.667  0.00  0.00    +0.000 C 
ATOM     21  C   UNL     1      -1.749  16.731  23.918  0.00  0.00    +0.000 A 
ATOM     22  N   UNL     1      -1.652  15.483  23.406  0.00  0.00    +0.000 NA
ENDROOT
BRANCH   1  27
ATOM     23  C   UNL     1       1.104   7.944  21.226  0.00  0.00    +0.000 C 
ATOM     24  C   UNL     1       0.286   9.185  21.448  0.00  0.00    +0.000 A 
ATOM     25  C   UNL     1      -0.049   9.615  22.735  0.00  0.00    +0.000 A 
ATOM     26  C   UNL     1      -0.760  10.807  22.951  0.00  0.00    +0.000 A 
ATOM     27  C   UNL     1      -1.170  11.609  21.868  0.00  0.00    +0.000 A 
ATOM     28  C   UNL     1      -0.899  11.118  20.566  0.00  0.00    +0.000 A 
ATOM     29  C   UNL     1      -0.164   9.937  20.362  0.00  0.00    +0.000 A 
ENDBRANCH   1  27
TORSDOF 1
ENDMDL
MODEL 4
REMARK VINA RESULT:      -6.5      2.838      5.380
REMARK  Name = 
REMARK  3 active torsions:
REMARK  status: ('A' for Active; 'I' for Inactive)
REMARK    1  A    between atoms: C_1  and  C_2
REMARK    2  A    between atoms: C_5  and  C_6
REMARK    3  A    between atoms: C_24  and  C_25
REMARK                            x       y       z     vdW  Elec       q    Type
REMARK                         _______ _______ _______ _____ _____    ______ ____
ROOT
ATOM      1  C   UNL     1      -2.086  13.080  20.343  0.00  0.00    +0.000 C 
ATOM      2  C   UNL     1      -1.017  14.091  20.617  0.00  0.00    +0.000 A 
ATOM      3  C   UNL     1      -0.600  13.945  21.876  0.00  0.00    +0.000 A 
ATOM      4  O   UNL     1       0.367  14.645  22.527  0.00  0.00    +0.000 OA
ATOM      5  C   UNL     1       1.286  15.265  21.731  0.00  0.00    +0.000 A 
ATOM      6  C   UNL     1       2.338  15.876  22.408  0.00  0.00    +0.000 A 
ATOM      7  C   UNL     1       3.452  16.305  21.692  0.00  0.00    +0.000 A 
ATOM      8  C   UNL     1       3.495  16.109  20.313  0.00  0.00    +0.000 A 
ATOM      9  C   UNL     1       2.389  15.569  19.623  0.00  0.00    +0.000 A 
ATOM     10  C   UNL     1       1.244  15.189  20.334  0.00  0.00    +0.000 A 
ATOM     11  C   UNL     1      -0.010  14.664  19.689  0.00  0.00    +0.000 A 
ATOM     12  O   UNL     1      -0.179  14.676  18.478  0.00  0.00    +0.000 OA
ATOM     13  C   UNL     1      -0.871  12.514  22.200  0.00  0.00    +0.000 C 
ATOM     14  O   UNL     1      -0.462  11.942  23.198  0.00  0.00    +0.000 OA
ATOM     15  N   UNL     1      -1.483  11.960  21.054  0.00  0.00    +0.000 N 
ATOM     16  C   UNL     1      -0.705  11.028  20.305  0.00  0.00    +0.000 A 
ATOM     17  C   UNL     1      -0.023   9.994  20.934  0.00  0.00    +0.000 A 
ATOM     18  C   UNL     1       0.848   9.193  20.186  0.00  0.00    +0.000 A 
ATOM     19  C   UNL     1       1.034   9.449  18.830  0.00  0.00    +0.000 A 
ATOM     20  C   UNL     1       1.979   8.650  17.991  0.00  0.00    +0.000 C 
ATOM     21  C   UNL     1       0.298  10.488  18.281  0.00  0.00    +0.000 A 
ATOM     22  N   UNL     1      -0.572  11.253  18.980  0.00  0.00    +0.000 NA
ENDROOT
BRANCH   1  27
ATOM     23  C   UNL     1      -6.561  14.913  23.753  0.00  0.00    +0.000 C 
ATOM     24  C   UNL     1      -5.503  14.429  22.802  0.00  0.00    +0.000 A 
ATOM     25  C   UNL     1      -4.812  15.315  21.971  0.00  0.00    +0.000 A 
ATOM     26  C   UNL     1      -3.779  14.876  21.126  0.00  0.00    +0.000 A 
ATOM     27  C   UNL     1      -3.411  13.518  21.080  0.00  0.00    +0.000 A 
ATOM     28  C   UNL     1      -4.177  12.618  21.863  0.00  0.00    +0.000 A 
ATOM     29  C   UNL     1      -5.192  13.071  22.726  0.00  0.00    +0.000 A 
ENDBRANCH   1  27
TORSDOF 1
ENDMDL
MODEL 5
REMARK VINA RESULT:      -6.5      2.570      7.189
REMARK  Name = 
REMARK  3 active torsions:
REMARK  status: ('A' for Active; 'I' for Inactive)
REMARK    1  A    between atoms: C_1  and  C_2
REMARK    2  A    between atoms: C_5  and  C_6
REMARK    3  A    between atoms: C_24  and  C_25
REMARK                            x       y       z     vdW  Elec       q    Type
REMARK                         _______ _______ _______ _____ _____    ______ ____
ROOT
ATOM      1  C   UNL     1      -3.020  13.528  20.141  0.00  0.00    +0.000 C 
ATOM      2  C   UNL     1      -4.328  13.509  20.869  0.00  0.00    +0.000 A 
ATOM      3  C   UNL     1      -4.277  12.573  21.818  0.00  0.00    +0.000 A 
ATOM      4  O   UNL     1      -5.240  12.235  22.718  0.00  0.00    +0.000 OA
ATOM      5  C   UNL     1      -6.181  13.192  22.964  0.00  0.00    +0.000 A 
ATOM      6  C   UNL     1      -7.089  12.883  23.973  0.00  0.00    +0.000 A 
ATOM      7  C   UNL     1      -7.916  13.882  24.477  0.00  0.00    +0.000 A 
ATOM      8  C   UNL     1      -7.814  15.175  23.966  0.00  0.00    +0.000 A 
ATOM      9  C   UNL     1      -6.955  15.462  22.885  0.00  0.00    +0.000 A 
ATOM     10  C   UNL     1      -6.162  14.444  22.339  0.00  0.00    +0.000 A 
ATOM     11  C   UNL     1      -5.262  14.629  21.147  0.00  0.00    +0.000 A 
ATOM     12  O   UNL     1      -5.272  15.646  20.468  0.00  0.00    +0.000 OA
ATOM     13  C   UNL     1      -2.828  12.454  22.155  0.00  0.00    +0.000 C 
ATOM     14  O   UNL     1      -2.389  11.832  23.108  0.00  0.00    +0.000 OA
ATOM     15  N   UNL     1      -2.151  13.347  21.296  0.00  0.00    +0.000 N 
ATOM     16  C   UNL     1      -1.588  14.510  21.903  0.00  0.00    +0.000 A 
ATOM     17  C   UNL     1      -0.831  14.417  23.065  0.00  0.00    +0.000 A 
ATOM     18  C   UNL     1      -0.424  15.589  23.712  0.00  0.00    +0.000 A 
ATOM     19  C   UNL     1      -0.794  16.829  23.199  0.00  0.00    +0.000 A 
ATOM     20  C   UNL     1      -0.419  18.112  23.869  0.00  0.00    +0.000 C 
ATOM     21  C   UNL     1      -1.534  16.828  22.027  0.00  0.00    +0.000 A 
ATOM     22  N   UNL     1      -1.909  15.708  21.369  0.00  0.00    +0.000 NA
ENDROOT
BRANCH   1  27
ATOM     23  C   UNL     1      -2.538   9.300  16.030  0.00  0.00    +0.000 C 
ATOM     24  C   UNL     1      -2.675  10.288  17.154  0.00  0.00    +0.000 A 
ATOM     25  C   UNL     1      -1.557  10.754  17.852  0.00  0.00    +0.000 A 
ATOM     26  C   UNL     1      -1.673  11.725  18.861  0.00  0.00    +0.000 A 
ATOM     27  C   UNL     1      -2.929  12.257  19.211  0.00  0.00    +0.000 A 
ATOM     28  C   UNL     1      -4.062  11.713  18.555  0.00  0.00    +0.000 A 
ATOM     29  C   UNL     1      -3.933  10.761  17.529  0.00  0.00    +0.000 A 
ENDBRANCH   1  27
TORSDOF 1
ENDMDL
MODEL 6
REMARK VINA RESULT:      -6.5      3.332      6.114
REMARK  Name = 
REMARK  3 active torsions:
REMARK  status: ('A' for Active; 'I' for Inactive)
REMARK    1  A    between atoms: C_1  and  C_2
REMARK    2  A    between atoms: C_5  and  C_6
REMARK    3  A    between atoms: C_24  and  C_25
REMARK                            x       y       z     vdW  Elec       q    Type
REMARK                         _______ _______ _______ _____ _____    ______ ____
ROOT
ATOM      1  C   UNL     1      -1.011  12.364  19.569  0.00  0.00    +0.000 C 
ATOM      2  C   UNL     1       0.084  13.315  19.939  0.00  0.00    +0.000 A 
ATOM      3  C   UNL     1       0.323  13.205  21.247  0.00  0.00    +0.000 A 
ATOM      4  O   UNL     1       1.246  13.872  21.992  0.00  0.00    +0.000 OA
ATOM      5  C   UNL     1       2.303  14.388  21.299  0.00  0.00    +0.000 A 
ATOM      6  C   UNL     1       3.301  14.960  22.083  0.00  0.00    +0.000 A 
ATOM      7  C   UNL     1       4.526  15.277  21.504  0.00  0.00    +0.000 A 
ATOM      8  C   UNL     1       4.733  15.007  20.152  0.00  0.00    +0.000 A 
ATOM      9  C   UNL     1       3.690  14.508  19.345  0.00  0.00    +0.000 A 
ATOM     10  C   UNL     1       2.437  14.242  19.914  0.00  0.00    +0.000 A 
ATOM     11  C   UNL     1       1.242  13.770  19.130  0.00  0.00    +0.000 A 
ATOM     12  O   UNL     1       1.233  13.731  17.908  0.00  0.00    +0.000 OA
ATOM     13  C   UNL     1      -0.092  11.815  21.593  0.00  0.00    +0.000 C 
ATOM     14  O   UNL     1       0.141  11.269  22.660  0.00  0.00    +0.000 OA
ATOM     15  N   UNL     1      -0.589  11.245  20.401  0.00  0.00    +0.000 N 
ATOM     16  C   UNL     1       0.209  10.225  19.801  0.00  0.00    +0.000 A 
ATOM     17  C   UNL     1       0.727   9.182  20.559  0.00  0.00    +0.000 A 
ATOM     18  C   UNL     1       1.626   8.287  19.968  0.00  0.00    +0.000 A 
ATOM     19  C   UNL     1       2.005   8.460  18.639  0.00  0.00    +0.000 A 
ATOM     20  C   UNL     1       2.989   7.557  17.967  0.00  0.00    +0.000 C 
ATOM     21  C   UNL     1       1.424   9.516  17.953  0.00  0.00    +0.000 A 
ATOM     22  N   UNL     1       0.529  10.372  18.497  0.00  0.00    +0.000 NA
ENDROOT
BRANCH   1  27
ATOM     23  C   UNL     1      -6.214  14.877  20.846  0.00  0.00    +0.000 C 
ATOM     24  C   UNL     1      -4.899  14.184  20.625  0.00  0.00    +0.000 A 
ATOM     25  C   UNL     1      -4.828  12.947  19.978  0.00  0.00    +0.000 A 
ATOM     26  C   UNL     1      -3.597  12.325  19.713  0.00  0.00    +0.000 A 
ATOM     27  C   UNL     1      -2.385  12.927  20.104  0.00  0.00    +0.000 A 
ATOM     28  C   UNL     1      -2.476  14.138  20.835  0.00  0.00    +0.000 A 
ATOM     29  C   UNL     1      -3.712  14.765  21.072  0.00  0.00    +0.000 A 
ENDBRANCH   1  27
TORSDOF 1
ENDMDL
MODEL 7
REMARK VINA RESULT:      -6.4      3.241      6.210
REMARK  Name = 
REMARK  3 active torsions:
REMARK  status: ('A' for Active; 'I' for Inactive)
REMARK    1  A    between atoms: C_1  and  C_2
REMARK    2  A    between atoms: C_5  and  C_6
REMARK    3  A    between atoms: C_24  and  C_25
REMARK                            x       y       z     vdW  Elec       q    Type
REMARK                         _______ _______ _______ _____ _____    ______ ____
ROOT
ATOM      1  C   UNL     1      -1.162  11.905  19.720  0.00  0.00    +0.000 C 
ATOM      2  C   UNL     1      -0.127  12.943  20.023  0.00  0.00    +0.000 A 
ATOM      3  C   UNL     1       0.190  12.868  21.317  0.00  0.00    +0.000 A 
ATOM      4  O   UNL     1       1.097  13.613  22.005  0.00  0.00    +0.000 OA
ATOM      5  C   UNL     1       2.071  14.202  21.251  0.00  0.00    +0.000 A 
ATOM      6  C   UNL     1       3.061  14.861  21.976  0.00  0.00    +0.000 A 
ATOM      7  C   UNL     1       4.224  15.266  21.329  0.00  0.00    +0.000 A 
ATOM      8  C   UNL     1       4.378  14.999  19.969  0.00  0.00    +0.000 A 
ATOM      9  C   UNL     1       3.336  14.410  19.224  0.00  0.00    +0.000 A 
ATOM     10  C   UNL     1       2.141  14.052  19.862  0.00  0.00    +0.000 A 
ATOM     11  C   UNL     1       0.946  13.478  19.149  0.00  0.00    +0.000 A 
ATOM     12  O   UNL     1       0.874  13.425  17.929  0.00  0.00    +0.000 OA
ATOM     13  C   UNL     1      -0.093  11.453  21.695  0.00  0.00    +0.000 C 
ATOM     14  O   UNL     1       0.239  10.939  22.750  0.00  0.00    +0.000 OA
ATOM     15  N   UNL     1      -0.608  10.832  20.535  0.00  0.00    +0.000 N 
ATOM     16  C   UNL     1       0.234   9.872  19.900  0.00  0.00    +0.000 A 
ATOM     17  C   UNL     1       0.874   8.881  20.635  0.00  0.00    +0.000 A 
ATOM     18  C   UNL     1       1.807   8.053  20.002  0.00  0.00    +0.000 A 
ATOM     19  C   UNL     1       2.099   8.240  18.653  0.00  0.00    +0.000 A 
ATOM     20  C   UNL     1       3.114   7.410  17.935  0.00  0.00    +0.000 C 
ATOM     21  C   UNL     1       1.401   9.239  17.993  0.00  0.00    +0.000 A 
ATOM     22  N   UNL     1       0.471  10.029  18.579  0.00  0.00    +0.000 NA
ENDROOT
BRANCH   1  27
ATOM     23  C   UNL     1      -6.454  12.826  22.202  0.00  0.00    +0.000 C 
ATOM     24  C   UNL     1      -5.104  12.708  21.551  0.00  0.00    +0.000 A 
ATOM     25  C   UNL     1      -3.927  12.782  22.301  0.00  0.00    +0.000 A 
ATOM     26  C   UNL     1      -2.666  12.610  21.707  0.00  0.00    +0.000 A 
ATOM     27  C   UNL     1      -2.545  12.364  20.326  0.00  0.00    +0.000 A 
ATOM     28  C   UNL     1      -3.740  12.377  19.564  0.00  0.00    +0.000 A 
ATOM     29  C   UNL     1      -5.000  12.525  20.172  0.00  0.00    +0.000 A 
ENDBRANCH   1  27
TORSDOF 1
ENDMDL
MODEL 8
REMARK VINA RESULT:      -6.4      1.808      5.735
REMARK  Name = 
REMARK  3 active torsions:
REMARK  status: ('A' for Active; 'I' for Inactive)
REMARK    1  A    between atoms: C_1  and  C_2
REMARK    2  A    between atoms: C_5  and  C_6
REMARK    3  A    between atoms: C_24  and  C_25
REMARK                            x       y       z     vdW  Elec       q    Type
REMARK                         _______ _______ _______ _____ _____    ______ ____
ROOT
ATOM      1  C   UNL     1      -4.041  14.542  22.301  0.00  0.00    +0.000 C 
ATOM      2  C   UNL     1      -3.258  13.312  21.964  0.00  0.00    +0.000 A 
ATOM      3  C   UNL     1      -2.375  13.613  21.009  0.00  0.00    +0.000 A 
ATOM      4  O   UNL     1      -1.458  12.796  20.425  0.00  0.00    +0.000 OA
ATOM      5  C   UNL     1      -1.106  11.691  21.145  0.00  0.00    +0.000 A 
ATOM      6  C   UNL     1      -0.080  10.929  20.594  0.00  0.00    +0.000 A 
ATOM      7  C   UNL     1       0.526   9.941  21.366  0.00  0.00    +0.000 A 
ATOM      8  C   UNL     1       0.098   9.740  22.677  0.00  0.00    +0.000 A 
ATOM      9  C   UNL     1      -0.999  10.456  23.199  0.00  0.00    +0.000 A 
ATOM     10  C   UNL     1      -1.647  11.411  22.405  0.00  0.00    +0.000 A 
ATOM     11  C   UNL     1      -2.864  12.182  22.842  0.00  0.00    +0.000 A 
ATOM     12  O   UNL     1      -3.472  11.919  23.870  0.00  0.00    +0.000 OA
ATOM     13  C   UNL     1      -2.114  15.071  21.182  0.00  0.00    +0.000 C 
ATOM     14  O   UNL     1      -1.224  15.686  20.616  0.00  0.00    +0.000 OA
ATOM     15  N   UNL     1      -2.941  15.496  22.245  0.00  0.00    +0.000 N 
ATOM     16  C   UNL     1      -2.284  15.836  23.465  0.00  0.00    +0.000 A 
ATOM     17  C   UNL     1      -1.167  16.663  23.472  0.00  0.00    +0.000 A 
ATOM     18  C   UNL     1      -0.462  16.852  24.666  0.00  0.00    +0.000 A 
ATOM     19  C   UNL     1      -0.874  16.201  25.826  0.00  0.00    +0.000 A 
ATOM     20  C   UNL     1      -0.139  16.337  27.121  0.00  0.00    +0.000 C 
ATOM     21  C   UNL     1      -2.010  15.411  25.732  0.00  0.00    +0.000 A 
ATOM     22  N   UNL     1      -2.723  15.241  24.595  0.00  0.00    +0.000 NA
ENDROOT
BRANCH   1  27
ATOM     23  C   UNL     1      -7.204  15.543  17.401  0.00  0.00    +0.000 C 
ATOM     24  C   UNL     1      -6.499  15.304  18.707  0.00  0.00    +0.000 A 
ATOM     25  C   UNL     1      -6.373  14.019  19.241  0.00  0.00    +0.000 A 
ATOM     26  C   UNL     1      -5.661  13.783  20.429  0.00  0.00    +0.000 A 
ATOM     27  C   UNL     1      -5.056  14.843  21.131  0.00  0.00    +0.000 A 
ATOM     28  C   UNL     1      -5.265  16.151  20.625  0.00  0.00    +0.000 A 
ATOM     29  C   UNL     1      -5.957  16.373  19.421  0.00  0.00    +0.000 A 
ENDBRANCH   1  27
TORSDOF 1
ENDMDL
MODEL 9
REMARK VINA RESULT:      -6.4      3.644      5.888
REMARK  Name = 
REMARK  3 active torsions:
REMARK  status: ('A' for Active; 'I' for Inactive)
REMARK    1  A    between atoms: C_1  and  C_2
REMARK    2  A    between atoms: C_5  and  C_6
REMARK    3  A    between atoms: C_24  and  C_25
REMARK                            x       y       z     vdW  Elec       q    Type
REMARK                         _______ _______ _______ _____ _____    ______ ____
ROOT
ATOM      1  C   UNL     1       0.563  14.509  21.850  0.00  0.00    +0.000 C 
ATOM      2  C   UNL     1      -0.106  13.390  21.115  0.00  0.00    +0.000 A 
ATOM      3  C   UNL     1      -0.977  13.907  20.246  0.00  0.00    +0.000 A 
ATOM      4  O   UNL     1      -1.781  13.247  19.370  0.00  0.00    +0.000 OA
ATOM      5  C   UNL     1      -1.383  11.984  19.037  0.00  0.00    +0.000 A 
ATOM      6  C   UNL     1      -2.144  11.365  18.050  0.00  0.00    +0.000 A 
ATOM      7  C   UNL     1      -1.675  10.196  17.458  0.00  0.00    +0.000 A 
ATOM      8  C   UNL     1      -0.448   9.672  17.862  0.00  0.00    +0.000 A 
ATOM      9  C   UNL     1       0.276  10.255  18.923  0.00  0.00    +0.000 A 
ATOM     10  C   UNL     1      -0.223  11.400  19.558  0.00  0.00    +0.000 A 
ATOM     11  C   UNL     1       0.437  12.061  20.738  0.00  0.00    +0.000 A 
ATOM     12  O   UNL     1       1.380  11.555  21.330  0.00  0.00    +0.000 OA
ATOM     13  C   UNL     1      -0.440  15.263  19.933  0.00  0.00    +0.000 C 
ATOM     14  O   UNL     1      -0.854  15.981  19.038  0.00  0.00    +0.000 OA
ATOM     15  N   UNL     1       0.723  15.417  20.721  0.00  0.00    +0.000 N 
ATOM     16  C   UNL     1       1.968  15.412  20.025  0.00  0.00    +0.000 A 
ATOM     17  C   UNL     1       2.154  16.179  18.881  0.00  0.00    +0.000 A 
ATOM     18  C   UNL     1       3.334  16.034  18.143  0.00  0.00    +0.000 A 
ATOM     19  C   UNL     1       4.298  15.114  18.549  0.00  0.00    +0.000 A 
ATOM     20  C   UNL     1       5.560  14.890  17.779  0.00  0.00    +0.000 C 
ATOM     21  C   UNL     1       4.038  14.405  19.712  0.00  0.00    +0.000 A 
ATOM     22  N   UNL     1       2.918  14.554  20.457  0.00  0.00    +0.000 NA
ENDROOT
BRANCH   1  27
ATOM     23  C   UNL     1      -3.836  16.724  25.129  0.00  0.00    +0.000 C 
ATOM     24  C   UNL     1      -2.648  16.178  24.388  0.00  0.00    +0.000 A 
ATOM     25  C   UNL     1      -2.347  14.813  24.401  0.00  0.00    +0.000 A 
ATOM     26  C   UNL     1      -1.275  14.289  23.660  0.00  0.00    +0.000 A 
ATOM     27  C   UNL     1      -0.456  15.130  22.882  0.00  0.00    +0.000 A 
ATOM     28  C   UNL     1      -0.719  16.521  22.946  0.00  0.00    +0.000 A 
ATOM     29  C   UNL     1      -1.811  17.033  23.671  0.00  0.00    +0.000 A 
ENDBRANCH   1  27
TORSDOF 1
ENDMDL
