MODEL 1
REMARK VINA RESULT:      -8.2      0.000      0.000
REMARK  Name = 
REMARK  5 active torsions:
REMARK  status: ('A' for Active; 'I' for Inactive)
REMARK    1  A    between atoms: C_1  and  N_2
REMARK    2  A    between atoms: C_4  and  C_5
REMARK    3  A    between atoms: N_7  and  C_8
REMARK    4  A    between atoms: N_7  and  C_15
REMARK    5  A    between atoms: C_8  and  C_9
REMARK                            x       y       z     vdW  Elec       q    Type
REMARK                         _______ _______ _______ _____ _____    ______ ____
ROOT
ATOM      1  C   UNL     1       3.963   6.849  18.044  0.00  0.00    +0.000 C 
ATOM      2  O   UNL     1       4.066   7.809  17.268  0.00  0.00    +0.000 OA
ATOM      3  N   UNL     1       2.885   6.739  18.937  0.00  0.00    +0.000 N 
ENDROOT
BRANCH   1   7
ATOM      4  C   UNL     1       8.165   5.438  20.046  0.00  0.00    +0.000 C 
ATOM      5  N   UNL     1       7.301   5.399  18.889  0.00  0.00    +0.000 N 
ATOM      6  C   UNL     1       6.256   6.398  18.739  0.00  0.00    +0.000 C 
ATOM      7  C   UNL     1       5.038   5.776  18.048  0.00  0.00    +0.000 C 
ATOM      8  C   UNL     1       5.480   5.216  16.700  0.00  0.00    +0.000 A 
ATOM      9  C   UNL     1       4.627   5.111  15.594  0.00  0.00    +0.000 A 
ATOM     10  C   UNL     1       5.045   4.461  14.428  0.00  0.00    +0.000 A 
ATOM     11  C   UNL     1       6.320   3.905  14.347  0.00  0.00    +0.000 A 
ATOM     12  C   UNL     1       7.189   4.005  15.432  0.00  0.00    +0.000 A 
ATOM     13  C   UNL     1       6.771   4.647  16.607  0.00  0.00    +0.000 A 
ATOM     14  C   UNL     1       7.688   4.650  17.790  0.00  0.00    +0.000 C 
ATOM     15  O   UNL     1       8.726   3.993  17.758  0.00  0.00    +0.000 OA
ENDBRANCH   1   7
BRANCH   3  16
ATOM     16  C   UNL     1       2.004   7.853  19.059  0.00  0.00    +0.000 A 
ATOM     17  C   UNL     1       1.594   8.562  17.923  0.00  0.00    +0.000 A 
ATOM     18  C   UNL     1       0.771   9.683  18.063  0.00  0.00    +0.000 A 
ATOM     19  C   UNL     1       0.334  10.065  19.326  0.00  0.00    +0.000 A 
ATOM     20  F   UNL     1      -0.449  11.143  19.455  0.00  0.00    +0.000 F 
ATOM     21  C   UNL     1       0.702   9.348  20.458  0.00  0.00    +0.000 A 
ATOM     22  C   UNL     1       1.549   8.247  20.326  0.00  0.00    +0.000 A 
ENDBRANCH   3  16
BRANCH   3  23
ATOM     23  C   UNL     1       2.615   5.600  19.851  0.00  0.00    +0.000 C 
BRANCH  23  24
ATOM     24  C   UNL     1       2.843   4.243  19.205  0.00  0.00    +0.000 A 
ATOM     25  C   UNL     1       2.081   3.836  18.107  0.00  0.00    +0.000 A 
ATOM     26  C   UNL     1       2.270   2.559  17.582  0.00  0.00    +0.000 A 
ATOM     27  C   UNL     1       3.234   1.732  18.137  0.00  0.00    +0.000 A 
ATOM     28  C   UNL     1       3.981   2.223  19.193  0.00  0.00    +0.000 A 
ATOM     29  N   UNL     1       3.798   3.447  19.745  0.00  0.00    +0.000 NA
ENDBRANCH  23  24
ENDBRANCH   3  23
TORSDOF 4
ENDMDL
MODEL 2
REMARK VINA RESULT:      -8.0      0.981      1.501
REMARK  Name = 
REMARK  5 active torsions:
REMARK  status: ('A' for Active; 'I' for Inactive)
REMARK    1  A    between atoms: C_1  and  N_2
REMARK    2  A    between atoms: C_4  and  C_5
REMARK    3  A    between atoms: N_7  and  C_8
REMARK    4  A    between atoms: N_7  and  C_15
REMARK    5  A    between atoms: C_8  and  C_9
REMARK                            x       y       z     vdW  Elec       q    Type
REMARK                         _______ _______ _______ _____ _____    ______ ____
ROOT
ATOM      1  C   UNL     1       3.887   6.817  17.969  0.00  0.00    +0.000 C 
ATOM      2  O   UNL     1       3.855   7.642  17.046  0.00  0.00    +0.000 OA
ATOM      3  N   UNL     1       2.951   6.846  19.014  0.00  0.00    +0.000 N 
ENDROOT
BRANCH   1   7
ATOM      4  C   UNL     1       8.081   5.463  20.026  0.00  0.00    +0.000 C 
ATOM      5  N   UNL     1       7.235   5.415  18.856  0.00  0.00    +0.000 N 
ATOM      6  C   UNL     1       6.177   6.398  18.695  0.00  0.00    +0.000 C 
ATOM      7  C   UNL     1       4.978   5.760  17.984  0.00  0.00    +0.000 C 
ATOM      8  C   UNL     1       5.449   5.213  16.641  0.00  0.00    +0.000 A 
ATOM      9  C   UNL     1       4.613   5.099  15.521  0.00  0.00    +0.000 A 
ATOM     10  C   UNL     1       5.058   4.461  14.359  0.00  0.00    +0.000 A 
ATOM     11  C   UNL     1       6.343   3.925  14.294  0.00  0.00    +0.000 A 
ATOM     12  C   UNL     1       7.195   4.034  15.393  0.00  0.00    +0.000 A 
ATOM     13  C   UNL     1       6.750   4.664  16.564  0.00  0.00    +0.000 A 
ATOM     14  C   UNL     1       7.649   4.676  17.760  0.00  0.00    +0.000 C 
ATOM     15  O   UNL     1       8.698   4.036  17.741  0.00  0.00    +0.000 OA
ENDBRANCH   1   7
BRANCH   3  16
ATOM     16  C   UNL     1       2.069   7.963  19.087  0.00  0.00    +0.000 A 
ATOM     17  C   UNL     1       1.581   8.404  20.323  0.00  0.00    +0.000 A 
ATOM     18  C   UNL     1       0.676   9.468  20.375  0.00  0.00    +0.000 A 
ATOM     19  C   UNL     1       0.297  10.108  19.200  0.00  0.00    +0.000 A 
ATOM     20  F   UNL     1      -0.574  11.123  19.255  0.00  0.00    +0.000 F 
ATOM     21  C   UNL     1       0.802   9.707  17.970  0.00  0.00    +0.000 A 
ATOM     22  C   UNL     1       1.680   8.624  17.911  0.00  0.00    +0.000 A 
ENDBRANCH   3  16
BRANCH   3  23
ATOM     23  C   UNL     1       2.843   5.865  20.124  0.00  0.00    +0.000 C 
BRANCH  23  24
ATOM     24  C   UNL     1       2.072   4.610  19.744  0.00  0.00    +0.000 A 
ATOM     25  C   UNL     1       1.677   3.691  20.719  0.00  0.00    +0.000 A 
ATOM     26  C   UNL     1       1.031   2.519  20.328  0.00  0.00    +0.000 A 
ATOM     27  C   UNL     1       0.764   2.306  18.984  0.00  0.00    +0.000 A 
ATOM     28  C   UNL     1       1.146   3.284  18.083  0.00  0.00    +0.000 A 
ATOM     29  N   UNL     1       1.803   4.417  18.429  0.00  0.00    +0.000 NA
ENDBRANCH  23  24
ENDBRANCH   3  23
TORSDOF 4
ENDMDL
MODEL 3
REMARK VINA RESULT:      -7.8      7.498      9.957
REMARK  Name = 
REMARK  5 active torsions:
REMARK  status: ('A' for Active; 'I' for Inactive)
REMARK    1  A    between atoms: C_1  and  N_2
REMARK    2  A    between atoms: C_4  and  C_5
REMARK    3  A    between atoms: N_7  and  C_8
REMARK    4  A    between atoms: N_7  and  C_15
REMARK    5  A    between atoms: C_8  and  C_9
REMARK                            x       y       z     vdW  Elec       q    Type
REMARK                         _______ _______ _______ _____ _____    ______ ____
ROOT
ATOM      1  C   UNL     1       1.080  13.472  20.248  0.00  0.00    +0.000 C 
ATOM      2  O   UNL     1       1.224  13.870  21.412  0.00  0.00    +0.000 OA
ATOM      3  N   UNL     1       0.551  12.202  19.966  0.00  0.00    +0.000 N 
ENDROOT
BRANCH   1   7
ATOM      4  C   UNL     1       4.884  15.209  17.764  0.00  0.00    +0.000 C 
ATOM      5  N   UNL     1       3.521  15.417  18.194  0.00  0.00    +0.000 N 
ATOM      6  C   UNL     1       2.998  14.656  19.315  0.00  0.00    +0.000 C 
ATOM      7  C   UNL     1       1.508  14.366  19.098  0.00  0.00    +0.000 C 
ATOM      8  C   UNL     1       0.778  15.694  18.927  0.00  0.00    +0.000 A 
ATOM      9  C   UNL     1      -0.566  15.883  19.278  0.00  0.00    +0.000 A 
ATOM     10  C   UNL     1      -1.224  17.079  18.970  0.00  0.00    +0.000 A 
ATOM     11  C   UNL     1      -0.553  18.104  18.307  0.00  0.00    +0.000 A 
ATOM     12  C   UNL     1       0.787  17.942  17.957  0.00  0.00    +0.000 A 
ATOM     13  C   UNL     1       1.448  16.742  18.254  0.00  0.00    +0.000 A 
ATOM     14  C   UNL     1       2.854  16.557  17.776  0.00  0.00    +0.000 C 
ATOM     15  O   UNL     1       3.360  17.396  17.033  0.00  0.00    +0.000 OA
ENDBRANCH   1   7
BRANCH   3  16
ATOM     16  C   UNL     1       0.351  11.307  21.056  0.00  0.00    +0.000 A 
ATOM     17  C   UNL     1       1.136  10.155  21.183  0.00  0.00    +0.000 A 
ATOM     18  C   UNL     1       0.894   9.259  22.229  0.00  0.00    +0.000 A 
ATOM     19  C   UNL     1      -0.100   9.539  23.159  0.00  0.00    +0.000 A 
ATOM     20  F   UNL     1      -0.332   8.675  24.156  0.00  0.00    +0.000 F 
ATOM     21  C   UNL     1      -0.861  10.697  23.069  0.00  0.00    +0.000 A 
ATOM     22  C   UNL     1      -0.645  11.577  22.008  0.00  0.00    +0.000 A 
ENDBRANCH   3  16
BRANCH   3  23
ATOM     23  C   UNL     1       0.261  11.653  18.617  0.00  0.00    +0.000 C 
BRANCH  23  24
ATOM     24  C   UNL     1      -1.201  11.284  18.420  0.00  0.00    +0.000 A 
ATOM     25  C   UNL     1      -1.560  10.066  17.840  0.00  0.00    +0.000 A 
ATOM     26  C   UNL     1      -2.907   9.790  17.613  0.00  0.00    +0.000 A 
ATOM     27  C   UNL     1      -3.865  10.715  17.999  0.00  0.00    +0.000 A 
ATOM     28  C   UNL     1      -3.434  11.879  18.610  0.00  0.00    +0.000 A 
ATOM     29  N   UNL     1      -2.131  12.189  18.814  0.00  0.00    +0.000 NA
ENDBRANCH  23  24
ENDBRANCH   3  23
TORSDOF 4
ENDMDL
MODEL 4
REMARK VINA RESULT:      -7.8      5.259     10.287
REMARK  Name = 
REMARK  5 active torsions:
REMARK  status: ('A' for Active; 'I' for Inactive)
REMARK    1  A    between atoms: C_1  and  N_2
REMARK    2  A    between atoms: C_4  and  C_5
REMARK    3  A    between atoms: N_7  and  C_8
REMARK    4  A    between atoms: N_7  and  C_15
REMARK    5  A    between atoms: C_8  and  C_9
REMARK                            x       y       z     vdW  Elec       q    Type
REMARK                         _______ _______ _______ _____ _____    ______ ____
ROOT
ATOM      1  C   UNL     1       0.430  11.530  20.966  0.00  0.00    +0.000 C 
ATOM      2  O   UNL     1       0.932  10.872  21.888  0.00  0.00    +0.000 OA
ATOM      3  N   UNL     1       0.370  11.032  19.655  0.00  0.00    +0.000 N 
ENDROOT
BRANCH   1   7
ATOM      4  C   UNL     1       1.592  16.226  21.473  0.00  0.00    +0.000 C 
ATOM      5  N   UNL     1       0.686  15.158  21.825  0.00  0.00    +0.000 N 
ATOM      6  C   UNL     1       1.098  13.777  21.641  0.00  0.00    +0.000 C 
ATOM      7  C   UNL     1      -0.112  12.920  21.254  0.00  0.00    +0.000 C 
ATOM      8  C   UNL     1      -1.167  13.053  22.346  0.00  0.00    +0.000 A 
ATOM      9  C   UNL     1      -2.095  12.046  22.645  0.00  0.00    +0.000 A 
ATOM     10  C   UNL     1      -3.129  12.275  23.559  0.00  0.00    +0.000 A 
ATOM     11  C   UNL     1      -3.254  13.512  24.189  0.00  0.00    +0.000 A 
ATOM     12  C   UNL     1      -2.337  14.525  23.914  0.00  0.00    +0.000 A 
ATOM     13  C   UNL     1      -1.306  14.304  22.991  0.00  0.00    +0.000 A 
ATOM     14  C   UNL     1      -0.398  15.441  22.639  0.00  0.00    +0.000 C 
ATOM     15  O   UNL     1      -0.642  16.569  23.063  0.00  0.00    +0.000 OA
ENDBRANCH   1   7
BRANCH   3  16
ATOM     16  C   UNL     1       1.066   9.821  19.370  0.00  0.00    +0.000 A 
ATOM     17  C   UNL     1       1.141   8.803  20.328  0.00  0.00    +0.000 A 
ATOM     18  C   UNL     1       1.870   7.642  20.054  0.00  0.00    +0.000 A 
ATOM     19  C   UNL     1       2.484   7.490  18.816  0.00  0.00    +0.000 A 
ATOM     20  F   UNL     1       3.185   6.378  18.560  0.00  0.00    +0.000 F 
ATOM     21  C   UNL     1       2.385   8.474  17.841  0.00  0.00    +0.000 A 
ATOM     22  C   UNL     1       1.685   9.648  18.123  0.00  0.00    +0.000 A 
ENDBRANCH   3  16
BRANCH   3  23
ATOM     23  C   UNL     1      -0.276  11.693  18.493  0.00  0.00    +0.000 C 
BRANCH  23  24
ATOM     24  C   UNL     1      -1.716  11.256  18.277  0.00  0.00    +0.000 A 
ATOM     25  C   UNL     1      -2.013  10.117  17.525  0.00  0.00    +0.000 A 
ATOM     26  C   UNL     1      -3.346   9.784  17.290  0.00  0.00    +0.000 A 
ATOM     27  C   UNL     1      -4.350  10.570  17.836  0.00  0.00    +0.000 A 
ATOM     28  C   UNL     1      -3.976  11.656  18.608  0.00  0.00    +0.000 A 
ATOM     29  N   UNL     1      -2.690  12.023  18.826  0.00  0.00    +0.000 NA
ENDBRANCH  23  24
ENDBRANCH   3  23
TORSDOF 4
ENDMDL
MODEL 5
REMARK VINA RESULT:      -7.7      8.230      9.796
REMARK  Name = 
REMARK  5 active torsions:
REMARK  status: ('A' for Active; 'I' for Inactive)
REMARK    1  A    between atoms: C_1  and  N_2
REMARK    2  A    between atoms: C_4  and  C_5
REMARK    3  A    between atoms: N_7  and  C_8
REMARK    4  A    between atoms: N_7  and  C_15
REMARK    5  A    between atoms: C_8  and  C_9
REMARK                            x       y       z     vdW  Elec       q    Type
REMARK                         _______ _______ _______ _____ _____    ______ ____
ROOT
ATOM      1  C   UNL     1       6.943  14.987  18.553  0.00  0.00    +0.000 C 
ATOM      2  O   UNL     1       6.347  14.740  17.496  0.00  0.00    +0.000 OA
ATOM      3  N   UNL     1       6.248  15.253  19.744  0.00  0.00    +0.000 N 
ENDROOT
BRANCH   1   7
ATOM      4  C   UNL     1      10.857  17.644  17.424  0.00  0.00    +0.000 C 
ATOM      5  N   UNL     1      10.303  16.324  17.614  0.00  0.00    +0.000 N 
ATOM      6  C   UNL     1       8.862  16.139  17.585  0.00  0.00    +0.000 C 
ATOM      7  C   UNL     1       8.461  15.026  18.560  0.00  0.00    +0.000 C 
ATOM      8  C   UNL     1       9.202  13.752  18.168  0.00  0.00    +0.000 A 
ATOM      9  C   UNL     1       8.700  12.466  18.413  0.00  0.00    +0.000 A 
ATOM     10  C   UNL     1       9.483  11.334  18.161  0.00  0.00    +0.000 A 
ATOM     11  C   UNL     1      10.777  11.466  17.662  0.00  0.00    +0.000 A 
ATOM     12  C   UNL     1      11.293  12.735  17.403  0.00  0.00    +0.000 A 
ATOM     13  C   UNL     1      10.517  13.873  17.663  0.00  0.00    +0.000 A 
ATOM     14  C   UNL     1      11.132  15.224  17.472  0.00  0.00    +0.000 C 
ATOM     15  O   UNL     1      12.331  15.316  17.213  0.00  0.00    +0.000 OA
ENDBRANCH   1   7
BRANCH   3  16
ATOM     16  C   UNL     1       4.834  15.413  19.667  0.00  0.00    +0.000 A 
ATOM     17  C   UNL     1       3.983  14.319  19.867  0.00  0.00    +0.000 A 
ATOM     18  C   UNL     1       2.600  14.480  19.738  0.00  0.00    +0.000 A 
ATOM     19  C   UNL     1       2.077  15.736  19.451  0.00  0.00    +0.000 A 
ATOM     20  F   UNL     1       0.752  15.884  19.324  0.00  0.00    +0.000 F 
ATOM     21  C   UNL     1       2.906  16.838  19.289  0.00  0.00    +0.000 A 
ATOM     22  C   UNL     1       4.288  16.675  19.385  0.00  0.00    +0.000 A 
ENDBRANCH   3  16
BRANCH   3  23
ATOM     23  C   UNL     1       6.852  15.481  21.081  0.00  0.00    +0.000 C 
BRANCH  23  24
ATOM     24  C   UNL     1       7.100  14.197  21.856  0.00  0.00    +0.000 A 
ATOM     25  C   UNL     1       8.345  13.564  21.814  0.00  0.00    +0.000 A 
ATOM     26  C   UNL     1       8.516  12.353  22.482  0.00  0.00    +0.000 A 
ATOM     27  C   UNL     1       7.459  11.818  23.201  0.00  0.00    +0.000 A 
ATOM     28  C   UNL     1       6.270  12.526  23.233  0.00  0.00    +0.000 A 
ATOM     29  N   UNL     1       6.064  13.688  22.568  0.00  0.00    +0.000 NA
ENDBRANCH  23  24
ENDBRANCH   3  23
TORSDOF 4
ENDMDL
MODEL 6
REMARK VINA RESULT:      -7.5      5.221     10.190
REMARK  Name = 
REMARK  5 active torsions:
REMARK  status: ('A' for Active; 'I' for Inactive)
REMARK    1  A    between atoms: C_1  and  N_2
REMARK    2  A    between atoms: C_4  and  C_5
REMARK    3  A    between atoms: N_7  and  C_8
REMARK    4  A    between atoms: N_7  and  C_15
REMARK    5  A    between atoms: C_8  and  C_9
REMARK                            x       y       z     vdW  Elec       q    Type
REMARK                         _______ _______ _______ _____ _____    ______ ____
ROOT
ATOM      1  C   UNL     1       0.509  11.523  20.906  0.00  0.00    +0.000 C 
ATOM      2  O   UNL     1       0.992  10.855  21.830  0.00  0.00    +0.000 OA
ATOM      3  N   UNL     1       0.466  11.035  19.590  0.00  0.00    +0.000 N 
ENDROOT
BRANCH   1   7
ATOM      4  C   UNL     1       1.687  16.209  21.461  0.00  0.00    +0.000 C 
ATOM      5  N   UNL     1       0.771  15.143  21.793  0.00  0.00    +0.000 N 
ATOM      6  C   UNL     1       1.179  13.761  21.605  0.00  0.00    +0.000 C 
ATOM      7  C   UNL     1      -0.031  12.913  21.195  0.00  0.00    +0.000 C 
ATOM      8  C   UNL     1      -1.100  13.044  22.274  0.00  0.00    +0.000 A 
ATOM      9  C   UNL     1      -2.038  12.040  22.553  0.00  0.00    +0.000 A 
ATOM     10  C   UNL     1      -3.083  12.269  23.454  0.00  0.00    +0.000 A 
ATOM     11  C   UNL     1      -3.211  13.501  24.091  0.00  0.00    +0.000 A 
ATOM     12  C   UNL     1      -2.285  14.512  23.836  0.00  0.00    +0.000 A 
ATOM     13  C   UNL     1      -1.241  14.291  22.925  0.00  0.00    +0.000 A 
ATOM     14  C   UNL     1      -0.323  15.426  22.594  0.00  0.00    +0.000 C 
ATOM     15  O   UNL     1      -0.567  16.552  23.022  0.00  0.00    +0.000 OA
ENDBRANCH   1   7
BRANCH   3  16
ATOM     16  C   UNL     1       1.159   9.823  19.307  0.00  0.00    +0.000 A 
ATOM     17  C   UNL     1       1.784   9.634  18.068  0.00  0.00    +0.000 A 
ATOM     18  C   UNL     1       2.416   8.419  17.785  0.00  0.00    +0.000 A 
ATOM     19  C   UNL     1       2.454   7.421  18.752  0.00  0.00    +0.000 A 
ATOM     20  F   UNL     1       3.056   6.258  18.474  0.00  0.00    +0.000 F 
ATOM     21  C   UNL     1       1.873   7.608  19.999  0.00  0.00    +0.000 A 
ATOM     22  C   UNL     1       1.212   8.807  20.273  0.00  0.00    +0.000 A 
ENDBRANCH   3  16
BRANCH   3  23
ATOM     23  C   UNL     1      -0.159  11.709  18.423  0.00  0.00    +0.000 C 
BRANCH  23  24
ATOM     24  C   UNL     1      -1.604  11.296  18.193  0.00  0.00    +0.000 A 
ATOM     25  C   UNL     1      -2.653  11.999  18.790  0.00  0.00    +0.000 A 
ATOM     26  C   UNL     1      -3.961  11.553  18.612  0.00  0.00    +0.000 A 
ATOM     27  C   UNL     1      -4.197  10.440  17.819  0.00  0.00    +0.000 A 
ATOM     28  C   UNL     1      -3.110   9.824  17.224  0.00  0.00    +0.000 A 
ATOM     29  N   UNL     1      -1.826  10.216  17.404  0.00  0.00    +0.000 NA
ENDBRANCH  23  24
ENDBRANCH   3  23
TORSDOF 4
ENDMDL
MODEL 7
REMARK VINA RESULT:      -7.4      2.906      7.190
REMARK  Name = 
REMARK  5 active torsions:
REMARK  status: ('A' for Active; 'I' for Inactive)
REMARK    1  A    between atoms: C_1  and  N_2
REMARK    2  A    between atoms: C_4  and  C_5
REMARK    3  A    between atoms: N_7  and  C_8
REMARK    4  A    between atoms: N_7  and  C_15
REMARK    5  A    between atoms: C_8  and  C_9
REMARK                            x       y       z     vdW  Elec       q    Type
REMARK                         _______ _______ _______ _____ _____    ______ ____
ROOT
ATOM      1  C   UNL     1       2.284   7.990  18.596  0.00  0.00    +0.000 C 
ATOM      2  O   UNL     1       3.039   8.657  17.875  0.00  0.00    +0.000 OA
ATOM      3  N   UNL     1       2.656   6.725  19.078  0.00  0.00    +0.000 N 
ENDROOT
BRANCH   1   7
ATOM      4  C   UNL     1      -1.531  10.515  16.947  0.00  0.00    +0.000 C 
ATOM      5  N   UNL     1      -0.747  10.116  18.092  0.00  0.00    +0.000 N 
ATOM      6  C   UNL     1       0.602   9.612  17.897  0.00  0.00    +0.000 C 
ATOM      7  C   UNL     1       0.914   8.541  18.949  0.00  0.00    +0.000 C 
ATOM      8  C   UNL     1       0.736   9.158  20.332  0.00  0.00    +0.000 A 
ATOM      9  C   UNL     1       1.445   8.727  21.463  0.00  0.00    +0.000 A 
ATOM     10  C   UNL     1       1.141   9.232  22.731  0.00  0.00    +0.000 A 
ATOM     11  C   UNL     1       0.126  10.172  22.894  0.00  0.00    +0.000 A 
ATOM     12  C   UNL     1      -0.586  10.622  21.783  0.00  0.00    +0.000 A 
ATOM     13  C   UNL     1      -0.293  10.112  20.510  0.00  0.00    +0.000 A 
ATOM     14  C   UNL     1      -1.140  10.536  19.352  0.00  0.00    +0.000 C 
ATOM     15  O   UNL     1      -2.144  11.217  19.548  0.00  0.00    +0.000 OA
ENDBRANCH   1   7
BRANCH   3  16
ATOM     16  C   UNL     1       3.853   6.144  18.569  0.00  0.00    +0.000 A 
ATOM     17  C   UNL     1       3.989   5.879  17.201  0.00  0.00    +0.000 A 
ATOM     18  C   UNL     1       5.148   5.262  16.723  0.00  0.00    +0.000 A 
ATOM     19  C   UNL     1       6.177   4.950  17.605  0.00  0.00    +0.000 A 
ATOM     20  F   UNL     1       7.283   4.354  17.143  0.00  0.00    +0.000 F 
ATOM     21  C   UNL     1       6.073   5.242  18.959  0.00  0.00    +0.000 A 
ATOM     22  C   UNL     1       4.904   5.828  19.445  0.00  0.00    +0.000 A 
ENDBRANCH   3  16
BRANCH   3  23
ATOM     23  C   UNL     1       1.871   5.875  20.009  0.00  0.00    +0.000 C 
BRANCH  23  24
ATOM     24  C   UNL     1       1.934   4.394  19.669  0.00  0.00    +0.000 A 
ATOM     25  C   UNL     1       1.331   3.900  18.510  0.00  0.00    +0.000 A 
ATOM     26  C   UNL     1       1.350   2.528  18.264  0.00  0.00    +0.000 A 
ATOM     27  C   UNL     1       1.997   1.686  19.157  0.00  0.00    +0.000 A 
ATOM     28  C   UNL     1       2.611   2.257  20.258  0.00  0.00    +0.000 A 
ATOM     29  N   UNL     1       2.582   3.581  20.540  0.00  0.00    +0.000 NA
ENDBRANCH  23  24
ENDBRANCH   3  23
TORSDOF 4
ENDMDL
MODEL 8
REMARK VINA RESULT:      -7.4      2.975      7.243
REMARK  Name = 
REMARK  5 active torsions:
REMARK  status: ('A' for Active; 'I' for Inactive)
REMARK    1  A    between atoms: C_1  and  N_2
REMARK    2  A    between atoms: C_4  and  C_5
REMARK    3  A    between atoms: N_7  and  C_8
REMARK    4  A    between atoms: N_7  and  C_15
REMARK    5  A    between atoms: C_8  and  C_9
REMARK                            x       y       z     vdW  Elec       q    Type
REMARK                         _______ _______ _______ _____ _____    ______ ____
ROOT
ATOM      1  C   UNL     1       2.412   8.012  18.487  0.00  0.00    +0.000 C 
ATOM      2  O   UNL     1       3.347   8.824  18.487  0.00  0.00    +0.000 OA
ATOM      3  N   UNL     1       2.610   6.662  18.157  0.00  0.00    +0.000 N 
ENDROOT
BRANCH   1   7
ATOM      4  C   UNL     1      -1.478  10.425  16.843  0.00  0.00    +0.000 C 
ATOM      5  N   UNL     1      -0.700  10.021  17.990  0.00  0.00    +0.000 N 
ATOM      6  C   UNL     1       0.674   9.582  17.808  0.00  0.00    +0.000 C 
ATOM      7  C   UNL     1       1.011   8.490  18.829  0.00  0.00    +0.000 C 
ATOM      8  C   UNL     1       0.779   9.050  20.228  0.00  0.00    +0.000 A 
ATOM      9  C   UNL     1       1.484   8.612  21.358  0.00  0.00    +0.000 A 
ATOM     10  C   UNL     1       1.133   9.058  22.637  0.00  0.00    +0.000 A 
ATOM     11  C   UNL     1       0.074   9.948  22.809  0.00  0.00    +0.000 A 
ATOM     12  C   UNL     1      -0.635  10.404  21.699  0.00  0.00    +0.000 A 
ATOM     13  C   UNL     1      -0.294   9.952  20.416  0.00  0.00    +0.000 A 
ATOM     14  C   UNL     1      -1.136  10.379  19.255  0.00  0.00    +0.000 C 
ATOM     15  O   UNL     1      -2.173  11.009  19.453  0.00  0.00    +0.000 OA
ENDBRANCH   1   7
BRANCH   3  16
ATOM     16  C   UNL     1       3.884   6.282  17.643  0.00  0.00    +0.000 A 
ATOM     17  C   UNL     1       4.231   6.571  16.318  0.00  0.00    +0.000 A 
ATOM     18  C   UNL     1       5.463   6.148  15.813  0.00  0.00    +0.000 A 
ATOM     19  C   UNL     1       6.353   5.475  16.642  0.00  0.00    +0.000 A 
ATOM     20  F   UNL     1       7.530   5.066  16.151  0.00  0.00    +0.000 F 
ATOM     21  C   UNL     1       6.039   5.215  17.970  0.00  0.00    +0.000 A 
ATOM     22  C   UNL     1       4.797   5.608  18.469  0.00  0.00    +0.000 A 
ENDBRANCH   3  16
BRANCH   3  23
ATOM     23  C   UNL     1       1.586   5.588  18.201  0.00  0.00    +0.000 C 
BRANCH  23  24
ATOM     24  C   UNL     1       1.829   4.569  19.304  0.00  0.00    +0.000 A 
ATOM     25  C   UNL     1       1.890   4.964  20.642  0.00  0.00    +0.000 A 
ATOM     26  C   UNL     1       2.182   4.015  21.620  0.00  0.00    +0.000 A 
ATOM     27  C   UNL     1       2.372   2.693  21.249  0.00  0.00    +0.000 A 
ATOM     28  C   UNL     1       2.250   2.371  19.909  0.00  0.00    +0.000 A 
ATOM     29  N   UNL     1       1.999   3.276  18.932  0.00  0.00    +0.000 NA
ENDBRANCH  23  24
ENDBRANCH   3  23
TORSDOF 4
ENDMDL
MODEL 9
REMARK VINA RESULT:      -7.4      7.339     10.034
REMARK  Name = 
REMARK  5 active torsions:
REMARK  status: ('A' for Active; 'I' for Inactive)
REMARK    1  A    between atoms: C_1  and  N_2
REMARK    2  A    between atoms: C_4  and  C_5
REMARK    3  A    between atoms: N_7  and  C_8
REMARK    4  A    between atoms: N_7  and  C_15
REMARK    5  A    between atoms: C_8  and  C_9
REMARK                            x       y       z     vdW  Elec       q    Type
REMARK                         _______ _______ _______ _____ _____    ______ ____
ROOT
ATOM      1  C   UNL     1      -0.273  12.924  19.078  0.00  0.00    +0.000 C 
ATOM      2  O   UNL     1      -0.401  14.153  18.998  0.00  0.00    +0.000 OA
ATOM      3  N   UNL     1       0.961  12.332  19.392  0.00  0.00    +0.000 N 
ENDROOT
BRANCH   1   7
ATOM      4  C   UNL     1      -2.775  10.557  15.644  0.00  0.00    +0.000 C 
ATOM      5  N   UNL     1      -2.806  11.207  16.933  0.00  0.00    +0.000 N 
ATOM      6  C   UNL     1      -1.739  12.122  17.301  0.00  0.00    +0.000 C 
ATOM      7  C   UNL     1      -1.472  12.032  18.808  0.00  0.00    +0.000 C 
ATOM      8  C   UNL     1      -2.768  12.349  19.547  0.00  0.00    +0.000 A 
ATOM      9  C   UNL     1      -2.803  12.915  20.829  0.00  0.00    +0.000 A 
ATOM     10  C   UNL     1      -4.013  13.054  21.516  0.00  0.00    +0.000 A 
ATOM     11  C   UNL     1      -5.207  12.630  20.938  0.00  0.00    +0.000 A 
ATOM     12  C   UNL     1      -5.198  12.072  19.660  0.00  0.00    +0.000 A 
ATOM     13  C   UNL     1      -3.986  11.921  18.971  0.00  0.00    +0.000 A 
ATOM     14  C   UNL     1      -3.993  11.226  17.645  0.00  0.00    +0.000 C 
ATOM     15  O   UNL     1      -5.026  10.695  17.241  0.00  0.00    +0.000 OA
ENDBRANCH   1   7
BRANCH   3  16
ATOM     16  C   UNL     1       2.110  13.174  19.438  0.00  0.00    +0.000 A 
ATOM     17  C   UNL     1       2.586  13.661  20.661  0.00  0.00    +0.000 A 
ATOM     18  C   UNL     1       3.683  14.527  20.686  0.00  0.00    +0.000 A 
ATOM     19  C   UNL     1       4.319  14.867  19.498  0.00  0.00    +0.000 A 
ATOM     20  F   UNL     1       5.366  15.701  19.526  0.00  0.00    +0.000 F 
ATOM     21  C   UNL     1       3.883  14.361  18.280  0.00  0.00    +0.000 A 
ATOM     22  C   UNL     1       2.768  13.522  18.248  0.00  0.00    +0.000 A 
ENDBRANCH   3  16
BRANCH   3  23
ATOM     23  C   UNL     1       1.214  10.883  19.593  0.00  0.00    +0.000 C 
BRANCH  23  24
ATOM     24  C   UNL     1       0.554  10.326  20.845  0.00  0.00    +0.000 A 
ATOM     25  C   UNL     1       0.293   8.959  20.968  0.00  0.00    +0.000 A 
ATOM     26  C   UNL     1      -0.374   8.492  22.099  0.00  0.00    +0.000 A 
ATOM     27  C   UNL     1      -0.735   9.388  23.094  0.00  0.00    +0.000 A 
ATOM     28  C   UNL     1      -0.401  10.720  22.920  0.00  0.00    +0.000 A 
ATOM     29  N   UNL     1       0.217  11.208  21.818  0.00  0.00    +0.000 NA
ENDBRANCH  23  24
ENDBRANCH   3  23
TORSDOF 4
ENDMDL
