MODEL 1
REMARK VINA RESULT:      -8.6      0.000      0.000
REMARK  Name = 
REMARK  5 active torsions:
REMARK  status: ('A' for Active; 'I' for Inactive)
REMARK    1  A    between atoms: C_1  and  C_2
REMARK    2  A    between atoms: C_8  and  C_9
REMARK    3  A    between atoms: N_11  and  C_12
REMARK    4  A    between atoms: C_15  and  O_16
REMARK    5  A    between atoms: O_16  and  C_17
REMARK                            x       y       z     vdW  Elec       q    Type
REMARK                         _______ _______ _______ _____ _____    ______ ____
ROOT
ATOM      1  C   UNL     1       1.710   8.438  19.704  0.00  0.00    +0.000 A 
ATOM      2  C   UNL     1       2.266   8.488  18.436  0.00  0.00    +0.000 A 
ATOM      3  C   UNL     1       2.804   7.274  17.845  0.00  0.00    +0.000 A 
ATOM      4  C   UNL     1       2.827   6.005  18.564  0.00  0.00    +0.000 A 
ATOM      5  C   UNL     1       2.399   6.076  19.868  0.00  0.00    +0.000 A 
ATOM      6  C   UNL     1       1.834   7.238  20.416  0.00  0.00    +0.000 A 
ENDROOT
BRANCH   1   9
ATOM      7  C   UNL     1      -0.101  10.162  19.975  0.00  0.00    +0.000 C 
ATOM      8  O   UNL     1      -0.726   9.823  18.969  0.00  0.00    +0.000 OA
ATOM      9  N   UNL     1       1.074   9.524  20.365  0.00  0.00    +0.000 N 
ATOM     10  H   UNL     1       1.388   9.608  21.311  0.00  0.00    +0.000 HD
BRANCH   7  18
ATOM     11  C   UNL     1      -0.608   9.949  23.120  0.00  0.00    +0.000 C 
ATOM     12  C   UNL     1      -0.920  11.177  22.343  0.00  0.00    +0.000 A 
ATOM     13  C   UNL     1      -1.457  12.212  23.021  0.00  0.00    +0.000 A 
ATOM     14  C   UNL     1      -1.992  13.395  22.316  0.00  0.00    +0.000 A 
ATOM     15  O   UNL     1      -2.593  14.283  22.902  0.00  0.00    +0.000 OA
ATOM     16  N   UNL     1      -1.745  13.418  20.969  0.00  0.00    +0.000 N 
ATOM     17  C   UNL     1      -1.110  12.400  20.282  0.00  0.00    +0.000 A 
ATOM     18  C   UNL     1      -0.707  11.256  20.887  0.00  0.00    +0.000 A 
ATOM     19  H   UNL     1      -2.133  14.213  20.473  0.00  0.00    +0.000 HD
ENDBRANCH   7  18
ENDBRANCH   1   9
BRANCH   4  20
ATOM     20  O   UNL     1       3.557   4.813  18.302  0.00  0.00    +0.000 OA
BRANCH  20  21
ATOM     21  C   UNL     1       5.049   4.575  18.399  0.00  0.00    +0.000 A 
ATOM     22  C   UNL     1       6.222   5.335  19.356  0.00  0.00    +0.000 A 
ATOM     23  C   UNL     1       7.483   5.766  18.974  0.00  0.00    +0.000 A 
ATOM     24  N   UNL     1       7.103   5.220  17.890  0.00  0.00    +0.000 NA
ATOM     25  C   UNL     1       6.764   4.697  16.765  0.00  0.00    +0.000 A 
ATOM     26  C   UNL     1       7.480   4.909  15.613  0.00  0.00    +0.000 A 
ATOM     27  C   UNL     1       6.788   4.790  14.453  0.00  0.00    +0.000 A 
ATOM     28  C   UNL     1       5.463   4.340  14.499  0.00  0.00    +0.000 A 
ATOM     29  C   UNL     1       4.809   4.064  15.730  0.00  0.00    +0.000 A 
ATOM     30  C   UNL     1       5.465   4.337  16.964  0.00  0.00    +0.000 A 
ENDBRANCH  20  21
ENDBRANCH   4  20
TORSDOF 4
ENDMDL
MODEL 2
REMARK VINA RESULT:      -8.6      2.005      3.273
REMARK  Name = 
REMARK  5 active torsions:
REMARK  status: ('A' for Active; 'I' for Inactive)
REMARK    1  A    between atoms: C_1  and  C_2
REMARK    2  A    between atoms: C_8  and  C_9
REMARK    3  A    between atoms: N_11  and  C_12
REMARK    4  A    between atoms: C_15  and  O_16
REMARK    5  A    between atoms: O_16  and  C_17
REMARK                            x       y       z     vdW  Elec       q    Type
REMARK                         _______ _______ _______ _____ _____    ______ ____
ROOT
ATOM      1  C   UNL     1       0.417   9.785  20.303  0.00  0.00    +0.000 A 
ATOM      2  C   UNL     1       0.935   8.654  20.914  0.00  0.00    +0.000 A 
ATOM      3  C   UNL     1       1.857   7.805  20.177  0.00  0.00    +0.000 A 
ATOM      4  C   UNL     1       2.218   8.073  18.790  0.00  0.00    +0.000 A 
ATOM      5  C   UNL     1       1.543   9.121  18.212  0.00  0.00    +0.000 A 
ATOM      6  C   UNL     1       0.695   9.967  18.942  0.00  0.00    +0.000 A 
ENDROOT
BRANCH   1   9
ATOM      7  C   UNL     1      -0.524  10.994  22.298  0.00  0.00    +0.000 C 
ATOM      8  O   UNL     1       0.139  10.369  23.127  0.00  0.00    +0.000 OA
ATOM      9  N   UNL     1      -0.422  10.745  20.931  0.00  0.00    +0.000 N 
ATOM     10  H   UNL     1      -0.728  11.441  20.280  0.00  0.00    +0.000 HD
BRANCH   7  18
ATOM     11  C   UNL     1       0.176  14.105  22.151  0.00  0.00    +0.000 C 
ATOM     12  C   UNL     1      -1.109  13.602  22.703  0.00  0.00    +0.000 A 
ATOM     13  C   UNL     1      -1.978  14.522  23.171  0.00  0.00    +0.000 A 
ATOM     14  C   UNL     1      -3.185  14.122  23.923  0.00  0.00    +0.000 A 
ATOM     15  O   UNL     1      -3.915  14.941  24.460  0.00  0.00    +0.000 OA
ATOM     16  N   UNL     1      -3.421  12.774  23.951  0.00  0.00    +0.000 N 
ATOM     17  C   UNL     1      -2.580  11.830  23.391  0.00  0.00    +0.000 A 
ATOM     18  C   UNL     1      -1.412  12.162  22.790  0.00  0.00    +0.000 A 
ATOM     19  H   UNL     1      -4.232  12.488  24.489  0.00  0.00    +0.000 HD
ENDBRANCH   7  18
ENDBRANCH   1   9
BRANCH   4  20
ATOM     20  O   UNL     1       2.836   7.234  17.822  0.00  0.00    +0.000 OA
BRANCH  20  21
ATOM     21  C   UNL     1       3.961   6.238  18.013  0.00  0.00    +0.000 A 
ATOM     22  C   UNL     1       5.442   6.086  17.204  0.00  0.00    +0.000 A 
ATOM     23  C   UNL     1       6.042   4.926  16.740  0.00  0.00    +0.000 A 
ATOM     24  N   UNL     1       5.022   4.428  17.313  0.00  0.00    +0.000 NA
ATOM     25  C   UNL     1       4.001   3.871  17.863  0.00  0.00    +0.000 A 
ATOM     26  C   UNL     1       3.679   2.555  17.645  0.00  0.00    +0.000 A 
ATOM     27  C   UNL     1       2.371   2.230  17.802  0.00  0.00    +0.000 A 
ATOM     28  C   UNL     1       1.488   3.199  18.291  0.00  0.00    +0.000 A 
ATOM     29  C   UNL     1       1.911   4.526  18.569  0.00  0.00    +0.000 A 
ATOM     30  C   UNL     1       3.241   4.931  18.258  0.00  0.00    +0.000 A 
ENDBRANCH  20  21
ENDBRANCH   4  20
TORSDOF 4
ENDMDL
MODEL 3
REMARK VINA RESULT:      -8.6      1.582      2.319
REMARK  Name = 
REMARK  5 active torsions:
REMARK  status: ('A' for Active; 'I' for Inactive)
REMARK    1  A    between atoms: C_1  and  C_2
REMARK    2  A    between atoms: C_8  and  C_9
REMARK    3  A    between atoms: N_11  and  C_12
REMARK    4  A    between atoms: C_15  and  O_16
REMARK    5  A    between atoms: O_16  and  C_17
REMARK                            x       y       z     vdW  Elec       q    Type
REMARK                         _______ _______ _______ _____ _____    ______ ____
ROOT
ATOM      1  C   UNL     1       1.197   9.366  19.619  0.00  0.00    +0.000 A 
ATOM      2  C   UNL     1       1.452   8.173  20.277  0.00  0.00    +0.000 A 
ATOM      3  C   UNL     1       2.246   7.151  19.618  0.00  0.00    +0.000 A 
ATOM      4  C   UNL     1       2.745   7.314  18.257  0.00  0.00    +0.000 A 
ATOM      5  C   UNL     1       2.319   8.456  17.621  0.00  0.00    +0.000 A 
ATOM      6  C   UNL     1       1.596   9.462  18.280  0.00  0.00    +0.000 A 
ENDROOT
BRANCH   1   9
ATOM      7  C   UNL     1      -0.796  10.876  19.899  0.00  0.00    +0.000 C 
ATOM      8  O   UNL     1      -1.509  10.263  19.103  0.00  0.00    +0.000 OA
ATOM      9  N   UNL     1       0.510  10.480  20.176  0.00  0.00    +0.000 N 
ATOM     10  H   UNL     1       0.952  10.794  21.018  0.00  0.00    +0.000 HD
BRANCH   7  18
ATOM     11  C   UNL     1      -1.275  10.999  23.053  0.00  0.00    +0.000 C 
ATOM     12  C   UNL     1      -1.616  12.129  22.149  0.00  0.00    +0.000 A 
ATOM     13  C   UNL     1      -2.166  13.223  22.716  0.00  0.00    +0.000 A 
ATOM     14  C   UNL     1      -2.727  14.312  21.890  0.00  0.00    +0.000 A 
ATOM     15  O   UNL     1      -3.340  15.248  22.382  0.00  0.00    +0.000 OA
ATOM     16  N   UNL     1      -2.491  14.192  20.547  0.00  0.00    +0.000 N 
ATOM     17  C   UNL     1      -1.843  13.116  19.969  0.00  0.00    +0.000 A 
ATOM     18  C   UNL     1      -1.414  12.052  20.691  0.00  0.00    +0.000 A 
ATOM     19  H   UNL     1      -2.897  14.921  19.970  0.00  0.00    +0.000 HD
ENDBRANCH   7  18
ENDBRANCH   1   9
BRANCH   4  20
ATOM     20  O   UNL     1       3.261   6.353  17.344  0.00  0.00    +0.000 OA
BRANCH  20  21
ATOM     21  C   UNL     1       4.176   5.179  17.623  0.00  0.00    +0.000 A 
ATOM     22  C   UNL     1       3.996   3.874  18.687  0.00  0.00    +0.000 A 
ATOM     23  C   UNL     1       4.946   3.333  19.539  0.00  0.00    +0.000 A 
ATOM     24  N   UNL     1       5.656   4.209  18.951  0.00  0.00    +0.000 NA
ATOM     25  C   UNL     1       6.416   5.089  18.400  0.00  0.00    +0.000 A 
ATOM     26  C   UNL     1       7.655   5.402  18.899  0.00  0.00    +0.000 A 
ATOM     27  C   UNL     1       8.115   6.645  18.609  0.00  0.00    +0.000 A 
ATOM     28  C   UNL     1       7.379   7.452  17.735  0.00  0.00    +0.000 A 
ATOM     29  C   UNL     1       6.136   7.028  17.193  0.00  0.00    +0.000 A 
ATOM     30  C   UNL     1       5.557   5.795  17.611  0.00  0.00    +0.000 A 
ENDBRANCH  20  21
ENDBRANCH   4  20
TORSDOF 4
ENDMDL
MODEL 4
REMARK VINA RESULT:      -8.5      1.934      2.761
REMARK  Name = 
REMARK  5 active torsions:
REMARK  status: ('A' for Active; 'I' for Inactive)
REMARK    1  A    between atoms: C_1  and  C_2
REMARK    2  A    between atoms: C_8  and  C_9
REMARK    3  A    between atoms: N_11  and  C_12
REMARK    4  A    between atoms: C_15  and  O_16
REMARK    5  A    between atoms: O_16  and  C_17
REMARK                            x       y       z     vdW  Elec       q    Type
REMARK                         _______ _______ _______ _____ _____    ______ ____
ROOT
ATOM      1  C   UNL     1       0.942   9.306  19.870  0.00  0.00    +0.000 A 
ATOM      2  C   UNL     1       1.386   8.141  20.476  0.00  0.00    +0.000 A 
ATOM      3  C   UNL     1       2.272   7.250  19.747  0.00  0.00    +0.000 A 
ATOM      4  C   UNL     1       2.673   7.512  18.369  0.00  0.00    +0.000 A 
ATOM      5  C   UNL     1       2.068   8.603  17.792  0.00  0.00    +0.000 A 
ATOM      6  C   UNL     1       1.255   9.487  18.517  0.00  0.00    +0.000 A 
ENDROOT
BRANCH   1   9
ATOM      7  C   UNL     1       0.148  10.646  21.845  0.00  0.00    +0.000 C 
ATOM      8  O   UNL     1       0.879  10.083  22.660  0.00  0.00    +0.000 OA
ATOM      9  N   UNL     1       0.145  10.304  20.495  0.00  0.00    +0.000 N 
ATOM     10  H   UNL     1      -0.216  10.953  19.823  0.00  0.00    +0.000 HD
BRANCH   7  18
ATOM     11  C   UNL     1       0.822  13.742  21.456  0.00  0.00    +0.000 C 
ATOM     12  C   UNL     1      -0.420  13.274  22.126  0.00  0.00    +0.000 A 
ATOM     13  C   UNL     1      -1.259  14.221  22.594  0.00  0.00    +0.000 A 
ATOM     14  C   UNL     1      -2.409  13.869  23.451  0.00  0.00    +0.000 A 
ATOM     15  O   UNL     1      -3.105  14.720  23.986  0.00  0.00    +0.000 OA
ATOM     16  N   UNL     1      -2.636  12.525  23.579  0.00  0.00    +0.000 N 
ATOM     17  C   UNL     1      -1.832  11.548  23.023  0.00  0.00    +0.000 A 
ATOM     18  C   UNL     1      -0.709  11.843  22.323  0.00  0.00    +0.000 A 
ATOM     19  H   UNL     1      -3.408  12.273  24.189  0.00  0.00    +0.000 HD
ENDBRANCH   7  18
ENDBRANCH   1   9
BRANCH   4  20
ATOM     20  O   UNL     1       3.262   6.651  17.403  0.00  0.00    +0.000 OA
BRANCH  20  21
ATOM     21  C   UNL     1       4.109   5.417  17.627  0.00  0.00    +0.000 A 
ATOM     22  C   UNL     1       3.866   4.088  18.649  0.00  0.00    +0.000 A 
ATOM     23  C   UNL     1       4.794   3.462  19.466  0.00  0.00    +0.000 A 
ATOM     24  N   UNL     1       5.547   4.315  18.897  0.00  0.00    +0.000 NA
ATOM     25  C   UNL     1       6.350   5.166  18.363  0.00  0.00    +0.000 A 
ATOM     26  C   UNL     1       7.613   5.387  18.853  0.00  0.00    +0.000 A 
ATOM     27  C   UNL     1       8.143   6.609  18.598  0.00  0.00    +0.000 A 
ATOM     28  C   UNL     1       7.444   7.489  17.764  0.00  0.00    +0.000 A 
ATOM     29  C   UNL     1       6.170   7.159  17.228  0.00  0.00    +0.000 A 
ATOM     30  C   UNL     1       5.525   5.949  17.613  0.00  0.00    +0.000 A 
ENDBRANCH  20  21
ENDBRANCH   4  20
TORSDOF 4
ENDMDL
MODEL 5
REMARK VINA RESULT:      -8.4      1.878      2.998
REMARK  Name = 
REMARK  5 active torsions:
REMARK  status: ('A' for Active; 'I' for Inactive)
REMARK    1  A    between atoms: C_1  and  C_2
REMARK    2  A    between atoms: C_8  and  C_9
REMARK    3  A    between atoms: N_11  and  C_12
REMARK    4  A    between atoms: C_15  and  O_16
REMARK    5  A    between atoms: O_16  and  C_17
REMARK                            x       y       z     vdW  Elec       q    Type
REMARK                         _______ _______ _______ _____ _____    ______ ____
ROOT
ATOM      1  C   UNL     1       0.479   9.835  19.716  0.00  0.00    +0.000 A 
ATOM      2  C   UNL     1       0.962   8.780  20.474  0.00  0.00    +0.000 A 
ATOM      3  C   UNL     1       1.962   7.892  19.906  0.00  0.00    +0.000 A 
ATOM      4  C   UNL     1       2.442   8.040  18.536  0.00  0.00    +0.000 A 
ATOM      5  C   UNL     1       1.803   9.012  17.805  0.00  0.00    +0.000 A 
ATOM      6  C   UNL     1       0.876   9.899  18.374  0.00  0.00    +0.000 A 
ENDROOT
BRANCH   1   9
ATOM      7  C   UNL     1      -0.122  11.960  20.921  0.00  0.00    +0.000 C 
ATOM      8  O   UNL     1       1.031  12.217  21.269  0.00  0.00    +0.000 OA
ATOM      9  N   UNL     1      -0.432  10.825  20.174  0.00  0.00    +0.000 N 
ATOM     10  H   UNL     1      -1.291  10.793  19.661  0.00  0.00    +0.000 HD
BRANCH   7  18
ATOM     11  C   UNL     1      -2.275  11.779  23.271  0.00  0.00    +0.000 C 
ATOM     12  C   UNL     1      -2.217  12.927  22.329  0.00  0.00    +0.000 A 
ATOM     13  C   UNL     1      -3.138  13.900  22.490  0.00  0.00    +0.000 A 
ATOM     14  C   UNL     1      -3.298  14.975  21.489  0.00  0.00    +0.000 A 
ATOM     15  O   UNL     1      -4.206  15.790  21.553  0.00  0.00    +0.000 OA
ATOM     16  N   UNL     1      -2.345  14.989  20.507  0.00  0.00    +0.000 N 
ATOM     17  C   UNL     1      -1.340  14.046  20.391  0.00  0.00    +0.000 A 
ATOM     18  C   UNL     1      -1.235  12.989  21.232  0.00  0.00    +0.000 A 
ATOM     19  H   UNL     1      -2.464  15.707  19.800  0.00  0.00    +0.000 HD
ENDBRANCH   7  18
ENDBRANCH   1   9
BRANCH   4  20
ATOM     20  O   UNL     1       3.162   7.133  17.710  0.00  0.00    +0.000 OA
BRANCH  20  21
ATOM     21  C   UNL     1       4.183   6.091  18.115  0.00  0.00    +0.000 A 
ATOM     22  C   UNL     1       5.758   5.821  17.554  0.00  0.00    +0.000 A 
ATOM     23  C   UNL     1       6.353   4.610  17.238  0.00  0.00    +0.000 A 
ATOM     24  N   UNL     1       5.229   4.195  17.665  0.00  0.00    +0.000 NA
ATOM     25  C   UNL     1       4.105   3.721  18.071  0.00  0.00    +0.000 A 
ATOM     26  C   UNL     1       3.742   2.414  17.861  0.00  0.00    +0.000 A 
ATOM     27  C   UNL     1       2.409   2.166  17.826  0.00  0.00    +0.000 A 
ATOM     28  C   UNL     1       1.520   3.203  18.131  0.00  0.00    +0.000 A 
ATOM     29  C   UNL     1       1.974   4.519  18.416  0.00  0.00    +0.000 A 
ATOM     30  C   UNL     1       3.358   4.837  18.300  0.00  0.00    +0.000 A 
ENDBRANCH  20  21
ENDBRANCH   4  20
TORSDOF 4
ENDMDL
MODEL 6
REMARK VINA RESULT:      -8.3      1.872      2.576
REMARK  Name = 
REMARK  5 active torsions:
REMARK  status: ('A' for Active; 'I' for Inactive)
REMARK    1  A    between atoms: C_1  and  C_2
REMARK    2  A    between atoms: C_8  and  C_9
REMARK    3  A    between atoms: N_11  and  C_12
REMARK    4  A    between atoms: C_15  and  O_16
REMARK    5  A    between atoms: O_16  and  C_17
REMARK                            x       y       z     vdW  Elec       q    Type
REMARK                         _______ _______ _______ _____ _____    ______ ____
ROOT
ATOM      1  C   UNL     1       0.933   9.467  19.748  0.00  0.00    +0.000 A 
ATOM      2  C   UNL     1       1.349   8.305  20.379  0.00  0.00    +0.000 A 
ATOM      3  C   UNL     1       2.251   7.400  19.685  0.00  0.00    +0.000 A 
ATOM      4  C   UNL     1       2.697   7.647  18.318  0.00  0.00    +0.000 A 
ATOM      5  C   UNL     1       2.118   8.737  17.712  0.00  0.00    +0.000 A 
ATOM      6  C   UNL     1       1.289   9.633  18.404  0.00  0.00    +0.000 A 
ENDROOT
BRANCH   1   9
ATOM      7  C   UNL     1       0.571  11.610  21.013  0.00  0.00    +0.000 C 
ATOM      8  O   UNL     1       1.769  11.850  21.167  0.00  0.00    +0.000 OA
ATOM      9  N   UNL     1       0.125  10.476  20.339  0.00  0.00    +0.000 N 
ATOM     10  H   UNL     1      -0.806  10.456  19.972  0.00  0.00    +0.000 HD
BRANCH   7  18
ATOM     11  C   UNL     1      -1.648  11.206  23.272  0.00  0.00    +0.000 C 
ATOM     12  C   UNL     1      -1.471  12.492  22.549  0.00  0.00    +0.000 A 
ATOM     13  C   UNL     1      -2.311  13.498  22.871  0.00  0.00    +0.000 A 
ATOM     14  C   UNL     1      -2.356  14.742  22.076  0.00  0.00    +0.000 A 
ATOM     15  O   UNL     1      -3.195  15.608  22.274  0.00  0.00    +0.000 OA
ATOM     16  N   UNL     1      -1.380  14.846  21.121  0.00  0.00    +0.000 N 
ATOM     17  C   UNL     1      -0.456  13.855  20.850  0.00  0.00    +0.000 A 
ATOM     18  C   UNL     1      -0.460  12.661  21.490  0.00  0.00    +0.000 A 
ATOM     19  H   UNL     1      -1.421  15.685  20.552  0.00  0.00    +0.000 HD
ENDBRANCH   7  18
ENDBRANCH   1   9
BRANCH   4  20
ATOM     20  O   UNL     1       3.309   6.773  17.378  0.00  0.00    +0.000 OA
BRANCH  20  21
ATOM     21  C   UNL     1       4.142   5.536  17.640  0.00  0.00    +0.000 A 
ATOM     22  C   UNL     1       3.874   4.231  18.687  0.00  0.00    +0.000 A 
ATOM     23  C   UNL     1       4.785   3.616  19.530  0.00  0.00    +0.000 A 
ATOM     24  N   UNL     1       5.553   4.449  18.952  0.00  0.00    +0.000 NA
ATOM     25  C   UNL     1       6.371   5.281  18.411  0.00  0.00    +0.000 A 
ATOM     26  C   UNL     1       7.630   5.502  18.913  0.00  0.00    +0.000 A 
ATOM     27  C   UNL     1       8.174   6.714  18.638  0.00  0.00    +0.000 A 
ATOM     28  C   UNL     1       7.494   7.581  17.776  0.00  0.00    +0.000 A 
ATOM     29  C   UNL     1       6.224   7.251  17.231  0.00  0.00    +0.000 A 
ATOM     30  C   UNL     1       5.563   6.055  17.634  0.00  0.00    +0.000 A 
ENDBRANCH  20  21
ENDBRANCH   4  20
TORSDOF 4
ENDMDL
MODEL 7
REMARK VINA RESULT:      -8.3      1.405      2.002
REMARK  Name = 
REMARK  5 active torsions:
REMARK  status: ('A' for Active; 'I' for Inactive)
REMARK    1  A    between atoms: C_1  and  C_2
REMARK    2  A    between atoms: C_8  and  C_9
REMARK    3  A    between atoms: N_11  and  C_12
REMARK    4  A    between atoms: C_15  and  O_16
REMARK    5  A    between atoms: O_16  and  C_17
REMARK                            x       y       z     vdW  Elec       q    Type
REMARK                         _______ _______ _______ _____ _____    ______ ____
ROOT
ATOM      1  C   UNL     1       1.458   7.184  20.523  0.00  0.00    +0.000 A 
ATOM      2  C   UNL     1       1.408   5.919  21.088  0.00  0.00    +0.000 A 
ATOM      3  C   UNL     1       2.403   4.929  20.710  0.00  0.00    +0.000 A 
ATOM      4  C   UNL     1       3.430   5.204  19.711  0.00  0.00    +0.000 A 
ATOM      5  C   UNL     1       3.315   6.424  19.089  0.00  0.00    +0.000 A 
ATOM      6  C   UNL     1       2.385   7.394  19.494  0.00  0.00    +0.000 A 
ENDROOT
BRANCH   1   9
ATOM      7  C   UNL     1       0.838   9.237  21.837  0.00  0.00    +0.000 C 
ATOM      8  O   UNL     1       1.858   9.237  22.526  0.00  0.00    +0.000 OA
ATOM      9  N   UNL     1       0.605   8.269  20.863  0.00  0.00    +0.000 N 
ATOM     10  H   UNL     1      -0.056   8.453  20.134  0.00  0.00    +0.000 HD
BRANCH   7  18
ATOM     11  C   UNL     1       0.554  11.747  19.885  0.00  0.00    +0.000 C 
ATOM     12  C   UNL     1      -0.312  11.563  21.078  0.00  0.00    +0.000 A 
ATOM     13  C   UNL     1      -1.228  12.523  21.326  0.00  0.00    +0.000 A 
ATOM     14  C   UNL     1      -1.993  12.542  22.589  0.00  0.00    +0.000 A 
ATOM     15  O   UNL     1      -2.732  13.469  22.886  0.00  0.00    +0.000 OA
ATOM     16  N   UNL     1      -1.820  11.438  23.381  0.00  0.00    +0.000 N 
ATOM     17  C   UNL     1      -0.951  10.404  23.085  0.00  0.00    +0.000 A 
ATOM     18  C   UNL     1      -0.157  10.413  21.987  0.00  0.00    +0.000 A 
ATOM     19  H   UNL     1      -2.320  11.456  24.263  0.00  0.00    +0.000 HD
ENDBRANCH   7  18
ENDBRANCH   1   9
BRANCH   4  20
ATOM     20  O   UNL     1       4.279   4.315  18.996  0.00  0.00    +0.000 OA
BRANCH  20  21
ATOM     21  C   UNL     1       5.766   4.430  18.736  0.00  0.00    +0.000 A 
ATOM     22  C   UNL     1       6.921   5.470  19.409  0.00  0.00    +0.000 A 
ATOM     23  C   UNL     1       7.923   6.167  18.752  0.00  0.00    +0.000 A 
ATOM     24  N   UNL     1       7.438   5.514  17.776  0.00  0.00    +0.000 NA
ATOM     25  C   UNL     1       6.978   4.890  16.749  0.00  0.00    +0.000 A 
ATOM     26  C   UNL     1       7.336   5.224  15.467  0.00  0.00    +0.000 A 
ATOM     27  C   UNL     1       6.440   4.911  14.499  0.00  0.00    +0.000 A 
ATOM     28  C   UNL     1       5.304   4.170  14.843  0.00  0.00    +0.000 A 
ATOM     29  C   UNL     1       5.036   3.791  16.186  0.00  0.00    +0.000 A 
ATOM     30  C   UNL     1       5.880   4.248  17.239  0.00  0.00    +0.000 A 
ENDBRANCH  20  21
ENDBRANCH   4  20
TORSDOF 4
ENDMDL
MODEL 8
REMARK VINA RESULT:      -8.3      1.990      2.814
REMARK  Name = 
REMARK  5 active torsions:
REMARK  status: ('A' for Active; 'I' for Inactive)
REMARK    1  A    between atoms: C_1  and  C_2
REMARK    2  A    between atoms: C_8  and  C_9
REMARK    3  A    between atoms: N_11  and  C_12
REMARK    4  A    between atoms: C_15  and  O_16
REMARK    5  A    between atoms: O_16  and  C_17
REMARK                            x       y       z     vdW  Elec       q    Type
REMARK                         _______ _______ _______ _____ _____    ______ ____
ROOT
ATOM      1  C   UNL     1       0.439   9.651  20.527  0.00  0.00    +0.000 A 
ATOM      2  C   UNL     1       1.098   9.763  19.313  0.00  0.00    +0.000 A 
ATOM      3  C   UNL     1       1.879   8.641  18.819  0.00  0.00    +0.000 A 
ATOM      4  C   UNL     1       2.037   7.409  19.584  0.00  0.00    +0.000 A 
ATOM      5  C   UNL     1       1.481   7.438  20.841  0.00  0.00    +0.000 A 
ATOM      6  C   UNL     1       0.687   8.503  21.291  0.00  0.00    +0.000 A 
ENDROOT
BRANCH   1   9
ATOM      7  C   UNL     1      -0.578  10.933  22.437  0.00  0.00    +0.000 C 
ATOM      8  O   UNL     1       0.054  10.342  23.313  0.00  0.00    +0.000 OA
ATOM      9  N   UNL     1      -0.424  10.633  21.086  0.00  0.00    +0.000 N 
ATOM     10  H   UNL     1      -0.704  11.303  20.397  0.00  0.00    +0.000 HD
BRANCH   7  18
ATOM     11  C   UNL     1       0.106  14.038  22.148  0.00  0.00    +0.000 C 
ATOM     12  C   UNL     1      -1.187  13.554  22.697  0.00  0.00    +0.000 A 
ATOM     13  C   UNL     1      -2.072  14.490  23.098  0.00  0.00    +0.000 A 
ATOM     14  C   UNL     1      -3.293  14.119  23.843  0.00  0.00    +0.000 A 
ATOM     15  O   UNL     1      -4.040  14.959  24.323  0.00  0.00    +0.000 OA
ATOM     16  N   UNL     1      -3.521  12.773  23.934  0.00  0.00    +0.000 N 
ATOM     17  C   UNL     1      -2.662  11.808  23.442  0.00  0.00    +0.000 A 
ATOM     18  C   UNL     1      -1.483  12.118  22.850  0.00  0.00    +0.000 A 
ATOM     19  H   UNL     1      -4.342  12.509  24.469  0.00  0.00    +0.000 HD
ENDBRANCH   7  18
ENDBRANCH   1   9
BRANCH   4  20
ATOM     20  O   UNL     1       2.970   6.347  19.434  0.00  0.00    +0.000 OA
BRANCH  20  21
ATOM     21  C   UNL     1       2.854   5.098  18.586  0.00  0.00    +0.000 A 
ATOM     22  C   UNL     1       2.727   3.470  19.039  0.00  0.00    +0.000 A 
ATOM     23  C   UNL     1       3.393   2.382  18.497  0.00  0.00    +0.000 A 
ATOM     24  N   UNL     1       3.815   3.301  17.726  0.00  0.00    +0.000 NA
ATOM     25  C   UNL     1       4.286   4.192  16.926  0.00  0.00    +0.000 A 
ATOM     26  C   UNL     1       5.341   3.938  16.087  0.00  0.00    +0.000 A 
ATOM     27  C   UNL     1       6.078   5.015  15.717  0.00  0.00    +0.000 A 
ATOM     28  C   UNL     1       5.647   6.291  16.095  0.00  0.00    +0.000 A 
ATOM     29  C   UNL     1       4.495   6.483  16.904  0.00  0.00    +0.000 A 
ATOM     30  C   UNL     1       3.801   5.359  17.437  0.00  0.00    +0.000 A 
ENDBRANCH  20  21
ENDBRANCH   4  20
TORSDOF 4
ENDMDL
MODEL 9
REMARK VINA RESULT:      -8.3      2.829      9.648
REMARK  Name = 
REMARK  5 active torsions:
REMARK  status: ('A' for Active; 'I' for Inactive)
REMARK    1  A    between atoms: C_1  and  C_2
REMARK    2  A    between atoms: C_8  and  C_9
REMARK    3  A    between atoms: N_11  and  C_12
REMARK    4  A    between atoms: C_15  and  O_16
REMARK    5  A    between atoms: O_16  and  C_17
REMARK                            x       y       z     vdW  Elec       q    Type
REMARK                         _______ _______ _______ _____ _____    ______ ____
ROOT
ATOM      1  C   UNL     1       1.664   7.775  20.261  0.00  0.00    +0.000 A 
ATOM      2  C   UNL     1       0.976   8.485  21.232  0.00  0.00    +0.000 A 
ATOM      3  C   UNL     1       0.370   9.760  20.888  0.00  0.00    +0.000 A 
ATOM      4  C   UNL     1       0.503  10.350  19.561  0.00  0.00    +0.000 A 
ATOM      5  C   UNL     1       1.328   9.659  18.705  0.00  0.00    +0.000 A 
ATOM      6  C   UNL     1       1.868   8.404  19.026  0.00  0.00    +0.000 A 
ENDROOT
BRANCH   1   9
ATOM      7  C   UNL     1       2.423   5.519  19.449  0.00  0.00    +0.000 C 
ATOM      8  O   UNL     1       2.102   5.711  18.276  0.00  0.00    +0.000 OA
ATOM      9  N   UNL     1       2.230   6.483  20.435  0.00  0.00    +0.000 N 
ATOM     10  H   UNL     1       2.755   6.429  21.286  0.00  0.00    +0.000 HD
BRANCH   7  18
ATOM     11  C   UNL     1       1.393   3.234  21.427  0.00  0.00    +0.000 C 
ATOM     12  C   UNL     1       2.685   3.136  20.698  0.00  0.00    +0.000 A 
ATOM     13  C   UNL     1       3.433   2.035  20.922  0.00  0.00    +0.000 A 
ATOM     14  C   UNL     1       4.816   1.934  20.413  0.00  0.00    +0.000 A 
ATOM     15  O   UNL     1       5.550   1.004  20.711  0.00  0.00    +0.000 OA
ATOM     16  N   UNL     1       5.193   2.950  19.576  0.00  0.00    +0.000 N 
ATOM     17  C   UNL     1       4.394   4.035  19.268  0.00  0.00    +0.000 A 
ATOM     18  C   UNL     1       3.163   4.207  19.807  0.00  0.00    +0.000 A 
ATOM     19  H   UNL     1       6.151   2.903  19.244  0.00  0.00    +0.000 HD
ENDBRANCH   7  18
ENDBRANCH   1   9
BRANCH   4  20
ATOM     20  O   UNL     1       0.261  11.679  19.116  0.00  0.00    +0.000 OA
BRANCH  20  21
ATOM     21  C   UNL     1      -1.008  12.497  19.228  0.00  0.00    +0.000 A 
ATOM     22  C   UNL     1      -1.711  13.258  20.569  0.00  0.00    +0.000 A 
ATOM     23  C   UNL     1      -3.046  13.264  20.940  0.00  0.00    +0.000 A 
ATOM     24  N   UNL     1      -3.128  12.623  19.846  0.00  0.00    +0.000 NA
ATOM     25  C   UNL     1      -3.269  11.957  18.754  0.00  0.00    +0.000 A 
ATOM     26  C   UNL     1      -4.433  11.301  18.441  0.00  0.00    +0.000 A 
ATOM     27  C   UNL     1      -4.311  10.240  17.605  0.00  0.00    +0.000 A 
ATOM     28  C   UNL     1      -3.064   9.973  17.028  0.00  0.00    +0.000 A 
ATOM     29  C   UNL     1      -1.914  10.746  17.342  0.00  0.00    +0.000 A 
ATOM     30  C   UNL     1      -1.986  11.762  18.339  0.00  0.00    +0.000 A 
ENDBRANCH  20  21
ENDBRANCH   4  20
TORSDOF 4
ENDMDL
