MODEL 1
REMARK VINA RESULT:      -8.9      0.000      0.000
REMARK  Name = 
REMARK  3 active torsions:
REMARK  status: ('A' for Active; 'I' for Inactive)
REMARK    1  A    between atoms: C_2  and  C_3
REMARK    2  A    between atoms: C_16  and  O_17
REMARK    3  A    between atoms: O_17  and  C_18
REMARK                            x       y       z     vdW  Elec       q    Type
REMARK                         _______ _______ _______ _____ _____    ______ ____
ROOT
ATOM      1  O   UNL     1       3.817   1.646  17.588  0.00  0.00    +0.000 OA
ATOM      2  C   UNL     1       3.861   2.811  17.969  0.00  0.00    +0.000 C 
ATOM      3  N   UNL     1       3.153   3.271  19.092  0.00  0.00    +0.000 N 
ATOM      4  C   UNL     1       2.238   2.381  19.794  0.00  0.00    +0.000 C 
ATOM      5  C   UNL     1       0.861   3.035  19.920  0.00  0.00    +0.000 C 
ATOM      6  C   UNL     1       0.948   4.433  20.545  0.00  0.00    +0.000 C 
ATOM      7  C   UNL     1       1.957   5.329  19.804  0.00  0.00    +0.000 C 
ATOM      8  C   UNL     1       3.298   4.583  19.731  0.00  0.00    +0.000 C 
ENDROOT
BRANCH   2   9
ATOM      9  C   UNL     1       4.742   3.765  17.219  0.00  0.00    +0.000 A 
ATOM     10  C   UNL     1       5.148   3.429  15.921  0.00  0.00    +0.000 A 
ATOM     11  C   UNL     1       6.114   4.208  15.276  0.00  0.00    +0.000 A 
ATOM     12  C   UNL     1       6.626   5.250  16.044  0.00  0.00    +0.000 A 
ATOM     13  N   UNL     1       7.602   6.188  15.875  0.00  0.00    +0.000 N 
ATOM     14  N   UNL     1       7.766   6.951  16.969  0.00  0.00    +0.000 NA
ATOM     15  N   UNL     1       6.858   6.566  17.860  0.00  0.00    +0.000 NA
ATOM     16  C   UNL     1       6.143   5.544  17.309  0.00  0.00    +0.000 A 
ATOM     17  N   UNL     1       5.144   4.864  17.895  0.00  0.00    +0.000 NA
ATOM     18  H   UNL     1       8.199   6.356  15.077  0.00  0.00    +0.000 HD
ENDBRANCH   2   9
BRANCH   7  19
ATOM     19  O   UNL     1       2.222   6.544  20.521  0.00  0.00    +0.000 OA
BRANCH  19  20
ATOM     20  C   UNL     1       1.972   7.704  19.820  0.00  0.00    +0.000 A 
ATOM     21  N   UNL     1       2.403   7.802  18.542  0.00  0.00    +0.000 NA
ATOM     22  C   UNL     1       2.005   8.894  17.851  0.00  0.00    +0.000 A 
ATOM     23  C   UNL     1       1.190   9.890  18.374  0.00  0.00    +0.000 A 
ATOM     24  C   UNL     1       0.776   9.775  19.697  0.00  0.00    +0.000 A 
ATOM     25  C   UNL     1       1.172   8.664  20.431  0.00  0.00    +0.000 A 
ATOM     26  F   UNL     1       0.768   8.535  21.702  0.00  0.00    +0.000 F 
ENDBRANCH  19  20
ENDBRANCH   7  19
TORSDOF 3
ENDMDL
MODEL 2
REMARK VINA RESULT:      -8.8      1.131      1.371
REMARK  Name = 
REMARK  3 active torsions:
REMARK  status: ('A' for Active; 'I' for Inactive)
REMARK    1  A    between atoms: C_2  and  C_3
REMARK    2  A    between atoms: C_16  and  O_17
REMARK    3  A    between atoms: O_17  and  C_18
REMARK                            x       y       z     vdW  Elec       q    Type
REMARK                         _______ _______ _______ _____ _____    ______ ____
ROOT
ATOM      1  O   UNL     1       3.746   1.655  17.821  0.00  0.00    +0.000 OA
ATOM      2  C   UNL     1       3.836   2.847  18.097  0.00  0.00    +0.000 C 
ATOM      3  N   UNL     1       3.177   3.425  19.194  0.00  0.00    +0.000 N 
ATOM      4  C   UNL     1       2.259   2.630  19.998  0.00  0.00    +0.000 C 
ATOM      5  C   UNL     1       0.907   3.336  20.105  0.00  0.00    +0.000 C 
ATOM      6  C   UNL     1       1.054   4.780  20.601  0.00  0.00    +0.000 C 
ATOM      7  C   UNL     1       2.065   5.575  19.756  0.00  0.00    +0.000 C 
ATOM      8  C   UNL     1       3.381   4.783  19.711  0.00  0.00    +0.000 C 
ENDROOT
BRANCH   2   9
ATOM      9  C   UNL     1       4.720   3.702  17.240  0.00  0.00    +0.000 A 
ATOM     10  C   UNL     1       5.123   3.216  15.990  0.00  0.00    +0.000 A 
ATOM     11  C   UNL     1       6.092   3.910  15.258  0.00  0.00    +0.000 A 
ATOM     12  C   UNL     1       6.610   5.031  15.900  0.00  0.00    +0.000 A 
ATOM     13  N   UNL     1       7.591   5.938  15.622  0.00  0.00    +0.000 N 
ATOM     14  N   UNL     1       7.761   6.822  16.621  0.00  0.00    +0.000 NA
ATOM     15  N   UNL     1       6.852   6.548  17.551  0.00  0.00    +0.000 NA
ATOM     16  C   UNL     1       6.131   5.473  17.122  0.00  0.00    +0.000 A 
ATOM     17  N   UNL     1       5.129   4.870  17.785  0.00  0.00    +0.000 NA
ATOM     18  H   UNL     1       8.187   6.009  14.810  0.00  0.00    +0.000 HD
ENDBRANCH   2   9
BRANCH   7  19
ATOM     19  O   UNL     1       2.388   6.838  20.355  0.00  0.00    +0.000 OA
BRANCH  19  20
ATOM     20  C   UNL     1       1.836   7.938  19.736  0.00  0.00    +0.000 A 
ATOM     21  N   UNL     1       0.997   8.732  20.439  0.00  0.00    +0.000 NA
ATOM     22  C   UNL     1       0.601   9.877  19.838  0.00  0.00    +0.000 A 
ATOM     23  C   UNL     1       1.008  10.270  18.570  0.00  0.00    +0.000 A 
ATOM     24  C   UNL     1       1.857   9.427  17.860  0.00  0.00    +0.000 A 
ATOM     25  C   UNL     1       2.277   8.244  18.452  0.00  0.00    +0.000 A 
ATOM     26  F   UNL     1       3.106   7.430  17.783  0.00  0.00    +0.000 F 
ENDBRANCH  19  20
ENDBRANCH   7  19
TORSDOF 3
ENDMDL
MODEL 3
REMARK VINA RESULT:      -8.6      1.008      1.498
REMARK  Name = 
REMARK  3 active torsions:
REMARK  status: ('A' for Active; 'I' for Inactive)
REMARK    1  A    between atoms: C_2  and  C_3
REMARK    2  A    between atoms: C_16  and  O_17
REMARK    3  A    between atoms: O_17  and  C_18
REMARK                            x       y       z     vdW  Elec       q    Type
REMARK                         _______ _______ _______ _____ _____    ______ ____
ROOT
ATOM      1  O   UNL     1       3.794   1.565  18.373  0.00  0.00    +0.000 OA
ATOM      2  C   UNL     1       3.935   2.761  18.611  0.00  0.00    +0.000 C 
ATOM      3  N   UNL     1       3.139   3.449  19.542  0.00  0.00    +0.000 N 
ATOM      4  C   UNL     1       2.024   2.774  20.193  0.00  0.00    +0.000 C 
ATOM      5  C   UNL     1       0.741   3.587  20.016  0.00  0.00    +0.000 C 
ATOM      6  C   UNL     1       0.919   5.041  20.471  0.00  0.00    +0.000 C 
ATOM      7  C   UNL     1       2.132   5.707  19.798  0.00  0.00    +0.000 C 
ATOM      8  C   UNL     1       3.361   4.814  20.032  0.00  0.00    +0.000 C 
ENDROOT
BRANCH   2   9
ATOM      9  C   UNL     1       5.031   3.496  17.900  0.00  0.00    +0.000 A 
ATOM     10  C   UNL     1       5.922   4.270  18.654  0.00  0.00    +0.000 A 
ATOM     11  C   UNL     1       6.832   5.108  18.001  0.00  0.00    +0.000 A 
ATOM     12  C   UNL     1       6.715   5.121  16.614  0.00  0.00    +0.000 A 
ATOM     13  N   UNL     1       7.308   5.814  15.599  0.00  0.00    +0.000 N 
ATOM     14  N   UNL     1       6.786   5.503  14.400  0.00  0.00    +0.000 NA
ATOM     15  N   UNL     1       5.877   4.553  14.598  0.00  0.00    +0.000 NA
ATOM     16  C   UNL     1       5.833   4.295  15.937  0.00  0.00    +0.000 A 
ATOM     17  N   UNL     1       5.027   3.413  16.551  0.00  0.00    +0.000 NA
ATOM     18  H   UNL     1       8.039   6.511  15.639  0.00  0.00    +0.000 HD
ENDBRANCH   2   9
BRANCH   7  19
ATOM     19  O   UNL     1       2.449   6.973  20.393  0.00  0.00    +0.000 OA
BRANCH  19  20
ATOM     20  C   UNL     1       1.904   8.070  19.762  0.00  0.00    +0.000 A 
ATOM     21  N   UNL     1       2.174   8.272  18.452  0.00  0.00    +0.000 NA
ATOM     22  C   UNL     1       1.499   9.272  17.843  0.00  0.00    +0.000 A 
ATOM     23  C   UNL     1       0.562  10.077  18.477  0.00  0.00    +0.000 A 
ATOM     24  C   UNL     1       0.316   9.861  19.829  0.00  0.00    +0.000 A 
ATOM     25  C   UNL     1       0.997   8.841  20.481  0.00  0.00    +0.000 A 
ATOM     26  F   UNL     1       0.758   8.615  21.780  0.00  0.00    +0.000 F 
ENDBRANCH  19  20
ENDBRANCH   7  19
TORSDOF 3
ENDMDL
MODEL 4
REMARK VINA RESULT:      -8.6      1.472      2.014
REMARK  Name = 
REMARK  3 active torsions:
REMARK  status: ('A' for Active; 'I' for Inactive)
REMARK    1  A    between atoms: C_2  and  C_3
REMARK    2  A    between atoms: C_16  and  O_17
REMARK    3  A    between atoms: O_17  and  C_18
REMARK                            x       y       z     vdW  Elec       q    Type
REMARK                         _______ _______ _______ _____ _____    ______ ____
ROOT
ATOM      1  O   UNL     1       3.969   1.613  18.507  0.00  0.00    +0.000 OA
ATOM      2  C   UNL     1       4.075   2.818  18.709  0.00  0.00    +0.000 C 
ATOM      3  N   UNL     1       3.253   3.513  19.611  0.00  0.00    +0.000 N 
ATOM      4  C   UNL     1       2.152   2.828  20.274  0.00  0.00    +0.000 C 
ATOM      5  C   UNL     1       0.848   3.599  20.062  0.00  0.00    +0.000 C 
ATOM      6  C   UNL     1       0.982   5.071  20.473  0.00  0.00    +0.000 C 
ATOM      7  C   UNL     1       2.183   5.749  19.788  0.00  0.00    +0.000 C 
ATOM      8  C   UNL     1       3.434   4.898  20.059  0.00  0.00    +0.000 C 
ENDROOT
BRANCH   2   9
ATOM      9  C   UNL     1       5.157   3.561  17.983  0.00  0.00    +0.000 A 
ATOM     10  C   UNL     1       6.018   4.385  18.718  0.00  0.00    +0.000 A 
ATOM     11  C   UNL     1       6.910   5.227  18.045  0.00  0.00    +0.000 A 
ATOM     12  C   UNL     1       6.806   5.190  16.658  0.00  0.00    +0.000 A 
ATOM     13  N   UNL     1       7.390   5.866  15.626  0.00  0.00    +0.000 N 
ATOM     14  N   UNL     1       6.887   5.501  14.434  0.00  0.00    +0.000 NA
ATOM     15  N   UNL     1       6.005   4.532  14.655  0.00  0.00    +0.000 NA
ATOM     16  C   UNL     1       5.955   4.318  16.001  0.00  0.00    +0.000 A 
ATOM     17  N   UNL     1       5.169   3.433  16.638  0.00  0.00    +0.000 NA
ATOM     18  H   UNL     1       8.099   6.585  15.649  0.00  0.00    +0.000 HD
ENDBRANCH   2   9
BRANCH   7  19
ATOM     19  O   UNL     1       2.459   7.041  20.346  0.00  0.00    +0.000 OA
BRANCH  19  20
ATOM     20  C   UNL     1       1.815   8.094  19.732  0.00  0.00    +0.000 A 
ATOM     21  N   UNL     1       1.002   8.883  20.471  0.00  0.00    +0.000 NA
ATOM     22  C   UNL     1       0.513   9.986  19.862  0.00  0.00    +0.000 A 
ATOM     23  C   UNL     1       0.804  10.344  18.552  0.00  0.00    +0.000 A 
ATOM     24  C   UNL     1       1.629   9.507  17.808  0.00  0.00    +0.000 A 
ATOM     25  C   UNL     1       2.142   8.365  18.408  0.00  0.00    +0.000 A 
ATOM     26  F   UNL     1       2.949   7.557  17.706  0.00  0.00    +0.000 F 
ENDBRANCH  19  20
ENDBRANCH   7  19
TORSDOF 3
ENDMDL
MODEL 5
REMARK VINA RESULT:      -8.2      1.709      2.460
REMARK  Name = 
REMARK  3 active torsions:
REMARK  status: ('A' for Active; 'I' for Inactive)
REMARK    1  A    between atoms: C_2  and  C_3
REMARK    2  A    between atoms: C_16  and  O_17
REMARK    3  A    between atoms: O_17  and  C_18
REMARK                            x       y       z     vdW  Elec       q    Type
REMARK                         _______ _______ _______ _____ _____    ______ ____
ROOT
ATOM      1  O   UNL     1       6.016   3.406  16.416  0.00  0.00    +0.000 OA
ATOM      2  C   UNL     1       5.681   4.244  17.247  0.00  0.00    +0.000 C 
ATOM      3  N   UNL     1       4.413   4.250  17.851  0.00  0.00    +0.000 N 
ATOM      4  C   UNL     1       3.393   3.302  17.423  0.00  0.00    +0.000 C 
ATOM      5  C   UNL     1       2.106   4.043  17.058  0.00  0.00    +0.000 C 
ATOM      6  C   UNL     1       1.639   4.967  18.190  0.00  0.00    +0.000 C 
ATOM      7  C   UNL     1       2.756   5.922  18.647  0.00  0.00    +0.000 C 
ATOM      8  C   UNL     1       3.997   5.082  18.986  0.00  0.00    +0.000 C 
ENDROOT
BRANCH   2   9
ATOM      9  C   UNL     1       6.690   5.275  17.653  0.00  0.00    +0.000 A 
ATOM     10  C   UNL     1       7.522   5.010  18.748  0.00  0.00    +0.000 A 
ATOM     11  C   UNL     1       8.338   6.025  19.258  0.00  0.00    +0.000 A 
ATOM     12  C   UNL     1       8.192   7.257  18.627  0.00  0.00    +0.000 A 
ATOM     13  N   UNL     1       8.699   8.509  18.821  0.00  0.00    +0.000 N 
ATOM     14  N   UNL     1       8.182   9.403  17.959  0.00  0.00    +0.000 NA
ATOM     15  N   UNL     1       7.369   8.741  17.142  0.00  0.00    +0.000 NA
ATOM     16  C   UNL     1       7.376   7.432  17.522  0.00  0.00    +0.000 A 
ATOM     17  N   UNL     1       6.667   6.437  16.962  0.00  0.00    +0.000 NA
ATOM     18  H   UNL     1       9.363   8.833  19.510  0.00  0.00    +0.000 HD
ENDBRANCH   2   9
BRANCH   7  19
ATOM     19  O   UNL     1       2.409   6.614  19.855  0.00  0.00    +0.000 OA
BRANCH  19  20
ATOM     20  C   UNL     1       1.941   7.899  19.681  0.00  0.00    +0.000 A 
ATOM     21  N   UNL     1       2.032   8.468  18.458  0.00  0.00    +0.000 NA
ATOM     22  C   UNL     1       1.426   9.666  18.302  0.00  0.00    +0.000 A 
ATOM     23  C   UNL     1       0.728  10.321  19.308  0.00  0.00    +0.000 A 
ATOM     24  C   UNL     1       0.664   9.723  20.562  0.00  0.00    +0.000 A 
ATOM     25  C   UNL     1       1.280   8.492  20.751  0.00  0.00    +0.000 A 
ATOM     26  F   UNL     1       1.215   7.900  21.952  0.00  0.00    +0.000 F 
ENDBRANCH  19  20
ENDBRANCH   7  19
TORSDOF 3
ENDMDL
MODEL 6
REMARK VINA RESULT:      -8.1      1.732      2.331
REMARK  Name = 
REMARK  3 active torsions:
REMARK  status: ('A' for Active; 'I' for Inactive)
REMARK    1  A    between atoms: C_2  and  C_3
REMARK    2  A    between atoms: C_16  and  O_17
REMARK    3  A    between atoms: O_17  and  C_18
REMARK                            x       y       z     vdW  Elec       q    Type
REMARK                         _______ _______ _______ _____ _____    ______ ____
ROOT
ATOM      1  O   UNL     1       4.307   2.190  19.580  0.00  0.00    +0.000 OA
ATOM      2  C   UNL     1       4.325   3.390  19.322  0.00  0.00    +0.000 C 
ATOM      3  N   UNL     1       3.475   4.315  19.951  0.00  0.00    +0.000 N 
ATOM      4  C   UNL     1       2.448   3.855  20.875  0.00  0.00    +0.000 C 
ATOM      5  C   UNL     1       1.084   4.412  20.464  0.00  0.00    +0.000 C 
ATOM      6  C   UNL     1       1.115   5.937  20.302  0.00  0.00    +0.000 C 
ATOM      7  C   UNL     1       2.242   6.389  19.355  0.00  0.00    +0.000 C 
ATOM      8  C   UNL     1       3.561   5.776  19.852  0.00  0.00    +0.000 C 
ENDROOT
BRANCH   2   9
ATOM      9  C   UNL     1       5.327   3.879  18.320  0.00  0.00    +0.000 A 
ATOM     10  C   UNL     1       6.478   4.531  18.781  0.00  0.00    +0.000 A 
ATOM     11  C   UNL     1       7.331   5.158  17.866  0.00  0.00    +0.000 A 
ATOM     12  C   UNL     1       6.899   5.106  16.544  0.00  0.00    +0.000 A 
ATOM     13  N   UNL     1       7.342   5.623  15.360  0.00  0.00    +0.000 N 
ATOM     14  N   UNL     1       6.514   5.334  14.341  0.00  0.00    +0.000 NA
ATOM     15  N   UNL     1       5.540   4.570  14.826  0.00  0.00    +0.000 NA
ATOM     16  C   UNL     1       5.767   4.406  16.160  0.00  0.00    +0.000 A 
ATOM     17  N   UNL     1       4.999   3.715  17.019  0.00  0.00    +0.000 NA
ATOM     18  H   UNL     1       8.160   6.183  15.172  0.00  0.00    +0.000 HD
ENDBRANCH   2   9
BRANCH   7  19
ATOM     19  O   UNL     1       2.433   7.810  19.388  0.00  0.00    +0.000 OA
BRANCH  19  20
ATOM     20  C   UNL     1       1.479   8.513  20.091  0.00  0.00    +0.000 A 
ATOM     21  N   UNL     1       1.494   8.466  21.442  0.00  0.00    +0.000 NA
ATOM     22  C   UNL     1       0.636   9.288  22.087  0.00  0.00    +0.000 A 
ATOM     23  C   UNL     1      -0.233  10.161  21.446  0.00  0.00    +0.000 A 
ATOM     24  C   UNL     1      -0.243  10.178  20.055  0.00  0.00    +0.000 A 
ATOM     25  C   UNL     1       0.627   9.341  19.367  0.00  0.00    +0.000 A 
ATOM     26  F   UNL     1       0.636   9.358  18.027  0.00  0.00    +0.000 F 
ENDBRANCH  19  20
ENDBRANCH   7  19
TORSDOF 3
ENDMDL
MODEL 7
REMARK VINA RESULT:      -7.9      1.731      2.206
REMARK  Name = 
REMARK  3 active torsions:
REMARK  status: ('A' for Active; 'I' for Inactive)
REMARK    1  A    between atoms: C_2  and  C_3
REMARK    2  A    between atoms: C_16  and  O_17
REMARK    3  A    between atoms: O_17  and  C_18
REMARK                            x       y       z     vdW  Elec       q    Type
REMARK                         _______ _______ _______ _____ _____    ______ ____
ROOT
ATOM      1  O   UNL     1       3.706   1.758  17.713  0.00  0.00    +0.000 OA
ATOM      2  C   UNL     1       3.826   2.952  17.969  0.00  0.00    +0.000 C 
ATOM      3  N   UNL     1       3.212   3.557  19.078  0.00  0.00    +0.000 N 
ATOM      4  C   UNL     1       2.305   2.789  19.922  0.00  0.00    +0.000 C 
ATOM      5  C   UNL     1       0.969   3.521  20.060  0.00  0.00    +0.000 C 
ATOM      6  C   UNL     1       1.157   4.969  20.531  0.00  0.00    +0.000 C 
ATOM      7  C   UNL     1       2.155   5.734  19.644  0.00  0.00    +0.000 C 
ATOM      8  C   UNL     1       3.455   4.918  19.569  0.00  0.00    +0.000 C 
ENDROOT
BRANCH   2   9
ATOM      9  C   UNL     1       4.698   3.781  17.073  0.00  0.00    +0.000 A 
ATOM     10  C   UNL     1       4.703   5.172  17.237  0.00  0.00    +0.000 A 
ATOM     11  C   UNL     1       5.360   5.975  16.299  0.00  0.00    +0.000 A 
ATOM     12  C   UNL     1       5.919   5.279  15.231  0.00  0.00    +0.000 A 
ATOM     13  N   UNL     1       6.563   5.627  14.079  0.00  0.00    +0.000 N 
ATOM     14  N   UNL     1       6.856   4.558  13.320  0.00  0.00    +0.000 NA
ATOM     15  N   UNL     1       6.463   3.478  13.987  0.00  0.00    +0.000 NA
ATOM     16  C   UNL     1       5.906   3.895  15.159  0.00  0.00    +0.000 A 
ATOM     17  N   UNL     1       5.367   3.112  16.108  0.00  0.00    +0.000 NA
ATOM     18  H   UNL     1       6.814   6.544  13.737  0.00  0.00    +0.000 HD
ENDBRANCH   2   9
BRANCH   7  19
ATOM     19  O   UNL     1       2.519   6.999  20.214  0.00  0.00    +0.000 OA
BRANCH  19  20
ATOM     20  C   UNL     1       1.794   8.078  19.756  0.00  0.00    +0.000 A 
ATOM     21  N   UNL     1       0.886   8.653  20.578  0.00  0.00    +0.000 NA
ATOM     22  C   UNL     1       0.311   9.795  20.140  0.00  0.00    +0.000 A 
ATOM     23  C   UNL     1       0.604  10.396  18.923  0.00  0.00    +0.000 A 
ATOM     24  C   UNL     1       1.528   9.775  18.087  0.00  0.00    +0.000 A 
ATOM     25  C   UNL     1       2.132   8.599  18.512  0.00  0.00    +0.000 A 
ATOM     26  F   UNL     1       3.034   7.999  17.722  0.00  0.00    +0.000 F 
ENDBRANCH  19  20
ENDBRANCH   7  19
TORSDOF 3
ENDMDL
MODEL 8
REMARK VINA RESULT:      -7.9      1.095      1.332
REMARK  Name = 
REMARK  3 active torsions:
REMARK  status: ('A' for Active; 'I' for Inactive)
REMARK    1  A    between atoms: C_2  and  C_3
REMARK    2  A    between atoms: C_16  and  O_17
REMARK    3  A    between atoms: O_17  and  C_18
REMARK                            x       y       z     vdW  Elec       q    Type
REMARK                         _______ _______ _______ _____ _____    ______ ____
ROOT
ATOM      1  O   UNL     1       3.927   1.993  17.856  0.00  0.00    +0.000 OA
ATOM      2  C   UNL     1       3.889   3.158  18.240  0.00  0.00    +0.000 C 
ATOM      3  N   UNL     1       3.179   3.559  19.384  0.00  0.00    +0.000 N 
ATOM      4  C   UNL     1       2.358   2.599  20.109  0.00  0.00    +0.000 C 
ATOM      5  C   UNL     1       0.938   3.142  20.275  0.00  0.00    +0.000 C 
ATOM      6  C   UNL     1       0.932   4.542  20.902  0.00  0.00    +0.000 C 
ATOM      7  C   UNL     1       1.846   5.516  20.137  0.00  0.00    +0.000 C 
ATOM      8  C   UNL     1       3.239   4.877  20.024  0.00  0.00    +0.000 C 
ENDROOT
BRANCH   2   9
ATOM      9  C   UNL     1       4.671   4.179  17.468  0.00  0.00    +0.000 A 
ATOM     10  C   UNL     1       4.062   5.402  17.161  0.00  0.00    +0.000 A 
ATOM     11  C   UNL     1       4.699   6.290  16.288  0.00  0.00    +0.000 A 
ATOM     12  C   UNL     1       5.897   5.822  15.757  0.00  0.00    +0.000 A 
ATOM     13  N   UNL     1       6.795   6.284  14.839  0.00  0.00    +0.000 N 
ATOM     14  N   UNL     1       7.786   5.404  14.614  0.00  0.00    +0.000 NA
ATOM     15  N   UNL     1       7.590   4.370  15.426  0.00  0.00    +0.000 NA
ATOM     16  C   UNL     1       6.456   4.614  16.141  0.00  0.00    +0.000 A 
ATOM     17  N   UNL     1       5.901   3.801  17.056  0.00  0.00    +0.000 NA
ATOM     18  H   UNL     1       6.794   7.151  14.321  0.00  0.00    +0.000 HD
ENDBRANCH   2   9
BRANCH   7  19
ATOM     19  O   UNL     1       2.035   6.746  20.849  0.00  0.00    +0.000 OA
BRANCH  19  20
ATOM     20  C   UNL     1       1.698   7.886  20.151  0.00  0.00    +0.000 A 
ATOM     21  N   UNL     1       2.230   8.080  18.923  0.00  0.00    +0.000 NA
ATOM     22  C   UNL     1       1.756   9.132  18.218  0.00  0.00    +0.000 A 
ATOM     23  C   UNL     1       0.770   9.995  18.679  0.00  0.00    +0.000 A 
ATOM     24  C   UNL     1       0.253   9.785  19.953  0.00  0.00    +0.000 A 
ATOM     25  C   UNL     1       0.724   8.712  20.700  0.00  0.00    +0.000 A 
ATOM     26  F   UNL     1       0.224   8.491  21.923  0.00  0.00    +0.000 F 
ENDBRANCH  19  20
ENDBRANCH   7  19
TORSDOF 3
ENDMDL
MODEL 9
REMARK VINA RESULT:      -7.8      2.534      5.548
REMARK  Name = 
REMARK  3 active torsions:
REMARK  status: ('A' for Active; 'I' for Inactive)
REMARK    1  A    between atoms: C_2  and  C_3
REMARK    2  A    between atoms: C_16  and  O_17
REMARK    3  A    between atoms: O_17  and  C_18
REMARK                            x       y       z     vdW  Elec       q    Type
REMARK                         _______ _______ _______ _____ _____    ______ ____
ROOT
ATOM      1  O   UNL     1       1.047   5.041  20.620  0.00  0.00    +0.000 OA
ATOM      2  C   UNL     1       2.031   5.165  19.898  0.00  0.00    +0.000 C 
ATOM      3  N   UNL     1       2.536   6.417  19.510  0.00  0.00    +0.000 N 
ATOM      4  C   UNL     1       1.829   7.636  19.877  0.00  0.00    +0.000 C 
ATOM      5  C   UNL     1       1.570   8.488  18.633  0.00  0.00    +0.000 C 
ATOM      6  C   UNL     1       2.857   8.747  17.840  0.00  0.00    +0.000 C 
ATOM      7  C   UNL     1       3.600   7.440  17.511  0.00  0.00    +0.000 C 
ATOM      8  C   UNL     1       3.807   6.663  18.821  0.00  0.00    +0.000 C 
ENDROOT
BRANCH   2   9
ATOM      9  C   UNL     1       2.736   3.920  19.448  0.00  0.00    +0.000 A 
ATOM     10  C   UNL     1       2.200   3.190  18.379  0.00  0.00    +0.000 A 
ATOM     11  C   UNL     1       2.730   1.935  18.065  0.00  0.00    +0.000 A 
ATOM     12  C   UNL     1       3.745   1.505  18.916  0.00  0.00    +0.000 A 
ATOM     13  N   UNL     1       4.480   0.363  19.046  0.00  0.00    +0.000 N 
ATOM     14  N   UNL     1       5.314   0.415  20.098  0.00  0.00    +0.000 NA
ATOM     15  N   UNL     1       5.186   1.619  20.646  0.00  0.00    +0.000 NA
ATOM     16  C   UNL     1       4.249   2.303  19.930  0.00  0.00    +0.000 A 
ATOM     17  N   UNL     1       3.815   3.551  20.174  0.00  0.00    +0.000 NA
ATOM     18  H   UNL     1       4.458  -0.480  18.489  0.00  0.00    +0.000 HD
ENDBRANCH   2   9
BRANCH   7  19
ATOM     19  O   UNL     1       4.913   7.686  16.989  0.00  0.00    +0.000 OA
BRANCH  19  20
ATOM     20  C   UNL     1       5.557   6.580  16.478  0.00  0.00    +0.000 A 
ATOM     21  N   UNL     1       5.178   6.101  15.272  0.00  0.00    +0.000 NA
ATOM     22  C   UNL     1       5.936   5.111  14.748  0.00  0.00    +0.000 A 
ATOM     23  C   UNL     1       7.060   4.582  15.369  0.00  0.00    +0.000 A 
ATOM     24  C   UNL     1       7.418   5.079  16.618  0.00  0.00    +0.000 A 
ATOM     25  C   UNL     1       6.655   6.094  17.180  0.00  0.00    +0.000 A 
ATOM     26  F   UNL     1       6.998   6.591  18.377  0.00  0.00    +0.000 F 
ENDBRANCH  19  20
ENDBRANCH   7  19
TORSDOF 3
ENDMDL
