MODEL 1
REMARK VINA RESULT:      -9.0      0.000      0.000
REMARK  Name = 
REMARK  5 active torsions:
REMARK  status: ('A' for Active; 'I' for Inactive)
REMARK    1  A    between atoms: C_8  and  N_9
REMARK    2  A    between atoms: C_10  and  C_12
REMARK    3  A    between atoms: C_17  and  O_18
REMARK    4  A    between atoms: O_18  and  C_19
REMARK    5  A    between atoms: C_19  and  C_20
REMARK                            x       y       z     vdW  Elec       q    Type
REMARK                         _______ _______ _______ _____ _____    ______ ____
ROOT
ATOM      1  N   UNL     1       3.394   6.544  18.015  0.00  0.00    +0.000 N 
ATOM      2  C   UNL     1       4.545   5.826  18.332  0.00  0.00    +0.000 C 
ATOM      3  O   UNL     1       5.008   5.676  19.455  0.00  0.00    +0.000 OA
ATOM      4  H   UNL     1       3.222   6.739  17.037  0.00  0.00    +0.000 HD
ENDROOT
BRANCH   1  12
ATOM      5  O   UNL     1       0.909  11.297  18.595  0.00  0.00    +0.000 OA
ATOM      6  C   UNL     1       0.749  10.493  19.490  0.00  0.00    +0.000 C 
ATOM      7  N   UNL     1       0.046  10.675  20.661  0.00  0.00    +0.000 N 
ATOM      8  C   UNL     1       0.063   9.514  21.519  0.00  0.00    +0.000 C 
ATOM      9  C   UNL     1       0.889   8.552  20.734  0.00  0.00    +0.000 A 
ATOM     10  C   UNL     1       1.281   7.268  21.044  0.00  0.00    +0.000 A 
ATOM     11  C   UNL     1       2.103   6.589  20.133  0.00  0.00    +0.000 A 
ATOM     12  C   UNL     1       2.530   7.187  18.930  0.00  0.00    +0.000 A 
ATOM     13  C   UNL     1       2.090   8.476  18.607  0.00  0.00    +0.000 A 
ATOM     14  C   UNL     1       1.289   9.126  19.532  0.00  0.00    +0.000 A 
ATOM     15  H   UNL     1      -0.401  11.555  20.877  0.00  0.00    +0.000 HD
ENDBRANCH   1  12
BRANCH   2  16
ATOM     16  C   UNL     1       5.254   5.243  17.161  0.00  0.00    +0.000 A 
ATOM     17  C   UNL     1       6.485   5.770  16.749  0.00  0.00    +0.000 A 
ATOM     18  C   UNL     1       7.162   5.187  15.683  0.00  0.00    +0.000 A 
ATOM     19  C   UNL     1       6.577   4.107  15.047  0.00  0.00    +0.000 A 
ATOM     20  N   UNL     1       5.382   3.589  15.398  0.00  0.00    +0.000 NA
ATOM     21  C   UNL     1       4.738   4.159  16.449  0.00  0.00    +0.000 A 
BRANCH  21  22
ATOM     22  O   UNL     1       3.534   3.617  16.828  0.00  0.00    +0.000 OA
BRANCH  22  23
ATOM     23  C   UNL     1       3.649   2.459  17.659  0.00  0.00    +0.000 C 
BRANCH  23  24
ATOM     24  C   UNL     1       2.802   2.627  18.899  0.00  0.00    +0.000 A 
ATOM     25  C   UNL     1       1.429   2.916  18.831  0.00  0.00    +0.000 A 
ATOM     26  C   UNL     1       0.692   3.150  19.996  0.00  0.00    +0.000 A 
ATOM     27  C   UNL     1       1.317   3.101  21.242  0.00  0.00    +0.000 A 
ATOM     28  C   UNL     1       2.678   2.813  21.324  0.00  0.00    +0.000 A 
ATOM     29  C   UNL     1       3.405   2.585  20.160  0.00  0.00    +0.000 A 
ATOM     30  F   UNL     1       4.720   2.333  20.261  0.00  0.00    +0.000 F 
ENDBRANCH  23  24
ENDBRANCH  22  23
ENDBRANCH  21  22
ENDBRANCH   2  16
TORSDOF 5
ENDMDL
MODEL 2
REMARK VINA RESULT:      -8.7      0.883      1.267
REMARK  Name = 
REMARK  5 active torsions:
REMARK  status: ('A' for Active; 'I' for Inactive)
REMARK    1  A    between atoms: C_8  and  N_9
REMARK    2  A    between atoms: C_10  and  C_12
REMARK    3  A    between atoms: C_17  and  O_18
REMARK    4  A    between atoms: O_18  and  C_19
REMARK    5  A    between atoms: C_19  and  C_20
REMARK                            x       y       z     vdW  Elec       q    Type
REMARK                         _______ _______ _______ _____ _____    ______ ____
ROOT
ATOM      1  N   UNL     1       3.381   6.486  17.980  0.00  0.00    +0.000 N 
ATOM      2  C   UNL     1       4.599   5.874  18.263  0.00  0.00    +0.000 C 
ATOM      3  O   UNL     1       5.152   5.852  19.355  0.00  0.00    +0.000 OA
ATOM      4  H   UNL     1       3.124   6.583  17.005  0.00  0.00    +0.000 HD
ENDROOT
BRANCH   1  12
ATOM      5  O   UNL     1       1.001  11.293  18.571  0.00  0.00    +0.000 OA
ATOM      6  C   UNL     1       0.838  10.495  19.472  0.00  0.00    +0.000 C 
ATOM      7  N   UNL     1       0.155  10.698  20.653  0.00  0.00    +0.000 N 
ATOM      8  C   UNL     1       0.161   9.540  21.515  0.00  0.00    +0.000 C 
ATOM      9  C   UNL     1       0.955   8.558  20.724  0.00  0.00    +0.000 A 
ATOM     10  C   UNL     1       1.325   7.268  21.034  0.00  0.00    +0.000 A 
ATOM     11  C   UNL     1       2.121   6.567  20.115  0.00  0.00    +0.000 A 
ATOM     12  C   UNL     1       2.542   7.152  18.903  0.00  0.00    +0.000 A 
ATOM     13  C   UNL     1       2.124   8.447  18.581  0.00  0.00    +0.000 A 
ATOM     14  C   UNL     1       1.350   9.118  19.513  0.00  0.00    +0.000 A 
ATOM     15  H   UNL     1      -0.271  11.587  20.870  0.00  0.00    +0.000 HD
ENDBRANCH   1  12
BRANCH   2  16
ATOM     16  C   UNL     1       5.259   5.236  17.092  0.00  0.00    +0.000 A 
ATOM     17  C   UNL     1       6.484   5.727  16.621  0.00  0.00    +0.000 A 
ATOM     18  C   UNL     1       7.116   5.093  15.556  0.00  0.00    +0.000 A 
ATOM     19  C   UNL     1       6.493   4.001  14.980  0.00  0.00    +0.000 A 
ATOM     20  N   UNL     1       5.303   3.517  15.388  0.00  0.00    +0.000 NA
ATOM     21  C   UNL     1       4.703   4.136  16.438  0.00  0.00    +0.000 A 
BRANCH  21  22
ATOM     22  O   UNL     1       3.503   3.629  16.876  0.00  0.00    +0.000 OA
BRANCH  22  23
ATOM     23  C   UNL     1       3.627   2.498  17.743  0.00  0.00    +0.000 C 
BRANCH  23  24
ATOM     24  C   UNL     1       2.877   2.751  19.031  0.00  0.00    +0.000 A 
ATOM     25  C   UNL     1       3.478   2.585  20.289  0.00  0.00    +0.000 A 
ATOM     26  C   UNL     1       2.732   2.745  21.460  0.00  0.00    +0.000 A 
ATOM     27  C   UNL     1       1.378   3.069  21.390  0.00  0.00    +0.000 A 
ATOM     28  C   UNL     1       0.769   3.240  20.149  0.00  0.00    +0.000 A 
ATOM     29  C   UNL     1       1.517   3.076  18.987  0.00  0.00    +0.000 A 
ATOM     30  F   UNL     1       0.905   3.221  17.801  0.00  0.00    +0.000 F 
ENDBRANCH  23  24
ENDBRANCH  22  23
ENDBRANCH  21  22
ENDBRANCH   2  16
TORSDOF 5
ENDMDL
MODEL 3
REMARK VINA RESULT:      -8.5      2.113      4.418
REMARK  Name = 
REMARK  5 active torsions:
REMARK  status: ('A' for Active; 'I' for Inactive)
REMARK    1  A    between atoms: C_8  and  N_9
REMARK    2  A    between atoms: C_10  and  C_12
REMARK    3  A    between atoms: C_17  and  O_18
REMARK    4  A    between atoms: O_18  and  C_19
REMARK    5  A    between atoms: C_19  and  C_20
REMARK                            x       y       z     vdW  Elec       q    Type
REMARK                         _______ _______ _______ _____ _____    ______ ____
ROOT
ATOM      1  N   UNL     1       2.425   6.505  19.985  0.00  0.00    +0.000 N 
ATOM      2  C   UNL     1       2.318   5.595  18.937  0.00  0.00    +0.000 C 
ATOM      3  O   UNL     1       1.664   5.755  17.914  0.00  0.00    +0.000 OA
ATOM      4  H   UNL     1       2.849   6.178  20.844  0.00  0.00    +0.000 HD
ENDROOT
BRANCH   1  12
ATOM      5  O   UNL     1      -0.079   9.671  23.566  0.00  0.00    +0.000 OA
ATOM      6  C   UNL     1       0.032  10.113  22.440  0.00  0.00    +0.000 C 
ATOM      7  N   UNL     1      -0.454  11.310  21.961  0.00  0.00    +0.000 N 
ATOM      8  C   UNL     1      -0.155  11.525  20.565  0.00  0.00    +0.000 C 
ATOM      9  C   UNL     1       0.592  10.286  20.206  0.00  0.00    +0.000 A 
ATOM     10  C   UNL     1       1.124   9.896  18.997  0.00  0.00    +0.000 A 
ATOM     11  C   UNL     1       1.750   8.643  18.922  0.00  0.00    +0.000 A 
ATOM     12  C   UNL     1       1.840   7.791  20.042  0.00  0.00    +0.000 A 
ATOM     13  C   UNL     1       1.333   8.217  21.275  0.00  0.00    +0.000 A 
ATOM     14  C   UNL     1       0.710   9.454  21.315  0.00  0.00    +0.000 A 
ATOM     15  H   UNL     1      -0.985  11.937  22.549  0.00  0.00    +0.000 HD
ENDBRANCH   1  12
BRANCH   2  16
ATOM     16  C   UNL     1       3.054   4.319  19.146  0.00  0.00    +0.000 A 
ATOM     17  C   UNL     1       2.404   3.093  18.953  0.00  0.00    +0.000 A 
ATOM     18  C   UNL     1       3.115   1.905  19.104  0.00  0.00    +0.000 A 
ATOM     19  C   UNL     1       4.447   1.981  19.466  0.00  0.00    +0.000 A 
ATOM     20  N   UNL     1       5.099   3.141  19.686  0.00  0.00    +0.000 NA
ATOM     21  C   UNL     1       4.397   4.293  19.521  0.00  0.00    +0.000 A 
BRANCH  21  22
ATOM     22  O   UNL     1       5.064   5.479  19.717  0.00  0.00    +0.000 OA
BRANCH  22  23
ATOM     23  C   UNL     1       6.382   5.507  19.162  0.00  0.00    +0.000 C 
BRANCH  23  24
ATOM     24  C   UNL     1       6.305   5.498  17.652  0.00  0.00    +0.000 A 
ATOM     25  C   UNL     1       5.300   6.184  16.952  0.00  0.00    +0.000 A 
ATOM     26  C   UNL     1       5.207   6.086  15.561  0.00  0.00    +0.000 A 
ATOM     27  C   UNL     1       6.115   5.300  14.852  0.00  0.00    +0.000 A 
ATOM     28  C   UNL     1       7.120   4.617  15.533  0.00  0.00    +0.000 A 
ATOM     29  C   UNL     1       7.204   4.716  16.919  0.00  0.00    +0.000 A 
ATOM     30  F   UNL     1       8.165   4.031  17.557  0.00  0.00    +0.000 F 
ENDBRANCH  23  24
ENDBRANCH  22  23
ENDBRANCH  21  22
ENDBRANCH   2  16
TORSDOF 5
ENDMDL
MODEL 4
REMARK VINA RESULT:      -8.4      2.162      4.442
REMARK  Name = 
REMARK  5 active torsions:
REMARK  status: ('A' for Active; 'I' for Inactive)
REMARK    1  A    between atoms: C_8  and  N_9
REMARK    2  A    between atoms: C_10  and  C_12
REMARK    3  A    between atoms: C_17  and  O_18
REMARK    4  A    between atoms: O_18  and  C_19
REMARK    5  A    between atoms: C_19  and  C_20
REMARK                            x       y       z     vdW  Elec       q    Type
REMARK                         _______ _______ _______ _____ _____    ______ ____
ROOT
ATOM      1  N   UNL     1       2.485   6.469  19.840  0.00  0.00    +0.000 N 
ATOM      2  C   UNL     1       2.370   5.534  18.814  0.00  0.00    +0.000 C 
ATOM      3  O   UNL     1       1.742   5.686  17.775  0.00  0.00    +0.000 OA
ATOM      4  H   UNL     1       2.882   6.153  20.716  0.00  0.00    +0.000 HD
ENDROOT
BRANCH   1  12
ATOM      5  O   UNL     1       0.153   9.867  23.323  0.00  0.00    +0.000 OA
ATOM      6  C   UNL     1       0.253  10.254  22.176  0.00  0.00    +0.000 C 
ATOM      7  N   UNL     1      -0.207  11.444  21.653  0.00  0.00    +0.000 N 
ATOM      8  C   UNL     1       0.069  11.587  20.244  0.00  0.00    +0.000 C 
ATOM      9  C   UNL     1       0.771  10.311  19.927  0.00  0.00    +0.000 A 
ATOM     10  C   UNL     1       1.265   9.851  18.726  0.00  0.00    +0.000 A 
ATOM     11  C   UNL     1       1.852   8.577  18.695  0.00  0.00    +0.000 A 
ATOM     12  C   UNL     1       1.940   7.773  19.851  0.00  0.00    +0.000 A 
ATOM     13  C   UNL     1       1.472   8.270  21.072  0.00  0.00    +0.000 A 
ATOM     14  C   UNL     1       0.887   9.525  21.069  0.00  0.00    +0.000 A 
ATOM     15  H   UNL     1      -0.707  12.112  22.223  0.00  0.00    +0.000 HD
ENDBRANCH   1  12
BRANCH   2  16
ATOM     16  C   UNL     1       3.061   4.243  19.073  0.00  0.00    +0.000 A 
ATOM     17  C   UNL     1       2.388   3.031  18.865  0.00  0.00    +0.000 A 
ATOM     18  C   UNL     1       3.059   1.828  19.063  0.00  0.00    +0.000 A 
ATOM     19  C   UNL     1       4.375   1.873  19.485  0.00  0.00    +0.000 A 
ATOM     20  N   UNL     1       5.047   3.019  19.721  0.00  0.00    +0.000 NA
ATOM     21  C   UNL     1       4.385   4.186  19.510  0.00  0.00    +0.000 A 
BRANCH  21  22
ATOM     22  O   UNL     1       5.074   5.356  19.722  0.00  0.00    +0.000 OA
BRANCH  22  23
ATOM     23  C   UNL     1       6.323   5.433  19.030  0.00  0.00    +0.000 C 
BRANCH  23  24
ATOM     24  C   UNL     1       6.095   5.318  17.540  0.00  0.00    +0.000 A 
ATOM     25  C   UNL     1       6.665   4.287  16.776  0.00  0.00    +0.000 A 
ATOM     26  C   UNL     1       6.505   4.258  15.388  0.00  0.00    +0.000 A 
ATOM     27  C   UNL     1       5.776   5.258  14.746  0.00  0.00    +0.000 A 
ATOM     28  C   UNL     1       5.203   6.286  15.492  0.00  0.00    +0.000 A 
ATOM     29  C   UNL     1       5.370   6.310  16.873  0.00  0.00    +0.000 A 
ATOM     30  F   UNL     1       4.829   7.322  17.570  0.00  0.00    +0.000 F 
ENDBRANCH  23  24
ENDBRANCH  22  23
ENDBRANCH  21  22
ENDBRANCH   2  16
TORSDOF 5
ENDMDL
MODEL 5
REMARK VINA RESULT:      -8.3      1.346      1.800
REMARK  Name = 
REMARK  5 active torsions:
REMARK  status: ('A' for Active; 'I' for Inactive)
REMARK    1  A    between atoms: C_8  and  N_9
REMARK    2  A    between atoms: C_10  and  C_12
REMARK    3  A    between atoms: C_17  and  O_18
REMARK    4  A    between atoms: O_18  and  C_19
REMARK    5  A    between atoms: C_19  and  C_20
REMARK                            x       y       z     vdW  Elec       q    Type
REMARK                         _______ _______ _______ _____ _____    ______ ____
ROOT
ATOM      1  N   UNL     1       3.007   7.620  17.948  0.00  0.00    +0.000 N 
ATOM      2  C   UNL     1       3.469   6.445  18.534  0.00  0.00    +0.000 C 
ATOM      3  O   UNL     1       3.110   5.994  19.614  0.00  0.00    +0.000 OA
ATOM      4  H   UNL     1       3.513   7.969  17.143  0.00  0.00    +0.000 HD
ENDROOT
BRANCH   1  12
ATOM      5  O   UNL     1       1.231   9.350  22.740  0.00  0.00    +0.000 OA
ATOM      6  C   UNL     1       0.632   9.755  21.764  0.00  0.00    +0.000 C 
ATOM      7  N   UNL     1      -0.482  10.567  21.746  0.00  0.00    +0.000 N 
ATOM      8  C   UNL     1      -0.953  10.852  20.411  0.00  0.00    +0.000 C 
ATOM      9  C   UNL     1       0.016  10.099  19.565  0.00  0.00    +0.000 A 
ATOM     10  C   UNL     1       0.074   9.966  18.195  0.00  0.00    +0.000 A 
ATOM     11  C   UNL     1       1.080   9.153  17.650  0.00  0.00    +0.000 A 
ATOM     12  C   UNL     1       2.012   8.481  18.466  0.00  0.00    +0.000 A 
ATOM     13  C   UNL     1       1.969   8.658  19.853  0.00  0.00    +0.000 A 
ATOM     14  C   UNL     1       0.958   9.457  20.363  0.00  0.00    +0.000 A 
ATOM     15  H   UNL     1      -0.915  10.889  22.600  0.00  0.00    +0.000 HD
ENDBRANCH   1  12
BRANCH   2  16
ATOM     16  C   UNL     1       4.516   5.732  17.753  0.00  0.00    +0.000 A 
ATOM     17  C   UNL     1       5.836   6.201  17.755  0.00  0.00    +0.000 A 
ATOM     18  C   UNL     1       6.818   5.500  17.061  0.00  0.00    +0.000 A 
ATOM     19  C   UNL     1       6.444   4.364  16.366  0.00  0.00    +0.000 A 
ATOM     20  N   UNL     1       5.179   3.898  16.319  0.00  0.00    +0.000 NA
ATOM     21  C   UNL     1       4.234   4.584  17.013  0.00  0.00    +0.000 A 
BRANCH  21  22
ATOM     22  O   UNL     1       2.949   4.096  16.991  0.00  0.00    +0.000 OA
BRANCH  22  23
ATOM     23  C   UNL     1       2.824   2.753  17.465  0.00  0.00    +0.000 C 
BRANCH  23  24
ATOM     24  C   UNL     1       2.402   2.754  18.916  0.00  0.00    +0.000 A 
ATOM     25  C   UNL     1       1.087   3.053  19.309  0.00  0.00    +0.000 A 
ATOM     26  C   UNL     1       0.749   3.129  20.664  0.00  0.00    +0.000 A 
ATOM     27  C   UNL     1       1.720   2.911  21.641  0.00  0.00    +0.000 A 
ATOM     28  C   UNL     1       3.027   2.611  21.265  0.00  0.00    +0.000 A 
ATOM     29  C   UNL     1       3.357   2.540  19.915  0.00  0.00    +0.000 A 
ATOM     30  F   UNL     1       4.627   2.273  19.575  0.00  0.00    +0.000 F 
ENDBRANCH  23  24
ENDBRANCH  22  23
ENDBRANCH  21  22
ENDBRANCH   2  16
TORSDOF 5
ENDMDL
MODEL 6
REMARK VINA RESULT:      -8.3      2.397      4.823
REMARK  Name = 
REMARK  5 active torsions:
REMARK  status: ('A' for Active; 'I' for Inactive)
REMARK    1  A    between atoms: C_8  and  N_9
REMARK    2  A    between atoms: C_10  and  C_12
REMARK    3  A    between atoms: C_17  and  O_18
REMARK    4  A    between atoms: O_18  and  C_19
REMARK    5  A    between atoms: C_19  and  C_20
REMARK                            x       y       z     vdW  Elec       q    Type
REMARK                         _______ _______ _______ _____ _____    ______ ____
ROOT
ATOM      1  N   UNL     1       2.447   6.544  20.259  0.00  0.00    +0.000 N 
ATOM      2  C   UNL     1       1.809   5.311  20.368  0.00  0.00    +0.000 C 
ATOM      3  O   UNL     1       0.600   5.135  20.449  0.00  0.00    +0.000 OA
ATOM      4  H   UNL     1       3.452   6.561  20.379  0.00  0.00    +0.000 HD
ENDROOT
BRANCH   1  12
ATOM      5  O   UNL     1      -0.070  10.045  23.502  0.00  0.00    +0.000 OA
ATOM      6  C   UNL     1      -0.004  10.349  22.328  0.00  0.00    +0.000 C 
ATOM      7  N   UNL     1      -0.544  11.463  21.722  0.00  0.00    +0.000 N 
ATOM      8  C   UNL     1      -0.289  11.515  20.302  0.00  0.00    +0.000 C 
ATOM      9  C   UNL     1       0.490  10.265  20.074  0.00  0.00    +0.000 A 
ATOM     10  C   UNL     1       1.003   9.746  18.906  0.00  0.00    +0.000 A 
ATOM     11  C   UNL     1       1.671   8.513  18.965  0.00  0.00    +0.000 A 
ATOM     12  C   UNL     1       1.819   7.808  20.177  0.00  0.00    +0.000 A 
ATOM     13  C   UNL     1       1.331   8.367  21.363  0.00  0.00    +0.000 A 
ATOM     14  C   UNL     1       0.666   9.578  21.272  0.00  0.00    +0.000 A 
ATOM     15  H   UNL     1      -1.081  12.140  22.245  0.00  0.00    +0.000 HD
ENDBRANCH   1  12
BRANCH   2  16
ATOM     16  C   UNL     1       2.726   4.141  20.421  0.00  0.00    +0.000 A 
ATOM     17  C   UNL     1       2.549   3.153  21.398  0.00  0.00    +0.000 A 
ATOM     18  C   UNL     1       3.383   2.038  21.410  0.00  0.00    +0.000 A 
ATOM     19  C   UNL     1       4.382   1.957  20.457  0.00  0.00    +0.000 A 
ATOM     20  N   UNL     1       4.599   2.901  19.518  0.00  0.00    +0.000 NA
ATOM     21  C   UNL     1       3.770   3.977  19.510  0.00  0.00    +0.000 A 
BRANCH  21  22
ATOM     22  O   UNL     1       3.969   4.928  18.537  0.00  0.00    +0.000 OA
BRANCH  22  23
ATOM     23  C   UNL     1       5.039   4.627  17.637  0.00  0.00    +0.000 C 
BRANCH  23  24
ATOM     24  C   UNL     1       6.169   5.613  17.831  0.00  0.00    +0.000 A 
ATOM     25  C   UNL     1       7.150   5.436  18.820  0.00  0.00    +0.000 A 
ATOM     26  C   UNL     1       8.132   6.408  19.030  0.00  0.00    +0.000 A 
ATOM     27  C   UNL     1       8.145   7.569  18.258  0.00  0.00    +0.000 A 
ATOM     28  C   UNL     1       7.179   7.756  17.271  0.00  0.00    +0.000 A 
ATOM     29  C   UNL     1       6.203   6.786  17.070  0.00  0.00    +0.000 A 
ATOM     30  F   UNL     1       5.268   6.997  16.131  0.00  0.00    +0.000 F 
ENDBRANCH  23  24
ENDBRANCH  22  23
ENDBRANCH  21  22
ENDBRANCH   2  16
TORSDOF 5
ENDMDL
MODEL 7
REMARK VINA RESULT:      -8.2      1.240      1.733
REMARK  Name = 
REMARK  5 active torsions:
REMARK  status: ('A' for Active; 'I' for Inactive)
REMARK    1  A    between atoms: C_8  and  N_9
REMARK    2  A    between atoms: C_10  and  C_12
REMARK    3  A    between atoms: C_17  and  O_18
REMARK    4  A    between atoms: O_18  and  C_19
REMARK    5  A    between atoms: C_19  and  C_20
REMARK                            x       y       z     vdW  Elec       q    Type
REMARK                         _______ _______ _______ _____ _____    ______ ____
ROOT
ATOM      1  N   UNL     1       3.403   7.072  18.754  0.00  0.00    +0.000 N 
ATOM      2  C   UNL     1       3.261   6.002  17.875  0.00  0.00    +0.000 C 
ATOM      3  O   UNL     1       2.208   5.447  17.588  0.00  0.00    +0.000 OA
ATOM      4  H   UNL     1       4.343   7.320  19.038  0.00  0.00    +0.000 HD
ENDROOT
BRANCH   1  12
ATOM      5  O   UNL     1       0.518  11.611  18.321  0.00  0.00    +0.000 OA
ATOM      6  C   UNL     1       0.279  10.910  19.283  0.00  0.00    +0.000 C 
ATOM      7  N   UNL     1      -0.610  11.168  20.304  0.00  0.00    +0.000 N 
ATOM      8  C   UNL     1      -0.643  10.126  21.303  0.00  0.00    +0.000 C 
ATOM      9  C   UNL     1       0.363   9.157  20.784  0.00  0.00    +0.000 A 
ATOM     10  C   UNL     1       0.795   7.962  21.317  0.00  0.00    +0.000 A 
ATOM     11  C   UNL     1       1.797   7.255  20.636  0.00  0.00    +0.000 A 
ATOM     12  C   UNL     1       2.362   7.740  19.438  0.00  0.00    +0.000 A 
ATOM     13  C   UNL     1       1.885   8.933  18.885  0.00  0.00    +0.000 A 
ATOM     14  C   UNL     1       0.904   9.615  19.586  0.00  0.00    +0.000 A 
ATOM     15  H   UNL     1      -1.148  12.022  20.332  0.00  0.00    +0.000 HD
ENDBRANCH   1  12
BRANCH   2  16
ATOM     16  C   UNL     1       4.535   5.507  17.288  0.00  0.00    +0.000 A 
ATOM     17  C   UNL     1       4.842   5.774  15.947  0.00  0.00    +0.000 A 
ATOM     18  C   UNL     1       6.059   5.348  15.422  0.00  0.00    +0.000 A 
ATOM     19  C   UNL     1       6.921   4.650  16.247  0.00  0.00    +0.000 A 
ATOM     20  N   UNL     1       6.648   4.352  17.534  0.00  0.00    +0.000 NA
ATOM     21  C   UNL     1       5.464   4.786  18.038  0.00  0.00    +0.000 A 
BRANCH  21  22
ATOM     22  O   UNL     1       5.194   4.509  19.357  0.00  0.00    +0.000 OA
BRANCH  22  23
ATOM     23  C   UNL     1       4.794   3.157  19.601  0.00  0.00    +0.000 C 
BRANCH  23  24
ATOM     24  C   UNL     1       3.286   3.066  19.647  0.00  0.00    +0.000 A 
ATOM     25  C   UNL     1       2.535   3.646  20.682  0.00  0.00    +0.000 A 
ATOM     26  C   UNL     1       1.149   3.471  20.740  0.00  0.00    +0.000 A 
ATOM     27  C   UNL     1       0.497   2.714  19.767  0.00  0.00    +0.000 A 
ATOM     28  C   UNL     1       1.229   2.136  18.732  0.00  0.00    +0.000 A 
ATOM     29  C   UNL     1       2.609   2.311  18.683  0.00  0.00    +0.000 A 
ATOM     30  F   UNL     1       3.298   1.726  17.692  0.00  0.00    +0.000 F 
ENDBRANCH  23  24
ENDBRANCH  22  23
ENDBRANCH  21  22
ENDBRANCH   2  16
TORSDOF 5
ENDMDL
MODEL 8
REMARK VINA RESULT:      -8.1      1.595      2.292
REMARK  Name = 
REMARK  5 active torsions:
REMARK  status: ('A' for Active; 'I' for Inactive)
REMARK    1  A    between atoms: C_8  and  N_9
REMARK    2  A    between atoms: C_10  and  C_12
REMARK    3  A    between atoms: C_17  and  O_18
REMARK    4  A    between atoms: O_18  and  C_19
REMARK    5  A    between atoms: C_19  and  C_20
REMARK                            x       y       z     vdW  Elec       q    Type
REMARK                         _______ _______ _______ _____ _____    ______ ____
ROOT
ATOM      1  N   UNL     1       3.448   7.509  18.005  0.00  0.00    +0.000 N 
ATOM      2  C   UNL     1       3.363   6.180  17.596  0.00  0.00    +0.000 C 
ATOM      3  O   UNL     1       2.348   5.496  17.594  0.00  0.00    +0.000 OA
ATOM      4  H   UNL     1       4.374   7.901  18.124  0.00  0.00    +0.000 HD
ENDROOT
BRANCH   1  12
ATOM      5  O   UNL     1       1.025   8.865  22.631  0.00  0.00    +0.000 OA
ATOM      6  C   UNL     1       0.552   9.335  21.616  0.00  0.00    +0.000 C 
ATOM      7  N   UNL     1      -0.564  10.136  21.509  0.00  0.00    +0.000 N 
ATOM      8  C   UNL     1      -0.860  10.515  20.147  0.00  0.00    +0.000 C 
ATOM      9  C   UNL     1       0.226   9.835  19.386  0.00  0.00    +0.000 A 
ATOM     10  C   UNL     1       0.465   9.804  18.029  0.00  0.00    +0.000 A 
ATOM     11  C   UNL     1       1.549   9.043  17.565  0.00  0.00    +0.000 A 
ATOM     12  C   UNL     1       2.378   8.320  18.447  0.00  0.00    +0.000 A 
ATOM     13  C   UNL     1       2.149   8.394  19.825  0.00  0.00    +0.000 A 
ATOM     14  C   UNL     1       1.065   9.144  20.253  0.00  0.00    +0.000 A 
ATOM     15  H   UNL     1      -1.112  10.390  22.319  0.00  0.00    +0.000 HD
ENDBRANCH   1  12
BRANCH   2  16
ATOM     16  C   UNL     1       4.655   5.580  17.167  0.00  0.00    +0.000 A 
ATOM     17  C   UNL     1       5.069   5.683  15.832  0.00  0.00    +0.000 A 
ATOM     18  C   UNL     1       6.302   5.160  15.451  0.00  0.00    +0.000 A 
ATOM     19  C   UNL     1       7.071   4.530  16.412  0.00  0.00    +0.000 A 
ATOM     20  N   UNL     1       6.694   4.389  17.699  0.00  0.00    +0.000 NA
ATOM     21  C   UNL     1       5.495   4.916  18.061  0.00  0.00    +0.000 A 
BRANCH  21  22
ATOM     22  O   UNL     1       5.119   4.799  19.377  0.00  0.00    +0.000 OA
BRANCH  22  23
ATOM     23  C   UNL     1       4.794   3.464  19.776  0.00  0.00    +0.000 C 
BRANCH  23  24
ATOM     24  C   UNL     1       3.297   3.261  19.725  0.00  0.00    +0.000 A 
ATOM     25  C   UNL     1       2.429   3.875  20.642  0.00  0.00    +0.000 A 
ATOM     26  C   UNL     1       1.058   3.600  20.619  0.00  0.00    +0.000 A 
ATOM     27  C   UNL     1       0.539   2.707  19.684  0.00  0.00    +0.000 A 
ATOM     28  C   UNL     1       1.388   2.092  18.766  0.00  0.00    +0.000 A 
ATOM     29  C   UNL     1       2.751   2.368  18.796  0.00  0.00    +0.000 A 
ATOM     30  F   UNL     1       3.554   1.747  17.919  0.00  0.00    +0.000 F 
ENDBRANCH  23  24
ENDBRANCH  22  23
ENDBRANCH  21  22
ENDBRANCH   2  16
TORSDOF 5
ENDMDL
MODEL 9
REMARK VINA RESULT:      -8.1      2.134      4.685
REMARK  Name = 
REMARK  5 active torsions:
REMARK  status: ('A' for Active; 'I' for Inactive)
REMARK    1  A    between atoms: C_8  and  N_9
REMARK    2  A    between atoms: C_10  and  C_12
REMARK    3  A    between atoms: C_17  and  O_18
REMARK    4  A    between atoms: O_18  and  C_19
REMARK    5  A    between atoms: C_19  and  C_20
REMARK                            x       y       z     vdW  Elec       q    Type
REMARK                         _______ _______ _______ _____ _____    ______ ____
ROOT
ATOM      1  N   UNL     1       2.431   6.667  20.338  0.00  0.00    +0.000 N 
ATOM      2  C   UNL     1       1.817   5.418  20.403  0.00  0.00    +0.000 C 
ATOM      3  O   UNL     1       0.611   5.216  20.444  0.00  0.00    +0.000 OA
ATOM      4  H   UNL     1       3.432   6.702  20.489  0.00  0.00    +0.000 HD
ENDROOT
BRANCH   1  12
ATOM      5  O   UNL     1      -0.141  10.108  23.602  0.00  0.00    +0.000 OA
ATOM      6  C   UNL     1      -0.086  10.417  22.429  0.00  0.00    +0.000 C 
ATOM      7  N   UNL     1      -0.649  11.522  21.828  0.00  0.00    +0.000 N 
ATOM      8  C   UNL     1      -0.401  11.583  20.408  0.00  0.00    +0.000 C 
ATOM      9  C   UNL     1       0.402  10.349  20.173  0.00  0.00    +0.000 A 
ATOM     10  C   UNL     1       0.921   9.844  19.000  0.00  0.00    +0.000 A 
ATOM     11  C   UNL     1       1.612   8.625  19.053  0.00  0.00    +0.000 A 
ATOM     12  C   UNL     1       1.779   7.919  20.262  0.00  0.00    +0.000 A 
ATOM     13  C   UNL     1       1.284   8.464  21.452  0.00  0.00    +0.000 A 
ATOM     14  C   UNL     1       0.596   9.663  21.367  0.00  0.00    +0.000 A 
ATOM     15  H   UNL     1      -1.197  12.187  22.356  0.00  0.00    +0.000 HD
ENDBRANCH   1  12
BRANCH   2  16
ATOM     16  C   UNL     1       2.758   4.268  20.461  0.00  0.00    +0.000 A 
ATOM     17  C   UNL     1       2.446   3.142  21.235  0.00  0.00    +0.000 A 
ATOM     18  C   UNL     1       3.310   2.051  21.244  0.00  0.00    +0.000 A 
ATOM     19  C   UNL     1       4.470   2.128  20.496  0.00  0.00    +0.000 A 
ATOM     20  N   UNL     1       4.816   3.204  19.759  0.00  0.00    +0.000 NA
ATOM     21  C   UNL     1       3.957   4.256  19.748  0.00  0.00    +0.000 A 
BRANCH  21  22
ATOM     22  O   UNL     1       4.292   5.343  18.977  0.00  0.00    +0.000 OA
BRANCH  22  23
ATOM     23  C   UNL     1       5.694   5.472  18.725  0.00  0.00    +0.000 C 
BRANCH  23  24
ATOM     24  C   UNL     1       5.965   5.351  17.243  0.00  0.00    +0.000 A 
ATOM     25  C   UNL     1       5.051   5.804  16.278  0.00  0.00    +0.000 A 
ATOM     26  C   UNL     1       5.293   5.600  14.917  0.00  0.00    +0.000 A 
ATOM     27  C   UNL     1       6.449   4.939  14.502  0.00  0.00    +0.000 A 
ATOM     28  C   UNL     1       7.365   4.486  15.448  0.00  0.00    +0.000 A 
ATOM     29  C   UNL     1       7.116   4.690  16.802  0.00  0.00    +0.000 A 
ATOM     30  F   UNL     1       8.001   4.224  17.697  0.00  0.00    +0.000 F 
ENDBRANCH  23  24
ENDBRANCH  22  23
ENDBRANCH  21  22
ENDBRANCH   2  16
TORSDOF 5
ENDMDL
