MODEL 1
REMARK VINA RESULT:      -9.0      0.000      0.000
REMARK  Name = 
REMARK  3 active torsions:
REMARK  status: ('A' for Active; 'I' for Inactive)
REMARK    1  A    between atoms: C_2  and  C_13
REMARK    2  A    between atoms: N_3  and  C_4
REMARK    3  A    between atoms: C_13  and  C_14
REMARK                            x       y       z     vdW  Elec       q    Type
REMARK                         _______ _______ _______ _____ _____    ______ ____
ROOT
ATOM      1  O   UNL     1       4.083   7.632  16.477  0.00  0.00    +0.000 OA
ATOM      2  C   UNL     1       4.093   6.760  17.350  0.00  0.00    +0.000 C 
ATOM      3  N   UNL     1       3.275   6.770  18.468  0.00  0.00    +0.000 N 
ATOM      4  H   UNL     1       3.456   6.089  19.193  0.00  0.00    +0.000 HD
ENDROOT
BRANCH   3   5
ATOM      5  C   UNL     1       2.329   7.776  18.809  0.00  0.00    +0.000 A 
ATOM      6  C   UNL     1       1.825   8.707  17.837  0.00  0.00    +0.000 A 
ATOM      7  C   UNL     1       0.923   9.759  18.116  0.00  0.00    +0.000 A 
ATOM      8  C   UNL     1       0.590   9.776  19.459  0.00  0.00    +0.000 A 
ATOM      9  C   UNL     1      -0.228  10.688  20.062  0.00  0.00    +0.000 A 
ATOM     10  N   UNL     1      -0.242  10.317  21.375  0.00  0.00    +0.000 N 
ATOM     11  N   UNL     1       0.493   9.220  21.654  0.00  0.00    +0.000 NA
ATOM     12  C   UNL     1       1.036   8.864  20.478  0.00  0.00    +0.000 A 
ATOM     13  C   UNL     1       1.915   7.809  20.164  0.00  0.00    +0.000 A 
ATOM     14  H   UNL     1      -0.731  10.769  22.140  0.00  0.00    +0.000 HD
ENDBRANCH   3   5
BRANCH   2  15
ATOM     15  C   UNL     1       5.029   5.519  17.181  0.00  0.00    +0.000 C 
ATOM     16  C   UNL     1       6.443   5.744  17.790  0.00  0.00    +0.000 C 
ATOM     17  C   UNL     1       7.422   4.652  17.369  0.00  0.00    +0.000 C 
ATOM     18  O   UNL     1       7.562   4.629  15.953  0.00  0.00    +0.000 OA
ATOM     19  C   UNL     1       6.331   4.350  15.296  0.00  0.00    +0.000 C 
ATOM     20  C   UNL     1       5.294   5.408  15.639  0.00  0.00    +0.000 C 
BRANCH  15  21
ATOM     21  C   UNL     1       4.264   4.297  17.751  0.00  0.00    +0.000 A 
ATOM     22  C   UNL     1       3.263   3.644  17.000  0.00  0.00    +0.000 A 
ATOM     23  C   UNL     1       2.544   2.561  17.518  0.00  0.00    +0.000 A 
ATOM     24  C   UNL     1       2.795   2.126  18.809  0.00  0.00    +0.000 A 
ATOM     25  F   UNL     1       2.099   1.098  19.308  0.00  0.00    +0.000 F 
ATOM     26  C   UNL     1       3.746   2.757  19.591  0.00  0.00    +0.000 A 
ATOM     27  C   UNL     1       4.457   3.836  19.066  0.00  0.00    +0.000 A 
ATOM     28  F   UNL     1       5.327   4.443  19.883  0.00  0.00    +0.000 F 
ENDBRANCH  15  21
ENDBRANCH   2  15
TORSDOF 3
ENDMDL
MODEL 2
REMARK VINA RESULT:      -9.0      2.001      3.502
REMARK  Name = 
REMARK  3 active torsions:
REMARK  status: ('A' for Active; 'I' for Inactive)
REMARK    1  A    between atoms: C_2  and  C_13
REMARK    2  A    between atoms: N_3  and  C_4
REMARK    3  A    between atoms: C_13  and  C_14
REMARK                            x       y       z     vdW  Elec       q    Type
REMARK                         _______ _______ _______ _____ _____    ______ ____
ROOT
ATOM      1  O   UNL     1       1.396   5.263  17.580  0.00  0.00    +0.000 OA
ATOM      2  C   UNL     1       2.482   5.325  18.161  0.00  0.00    +0.000 C 
ATOM      3  N   UNL     1       2.910   6.421  18.893  0.00  0.00    +0.000 N 
ATOM      4  H   UNL     1       3.869   6.432  19.212  0.00  0.00    +0.000 HD
ENDROOT
BRANCH   3   5
ATOM      5  C   UNL     1       2.203   7.642  19.070  0.00  0.00    +0.000 A 
ATOM      6  C   UNL     1       2.060   8.600  18.008  0.00  0.00    +0.000 A 
ATOM      7  C   UNL     1       1.414   9.851  18.127  0.00  0.00    +0.000 A 
ATOM      8  C   UNL     1       0.936  10.034  19.413  0.00  0.00    +0.000 A 
ATOM      9  C   UNL     1       0.298  11.152  19.870  0.00  0.00    +0.000 A 
ATOM     10  N   UNL     1       0.036  10.882  21.182  0.00  0.00    +0.000 N 
ATOM     11  N   UNL     1       0.443   9.663  21.594  0.00  0.00    +0.000 NA
ATOM     12  C   UNL     1       1.022   9.112  20.514  0.00  0.00    +0.000 A 
ATOM     13  C   UNL     1       1.649   7.862  20.356  0.00  0.00    +0.000 A 
ATOM     14  H   UNL     1      -0.417  11.486  21.859  0.00  0.00    +0.000 HD
ENDBRANCH   3   5
BRANCH   2  15
ATOM     15  C   UNL     1       3.431   4.083  18.146  0.00  0.00    +0.000 C 
ATOM     16  C   UNL     1       2.685   2.760  17.806  0.00  0.00    +0.000 C 
ATOM     17  C   UNL     1       3.554   1.534  18.074  0.00  0.00    +0.000 C 
ATOM     18  O   UNL     1       3.923   1.479  19.447  0.00  0.00    +0.000 OA
ATOM     19  C   UNL     1       4.683   2.614  19.846  0.00  0.00    +0.000 C 
ATOM     20  C   UNL     1       3.883   3.890  19.635  0.00  0.00    +0.000 C 
BRANCH  15  21
ATOM     21  C   UNL     1       4.608   4.426  17.198  0.00  0.00    +0.000 A 
ATOM     22  C   UNL     1       4.635   3.960  15.865  0.00  0.00    +0.000 A 
ATOM     23  C   UNL     1       5.709   4.236  15.012  0.00  0.00    +0.000 A 
ATOM     24  C   UNL     1       6.792   4.961  15.484  0.00  0.00    +0.000 A 
ATOM     25  F   UNL     1       7.824   5.213  14.671  0.00  0.00    +0.000 F 
ATOM     26  C   UNL     1       6.821   5.408  16.792  0.00  0.00    +0.000 A 
ATOM     27  C   UNL     1       5.746   5.128  17.635  0.00  0.00    +0.000 A 
ATOM     28  F   UNL     1       5.850   5.539  18.906  0.00  0.00    +0.000 F 
ENDBRANCH  15  21
ENDBRANCH   2  15
TORSDOF 3
ENDMDL
MODEL 3
REMARK VINA RESULT:      -8.9      2.452      4.023
REMARK  Name = 
REMARK  3 active torsions:
REMARK  status: ('A' for Active; 'I' for Inactive)
REMARK    1  A    between atoms: C_2  and  C_13
REMARK    2  A    between atoms: N_3  and  C_4
REMARK    3  A    between atoms: C_13  and  C_14
REMARK                            x       y       z     vdW  Elec       q    Type
REMARK                         _______ _______ _______ _____ _____    ______ ____
ROOT
ATOM      1  O   UNL     1       1.471   5.792  17.924  0.00  0.00    +0.000 OA
ATOM      2  C   UNL     1       2.441   5.773  18.686  0.00  0.00    +0.000 C 
ATOM      3  N   UNL     1       2.648   6.689  19.705  0.00  0.00    +0.000 N 
ATOM      4  H   UNL     1       3.539   6.675  20.181  0.00  0.00    +0.000 HD
ENDROOT
BRANCH   3   5
ATOM      5  C   UNL     1       1.814   7.797  20.021  0.00  0.00    +0.000 A 
ATOM      6  C   UNL     1       1.085   7.872  21.257  0.00  0.00    +0.000 A 
ATOM      7  C   UNL     1       0.203   8.917  21.615  0.00  0.00    +0.000 A 
ATOM      8  C   UNL     1       0.133   9.864  20.608  0.00  0.00    +0.000 A 
ATOM      9  C   UNL     1      -0.656  10.979  20.622  0.00  0.00    +0.000 A 
ATOM     10  N   UNL     1      -0.405  11.589  19.428  0.00  0.00    +0.000 N 
ATOM     11  N   UNL     1       0.504  10.956  18.657  0.00  0.00    +0.000 NA
ATOM     12  C   UNL     1       0.851   9.866  19.362  0.00  0.00    +0.000 A 
ATOM     13  C   UNL     1       1.743   8.823  19.046  0.00  0.00    +0.000 A 
ATOM     14  H   UNL     1      -0.821  12.442  19.069  0.00  0.00    +0.000 HD
ENDBRANCH   3   5
BRANCH   2  15
ATOM     15  C   UNL     1       3.489   4.619  18.563  0.00  0.00    +0.000 C 
ATOM     16  C   UNL     1       3.143   3.610  17.430  0.00  0.00    +0.000 C 
ATOM     17  C   UNL     1       4.002   2.351  17.509  0.00  0.00    +0.000 C 
ATOM     18  O   UNL     1       3.798   1.689  18.752  0.00  0.00    +0.000 OA
ATOM     19  C   UNL     1       4.162   2.503  19.860  0.00  0.00    +0.000 C 
ATOM     20  C   UNL     1       3.334   3.779  19.878  0.00  0.00    +0.000 C 
BRANCH  15  21
ATOM     21  C   UNL     1       4.882   5.286  18.433  0.00  0.00    +0.000 A 
ATOM     22  C   UNL     1       5.876   5.102  19.419  0.00  0.00    +0.000 A 
ATOM     23  C   UNL     1       7.125   5.726  19.329  0.00  0.00    +0.000 A 
ATOM     24  C   UNL     1       7.395   6.569  18.262  0.00  0.00    +0.000 A 
ATOM     25  F   UNL     1       8.585   7.175  18.183  0.00  0.00    +0.000 F 
ATOM     26  C   UNL     1       6.438   6.802  17.291  0.00  0.00    +0.000 A 
ATOM     27  C   UNL     1       5.196   6.176  17.390  0.00  0.00    +0.000 A 
ATOM     28  F   UNL     1       4.290   6.478  16.452  0.00  0.00    +0.000 F 
ENDBRANCH  15  21
ENDBRANCH   2  15
TORSDOF 3
ENDMDL
MODEL 4
REMARK VINA RESULT:      -8.8      2.297      3.968
REMARK  Name = 
REMARK  3 active torsions:
REMARK  status: ('A' for Active; 'I' for Inactive)
REMARK    1  A    between atoms: C_2  and  C_13
REMARK    2  A    between atoms: N_3  and  C_4
REMARK    3  A    between atoms: C_13  and  C_14
REMARK                            x       y       z     vdW  Elec       q    Type
REMARK                         _______ _______ _______ _____ _____    ______ ____
ROOT
ATOM      1  O   UNL     1       2.224   6.884  18.010  0.00  0.00    +0.000 OA
ATOM      2  C   UNL     1       2.201   6.359  19.126  0.00  0.00    +0.000 C 
ATOM      3  N   UNL     1       1.767   6.998  20.277  0.00  0.00    +0.000 N 
ATOM      4  H   UNL     1       1.919   6.533  21.162  0.00  0.00    +0.000 HD
ENDROOT
BRANCH   3   5
ATOM      5  C   UNL     1       1.314   8.342  20.373  0.00  0.00    +0.000 A 
ATOM      6  C   UNL     1       1.415   9.259  19.271  0.00  0.00    +0.000 A 
ATOM      7  C   UNL     1       1.031  10.619  19.311  0.00  0.00    +0.000 A 
ATOM      8  C   UNL     1       0.542  10.952  20.563  0.00  0.00    +0.000 A 
ATOM      9  C   UNL     1       0.123  12.195  20.945  0.00  0.00    +0.000 A 
ATOM     10  N   UNL     1      -0.246  12.043  22.250  0.00  0.00    +0.000 N 
ATOM     11  N   UNL     1      -0.112  10.788  22.727  0.00  0.00    +0.000 NA
ATOM     12  C   UNL     1       0.391  10.083  21.698  0.00  0.00    +0.000 A 
ATOM     13  C   UNL     1       0.759   8.727  21.619  0.00  0.00    +0.000 A 
ATOM     14  H   UNL     1      -0.597  12.756  22.880  0.00  0.00    +0.000 HD
ENDBRANCH   3   5
BRANCH   2  15
ATOM     15  C   UNL     1       2.619   4.860  19.276  0.00  0.00    +0.000 C 
ATOM     16  C   UNL     1       1.590   3.882  18.639  0.00  0.00    +0.000 C 
ATOM     17  C   UNL     1       1.861   2.434  19.039  0.00  0.00    +0.000 C 
ATOM     18  O   UNL     1       1.777   2.287  20.452  0.00  0.00    +0.000 OA
ATOM     19  C   UNL     1       2.737   3.085  21.133  0.00  0.00    +0.000 C 
ATOM     20  C   UNL     1       2.528   4.557  20.811  0.00  0.00    +0.000 C 
BRANCH  15  21
ATOM     21  C   UNL     1       4.061   4.736  18.721  0.00  0.00    +0.000 A 
ATOM     22  C   UNL     1       5.174   5.175  19.470  0.00  0.00    +0.000 A 
ATOM     23  C   UNL     1       6.477   5.099  18.965  0.00  0.00    +0.000 A 
ATOM     24  C   UNL     1       6.689   4.605  17.687  0.00  0.00    +0.000 A 
ATOM     25  F   UNL     1       7.934   4.543  17.200  0.00  0.00    +0.000 F 
ATOM     26  C   UNL     1       5.624   4.194  16.907  0.00  0.00    +0.000 A 
ATOM     27  C   UNL     1       4.329   4.275  17.419  0.00  0.00    +0.000 A 
ATOM     28  F   UNL     1       3.331   3.912  16.603  0.00  0.00    +0.000 F 
ENDBRANCH  15  21
ENDBRANCH   2  15
TORSDOF 3
ENDMDL
MODEL 5
REMARK VINA RESULT:      -8.8      2.294      3.783
REMARK  Name = 
REMARK  3 active torsions:
REMARK  status: ('A' for Active; 'I' for Inactive)
REMARK    1  A    between atoms: C_2  and  C_13
REMARK    2  A    between atoms: N_3  and  C_4
REMARK    3  A    between atoms: C_13  and  C_14
REMARK                            x       y       z     vdW  Elec       q    Type
REMARK                         _______ _______ _______ _____ _____    ______ ____
ROOT
ATOM      1  O   UNL     1       1.417   5.624  17.863  0.00  0.00    +0.000 OA
ATOM      2  C   UNL     1       2.447   5.699  18.538  0.00  0.00    +0.000 C 
ATOM      3  N   UNL     1       2.718   6.723  19.431  0.00  0.00    +0.000 N 
ATOM      4  H   UNL     1       3.645   6.770  19.830  0.00  0.00    +0.000 HD
ENDROOT
BRANCH   3   5
ATOM      5  C   UNL     1       1.891   7.850  19.695  0.00  0.00    +0.000 A 
ATOM      6  C   UNL     1       1.687   8.887  18.722  0.00  0.00    +0.000 A 
ATOM      7  C   UNL     1       0.920  10.055  18.933  0.00  0.00    +0.000 A 
ATOM      8  C   UNL     1       0.390  10.069  20.212  0.00  0.00    +0.000 A 
ATOM      9  C   UNL     1      -0.366  11.073  20.747  0.00  0.00    +0.000 A 
ATOM     10  N   UNL     1      -0.638  10.655  22.017  0.00  0.00    +0.000 N 
ATOM     11  N   UNL     1      -0.127   9.445  22.329  0.00  0.00    +0.000 NA
ATOM     12  C   UNL     1       0.533   9.057  21.224  0.00  0.00    +0.000 A 
ATOM     13  C   UNL     1       1.282   7.892  20.974  0.00  0.00    +0.000 A 
ATOM     14  H   UNL     1      -1.166  11.146  22.730  0.00  0.00    +0.000 HD
ENDBRANCH   3   5
BRANCH   2  15
ATOM     15  C   UNL     1       3.503   4.550  18.453  0.00  0.00    +0.000 C 
ATOM     16  C   UNL     1       3.206   3.542  17.304  0.00  0.00    +0.000 C 
ATOM     17  C   UNL     1       4.067   2.287  17.414  0.00  0.00    +0.000 C 
ATOM     18  O   UNL     1       3.817   1.621  18.646  0.00  0.00    +0.000 OA
ATOM     19  C   UNL     1       4.134   2.433  19.770  0.00  0.00    +0.000 C 
ATOM     20  C   UNL     1       3.301   3.705  19.759  0.00  0.00    +0.000 C 
BRANCH  15  21
ATOM     21  C   UNL     1       4.898   5.223  18.380  0.00  0.00    +0.000 A 
ATOM     22  C   UNL     1       5.839   5.070  19.421  0.00  0.00    +0.000 A 
ATOM     23  C   UNL     1       7.088   5.700  19.380  0.00  0.00    +0.000 A 
ATOM     24  C   UNL     1       7.409   6.519  18.309  0.00  0.00    +0.000 A 
ATOM     25  F   UNL     1       8.598   7.131  18.277  0.00  0.00    +0.000 F 
ATOM     26  C   UNL     1       6.503   6.722  17.284  0.00  0.00    +0.000 A 
ATOM     27  C   UNL     1       5.261   6.090  17.333  0.00  0.00    +0.000 A 
ATOM     28  F   UNL     1       4.403   6.362  16.342  0.00  0.00    +0.000 F 
ENDBRANCH  15  21
ENDBRANCH   2  15
TORSDOF 3
ENDMDL
MODEL 6
REMARK VINA RESULT:      -8.8      2.174      3.809
REMARK  Name = 
REMARK  3 active torsions:
REMARK  status: ('A' for Active; 'I' for Inactive)
REMARK    1  A    between atoms: C_2  and  C_13
REMARK    2  A    between atoms: N_3  and  C_4
REMARK    3  A    between atoms: C_13  and  C_14
REMARK                            x       y       z     vdW  Elec       q    Type
REMARK                         _______ _______ _______ _____ _____    ______ ____
ROOT
ATOM      1  O   UNL     1       2.745   7.132  17.922  0.00  0.00    +0.000 OA
ATOM      2  C   UNL     1       2.531   6.378  18.874  0.00  0.00    +0.000 C 
ATOM      3  N   UNL     1       1.952   6.777  20.068  0.00  0.00    +0.000 N 
ATOM      4  H   UNL     1       1.948   6.120  20.836  0.00  0.00    +0.000 HD
ENDROOT
BRANCH   3   5
ATOM      5  C   UNL     1       1.544   8.097  20.404  0.00  0.00    +0.000 A 
ATOM      6  C   UNL     1       1.293   8.493  21.762  0.00  0.00    +0.000 A 
ATOM      7  C   UNL     1       0.839   9.770  22.163  0.00  0.00    +0.000 A 
ATOM      8  C   UNL     1       0.665  10.595  21.064  0.00  0.00    +0.000 A 
ATOM      9  C   UNL     1       0.200  11.879  21.102  0.00  0.00    +0.000 A 
ATOM     10  N   UNL     1       0.182  12.273  19.796  0.00  0.00    +0.000 N 
ATOM     11  N   UNL     1       0.621  11.340  18.925  0.00  0.00    +0.000 NA
ATOM     12  C   UNL     1       0.920  10.273  19.686  0.00  0.00    +0.000 A 
ATOM     13  C   UNL     1       1.396   9.000  19.321  0.00  0.00    +0.000 A 
ATOM     14  H   UNL     1      -0.121  13.166  19.423  0.00  0.00    +0.000 HD
ENDBRANCH   3   5
BRANCH   2  15
ATOM     15  C   UNL     1       2.861   4.856  18.734  0.00  0.00    +0.000 C 
ATOM     16  C   UNL     1       1.681   4.036  18.136  0.00  0.00    +0.000 C 
ATOM     17  C   UNL     1       1.908   2.533  18.272  0.00  0.00    +0.000 C 
ATOM     18  O   UNL     1       2.032   2.173  19.643  0.00  0.00    +0.000 OA
ATOM     19  C   UNL     1       3.138   2.811  20.270  0.00  0.00    +0.000 C 
ATOM     20  C   UNL     1       2.986   4.324  20.203  0.00  0.00    +0.000 C 
BRANCH  15  21
ATOM     21  C   UNL     1       4.189   4.753  17.941  0.00  0.00    +0.000 A 
ATOM     22  C   UNL     1       4.224   4.210  16.638  0.00  0.00    +0.000 A 
ATOM     23  C   UNL     1       5.422   4.081  15.927  0.00  0.00    +0.000 A 
ATOM     24  C   UNL     1       6.614   4.470  16.516  0.00  0.00    +0.000 A 
ATOM     25  F   UNL     1       7.761   4.336  15.840  0.00  0.00    +0.000 F 
ATOM     26  C   UNL     1       6.630   4.978  17.803  0.00  0.00    +0.000 A 
ATOM     27  C   UNL     1       5.430   5.101  18.504  0.00  0.00    +0.000 A 
ATOM     28  F   UNL     1       5.509   5.550  19.763  0.00  0.00    +0.000 F 
ENDBRANCH  15  21
ENDBRANCH   2  15
TORSDOF 3
ENDMDL
MODEL 7
REMARK VINA RESULT:      -8.7      0.933      1.325
REMARK  Name = 
REMARK  3 active torsions:
REMARK  status: ('A' for Active; 'I' for Inactive)
REMARK    1  A    between atoms: C_2  and  C_13
REMARK    2  A    between atoms: N_3  and  C_4
REMARK    3  A    between atoms: C_13  and  C_14
REMARK                            x       y       z     vdW  Elec       q    Type
REMARK                         _______ _______ _______ _____ _____    ______ ____
ROOT
ATOM      1  O   UNL     1       4.256   7.493  16.620  0.00  0.00    +0.000 OA
ATOM      2  C   UNL     1       4.242   6.659  17.528  0.00  0.00    +0.000 C 
ATOM      3  N   UNL     1       3.376   6.700  18.608  0.00  0.00    +0.000 N 
ATOM      4  H   UNL     1       3.536   6.054  19.369  0.00  0.00    +0.000 HD
ENDROOT
BRANCH   3   5
ATOM      5  C   UNL     1       2.399   7.701  18.865  0.00  0.00    +0.000 A 
ATOM      6  C   UNL     1       1.928   8.586  17.836  0.00  0.00    +0.000 A 
ATOM      7  C   UNL     1       0.998   9.632  18.030  0.00  0.00    +0.000 A 
ATOM      8  C   UNL     1       0.599   9.693  19.355  0.00  0.00    +0.000 A 
ATOM      9  C   UNL     1      -0.262  10.612  19.883  0.00  0.00    +0.000 A 
ATOM     10  N   UNL     1      -0.334  10.290  21.206  0.00  0.00    +0.000 N 
ATOM     11  N   UNL     1       0.403   9.217  21.562  0.00  0.00    +0.000 NA
ATOM     12  C   UNL     1       1.009   8.827  20.428  0.00  0.00    +0.000 A 
ATOM     13  C   UNL     1       1.918   7.777  20.196  0.00  0.00    +0.000 A 
ATOM     14  H   UNL     1      -0.866  10.762  21.930  0.00  0.00    +0.000 HD
ENDBRANCH   3   5
BRANCH   2  15
ATOM     15  C   UNL     1       5.206   5.430  17.453  0.00  0.00    +0.000 C 
ATOM     16  C   UNL     1       6.573   5.693  18.148  0.00  0.00    +0.000 C 
ATOM     17  C   UNL     1       7.594   4.607  17.821  0.00  0.00    +0.000 C 
ATOM     18  O   UNL     1       7.828   4.552  16.418  0.00  0.00    +0.000 OA
ATOM     19  C   UNL     1       6.648   4.237  15.688  0.00  0.00    +0.000 C 
ATOM     20  C   UNL     1       5.574   5.286  15.935  0.00  0.00    +0.000 C 
BRANCH  15  21
ATOM     21  C   UNL     1       4.424   4.209  18.002  0.00  0.00    +0.000 A 
ATOM     22  C   UNL     1       4.723   3.657  19.266  0.00  0.00    +0.000 A 
ATOM     23  C   UNL     1       4.046   2.534  19.757  0.00  0.00    +0.000 A 
ATOM     24  C   UNL     1       3.074   1.926  18.979  0.00  0.00    +0.000 A 
ATOM     25  F   UNL     1       2.435   0.845  19.443  0.00  0.00    +0.000 F 
ATOM     26  C   UNL     1       2.772   2.415  17.721  0.00  0.00    +0.000 A 
ATOM     27  C   UNL     1       3.453   3.533  17.241  0.00  0.00    +0.000 A 
ATOM     28  F   UNL     1       3.158   3.933  15.997  0.00  0.00    +0.000 F 
ENDBRANCH  15  21
ENDBRANCH   2  15
TORSDOF 3
ENDMDL
MODEL 8
REMARK VINA RESULT:      -8.7      2.192      3.759
REMARK  Name = 
REMARK  3 active torsions:
REMARK  status: ('A' for Active; 'I' for Inactive)
REMARK    1  A    between atoms: C_2  and  C_13
REMARK    2  A    between atoms: N_3  and  C_4
REMARK    3  A    between atoms: C_13  and  C_14
REMARK                            x       y       z     vdW  Elec       q    Type
REMARK                         _______ _______ _______ _____ _____    ______ ____
ROOT
ATOM      1  O   UNL     1       1.515   5.304  17.666  0.00  0.00    +0.000 OA
ATOM      2  C   UNL     1       2.505   5.229  18.398  0.00  0.00    +0.000 C 
ATOM      3  N   UNL     1       2.824   6.162  19.372  0.00  0.00    +0.000 N 
ATOM      4  H   UNL     1       3.726   6.088  19.822  0.00  0.00    +0.000 HD
ENDROOT
BRANCH   3   5
ATOM      5  C   UNL     1       2.100   7.349  19.669  0.00  0.00    +0.000 A 
ATOM      6  C   UNL     1       1.419   7.533  20.920  0.00  0.00    +0.000 A 
ATOM      7  C   UNL     1       0.643   8.664  21.262  0.00  0.00    +0.000 A 
ATOM      8  C   UNL     1       0.623   9.576  20.221  0.00  0.00    +0.000 A 
ATOM      9  C   UNL     1      -0.065  10.756  20.214  0.00  0.00    +0.000 A 
ATOM     10  N   UNL     1       0.200  11.297  18.990  0.00  0.00    +0.000 N 
ATOM     11  N   UNL     1       1.026  10.559  18.219  0.00  0.00    +0.000 NA
ATOM     12  C   UNL     1       1.299   9.469  18.956  0.00  0.00    +0.000 A 
ATOM     13  C   UNL     1       2.086   8.341  18.656  0.00  0.00    +0.000 A 
ATOM     14  H   UNL     1      -0.152  12.169  18.609  0.00  0.00    +0.000 HD
ENDBRANCH   3   5
BRANCH   2  15
ATOM     15  C   UNL     1       3.445   3.985  18.290  0.00  0.00    +0.000 C 
ATOM     16  C   UNL     1       2.682   2.686  17.897  0.00  0.00    +0.000 C 
ATOM     17  C   UNL     1       3.548   1.443  18.076  0.00  0.00    +0.000 C 
ATOM     18  O   UNL     1       3.951   1.310  19.434  0.00  0.00    +0.000 OA
ATOM     19  C   UNL     1       4.729   2.417  19.874  0.00  0.00    +0.000 C 
ATOM     20  C   UNL     1       3.933   3.707  19.755  0.00  0.00    +0.000 C 
BRANCH  15  21
ATOM     21  C   UNL     1       4.601   4.372  17.333  0.00  0.00    +0.000 A 
ATOM     22  C   UNL     1       4.616   3.938  15.990  0.00  0.00    +0.000 A 
ATOM     23  C   UNL     1       5.671   4.254  15.127  0.00  0.00    +0.000 A 
ATOM     24  C   UNL     1       6.746   4.991  15.599  0.00  0.00    +0.000 A 
ATOM     25  F   UNL     1       7.761   5.283  14.777  0.00  0.00    +0.000 F 
ATOM     26  C   UNL     1       6.787   5.409  16.917  0.00  0.00    +0.000 A 
ATOM     27  C   UNL     1       5.730   5.088  17.770  0.00  0.00    +0.000 A 
ATOM     28  F   UNL     1       5.845   5.473  19.047  0.00  0.00    +0.000 F 
ENDBRANCH  15  21
ENDBRANCH   2  15
TORSDOF 3
ENDMDL
MODEL 9
REMARK VINA RESULT:      -8.6      2.062      3.592
REMARK  Name = 
REMARK  3 active torsions:
REMARK  status: ('A' for Active; 'I' for Inactive)
REMARK    1  A    between atoms: C_2  and  C_13
REMARK    2  A    between atoms: N_3  and  C_4
REMARK    3  A    between atoms: C_13  and  C_14
REMARK                            x       y       z     vdW  Elec       q    Type
REMARK                         _______ _______ _______ _____ _____    ______ ____
ROOT
ATOM      1  O   UNL     1       2.760   7.181  17.755  0.00  0.00    +0.000 OA
ATOM      2  C   UNL     1       2.484   6.479  18.731  0.00  0.00    +0.000 C 
ATOM      3  N   UNL     1       1.814   6.938  19.853  0.00  0.00    +0.000 N 
ATOM      4  H   UNL     1       1.760   6.326  20.656  0.00  0.00    +0.000 HD
ENDROOT
BRANCH   3   5
ATOM      5  C   UNL     1       1.367   8.269  20.080  0.00  0.00    +0.000 A 
ATOM      6  C   UNL     1       1.419   9.274  19.055  0.00  0.00    +0.000 A 
ATOM      7  C   UNL     1       1.038  10.624  19.225  0.00  0.00    +0.000 A 
ATOM      8  C   UNL     1       0.607  10.852  20.521  0.00  0.00    +0.000 A 
ATOM      9  C   UNL     1       0.206  12.058  21.023  0.00  0.00    +0.000 A 
ATOM     10  N   UNL     1      -0.104  11.798  22.326  0.00  0.00    +0.000 N 
ATOM     11  N   UNL     1       0.050  10.507  22.690  0.00  0.00    +0.000 NA
ATOM     12  C   UNL     1       0.506   9.891  21.586  0.00  0.00    +0.000 A 
ATOM     13  C   UNL     1       0.868   8.547  21.378  0.00  0.00    +0.000 A 
ATOM     14  H   UNL     1      -0.425  12.455  23.028  0.00  0.00    +0.000 HD
ENDBRANCH   3   5
BRANCH   2  15
ATOM     15  C   UNL     1       2.841   4.957  18.705  0.00  0.00    +0.000 C 
ATOM     16  C   UNL     1       1.684   4.077  18.149  0.00  0.00    +0.000 C 
ATOM     17  C   UNL     1       1.932   2.592  18.396  0.00  0.00    +0.000 C 
ATOM     18  O   UNL     1       2.038   2.332  19.791  0.00  0.00    +0.000 OA
ATOM     19  C   UNL     1       3.124   3.032  20.387  0.00  0.00    +0.000 C 
ATOM     20  C   UNL     1       2.949   4.533  20.211  0.00  0.00    +0.000 C 
BRANCH  15  21
ATOM     21  C   UNL     1       4.183   4.821  17.942  0.00  0.00    +0.000 A 
ATOM     22  C   UNL     1       4.239   4.237  16.658  0.00  0.00    +0.000 A 
ATOM     23  C   UNL     1       5.451   4.078  15.975  0.00  0.00    +0.000 A 
ATOM     24  C   UNL     1       6.634   4.477  16.576  0.00  0.00    +0.000 A 
ATOM     25  F   UNL     1       7.793   4.315  15.928  0.00  0.00    +0.000 F 
ATOM     26  C   UNL     1       6.628   5.025  17.846  0.00  0.00    +0.000 A 
ATOM     27  C   UNL     1       5.416   5.178  18.519  0.00  0.00    +0.000 A 
ATOM     28  F   UNL     1       5.472   5.665  19.766  0.00  0.00    +0.000 F 
ENDBRANCH  15  21
ENDBRANCH   2  15
TORSDOF 3
ENDMDL
