MODEL 1
REMARK VINA RESULT:      -9.4      0.000      0.000
REMARK  Name = 
REMARK  5 active torsions:
REMARK  status: ('A' for Active; 'I' for Inactive)
REMARK    1  A    between atoms: C_2  and  C_4
REMARK    2  A    between atoms: C_8  and  C_9
REMARK    3  A    between atoms: C_9  and  C_10
REMARK    4  A    between atoms: C_13  and  C_14
REMARK    5  A    between atoms: C_14  and  C_15
REMARK                            x       y       z     vdW  Elec       q    Type
REMARK                         _______ _______ _______ _____ _____    ______ ____
ROOT
ATOM      1  C   UNL     1       2.360   8.306  18.488  0.00  0.00    +0.000 A 
ATOM      2  N   UNL     1       1.813   7.955  19.661  0.00  0.00    +0.000 NA
ATOM      3  O   UNL     1       2.172   6.615  19.801  0.00  0.00    +0.000 OA
ATOM      4  C   UNL     1       2.872   6.275  18.675  0.00  0.00    +0.000 A 
ATOM      5  N   UNL     1       3.037   7.288  17.850  0.00  0.00    +0.000 NA
ENDROOT
BRANCH   4   6
ATOM      6  C   UNL     1       3.198   4.812  18.495  0.00  0.00    +0.000 C 
ATOM      7  C   UNL     1       2.079   4.090  17.693  0.00  0.00    +0.000 C 
ATOM      8  C   UNL     1       2.146   2.622  18.119  0.00  0.00    +0.000 C 
ATOM      9  C   UNL     1       2.773   2.613  19.508  0.00  0.00    +0.000 C 
ATOM     10  C   UNL     1       3.019   4.080  19.855  0.00  0.00    +0.000 C 
BRANCH   6  11
ATOM     11  C   UNL     1       4.565   4.603  17.816  0.00  0.00    +0.000 A 
ATOM     12  C   UNL     1       4.696   4.172  16.483  0.00  0.00    +0.000 A 
ATOM     13  C   UNL     1       5.946   4.080  15.871  0.00  0.00    +0.000 A 
ATOM     14  F   UNL     1       6.018   3.707  14.586  0.00  0.00    +0.000 F 
ATOM     15  C   UNL     1       7.107   4.382  16.559  0.00  0.00    +0.000 A 
ATOM     16  C   UNL     1       7.001   4.774  17.885  0.00  0.00    +0.000 A 
ATOM     17  F   UNL     1       8.114   5.069  18.569  0.00  0.00    +0.000 F 
ATOM     18  C   UNL     1       5.758   4.884  18.514  0.00  0.00    +0.000 A 
ENDBRANCH   6  11
ENDBRANCH   4   6
BRANCH   1  19
ATOM     19  C   UNL     1       2.054   9.596  17.819  0.00  0.00    +0.000 C 
BRANCH  19  24
ATOM     20  C   UNL     1      -1.538  10.670  18.551  0.00  0.00    +0.000 A 
ATOM     21  C   UNL     1      -1.416  11.179  19.850  0.00  0.00    +0.000 A 
ATOM     22  C   UNL     1      -0.161  11.241  20.457  0.00  0.00    +0.000 A 
ATOM     23  C   UNL     1       0.969  10.774  19.780  0.00  0.00    +0.000 A 
ATOM     24  C   UNL     1       0.857  10.220  18.496  0.00  0.00    +0.000 A 
ATOM     25  C   UNL     1      -0.406  10.184  17.884  0.00  0.00    +0.000 A 
BRANCH  20  27
ATOM     26  N   UNL     1      -3.354  11.755  17.348  0.00  0.00    +0.000 N 
ATOM     27  C   UNL     1      -2.856  10.593  17.865  0.00  0.00    +0.000 C 
ATOM     28  O   UNL     1      -3.452   9.535  17.734  0.00  0.00    +0.000 OA
ATOM     29  H   UNL     1      -4.191  11.672  16.783  0.00  0.00    +0.000 HD
ATOM     30  H   UNL     1      -2.780  12.576  17.211  0.00  0.00    +0.000 HD
ENDBRANCH  20  27
ENDBRANCH  19  24
ENDBRANCH   1  19
TORSDOF 5
ENDMDL
MODEL 2
REMARK VINA RESULT:      -9.3      1.704      2.137
REMARK  Name = 
REMARK  5 active torsions:
REMARK  status: ('A' for Active; 'I' for Inactive)
REMARK    1  A    between atoms: C_2  and  C_4
REMARK    2  A    between atoms: C_8  and  C_9
REMARK    3  A    between atoms: C_9  and  C_10
REMARK    4  A    between atoms: C_13  and  C_14
REMARK    5  A    between atoms: C_14  and  C_15
REMARK                            x       y       z     vdW  Elec       q    Type
REMARK                         _______ _______ _______ _____ _____    ______ ____
ROOT
ATOM      1  C   UNL     1       2.308   8.272  18.489  0.00  0.00    +0.000 A 
ATOM      2  N   UNL     1       1.835   7.912  19.691  0.00  0.00    +0.000 NA
ATOM      3  O   UNL     1       2.225   6.578  19.809  0.00  0.00    +0.000 OA
ATOM      4  C   UNL     1       2.865   6.249  18.644  0.00  0.00    +0.000 A 
ATOM      5  N   UNL     1       2.965   7.266  17.812  0.00  0.00    +0.000 NA
ENDROOT
BRANCH   4   6
ATOM      6  C   UNL     1       3.205   4.792  18.444  0.00  0.00    +0.000 C 
ATOM      7  C   UNL     1       2.107   4.077  17.609  0.00  0.00    +0.000 C 
ATOM      8  C   UNL     1       2.177   2.603  18.009  0.00  0.00    +0.000 C 
ATOM      9  C   UNL     1       2.778   2.573  19.410  0.00  0.00    +0.000 C 
ATOM     10  C   UNL     1       3.007   4.035  19.787  0.00  0.00    +0.000 C 
BRANCH   6  11
ATOM     11  C   UNL     1       4.586   4.606  17.787  0.00  0.00    +0.000 A 
ATOM     12  C   UNL     1       4.745   4.217  16.444  0.00  0.00    +0.000 A 
ATOM     13  C   UNL     1       6.007   4.145  15.856  0.00  0.00    +0.000 A 
ATOM     14  F   UNL     1       6.105   3.812  14.562  0.00  0.00    +0.000 F 
ATOM     15  C   UNL     1       7.154   4.425  16.576  0.00  0.00    +0.000 A 
ATOM     16  C   UNL     1       7.020   4.776  17.912  0.00  0.00    +0.000 A 
ATOM     17  F   UNL     1       8.119   5.049  18.627  0.00  0.00    +0.000 F 
ATOM     18  C   UNL     1       5.765   4.865  18.518  0.00  0.00    +0.000 A 
ENDBRANCH   6  11
ENDBRANCH   4   6
BRANCH   1  19
ATOM     19  C   UNL     1       1.943   9.556  17.840  0.00  0.00    +0.000 C 
BRANCH  19  24
ATOM     20  C   UNL     1      -0.256  11.466  20.311  0.00  0.00    +0.000 A 
ATOM     21  C   UNL     1      -1.515  11.356  19.705  0.00  0.00    +0.000 A 
ATOM     22  C   UNL     1      -1.661  10.604  18.540  0.00  0.00    +0.000 A 
ATOM     23  C   UNL     1      -0.551   9.980  17.964  0.00  0.00    +0.000 A 
ATOM     24  C   UNL     1       0.724  10.118  18.532  0.00  0.00    +0.000 A 
ATOM     25  C   UNL     1       0.857  10.857  19.719  0.00  0.00    +0.000 A 
BRANCH  20  27
ATOM     26  N   UNL     1      -0.888  11.972  22.606  0.00  0.00    +0.000 N 
ATOM     27  C   UNL     1      -0.058  12.253  21.559  0.00  0.00    +0.000 C 
ATOM     28  O   UNL     1       0.828  13.087  21.659  0.00  0.00    +0.000 OA
ATOM     29  H   UNL     1      -0.670  12.427  23.484  0.00  0.00    +0.000 HD
ATOM     30  H   UNL     1      -1.445  11.128  22.644  0.00  0.00    +0.000 HD
ENDBRANCH  20  27
ENDBRANCH  19  24
ENDBRANCH   1  19
TORSDOF 5
ENDMDL
MODEL 3
REMARK VINA RESULT:      -9.2      1.741      2.642
REMARK  Name = 
REMARK  5 active torsions:
REMARK  status: ('A' for Active; 'I' for Inactive)
REMARK    1  A    between atoms: C_2  and  C_4
REMARK    2  A    between atoms: C_8  and  C_9
REMARK    3  A    between atoms: C_9  and  C_10
REMARK    4  A    between atoms: C_13  and  C_14
REMARK    5  A    between atoms: C_14  and  C_15
REMARK                            x       y       z     vdW  Elec       q    Type
REMARK                         _______ _______ _______ _____ _____    ______ ____
ROOT
ATOM      1  C   UNL     1       2.386   8.252  18.480  0.00  0.00    +0.000 A 
ATOM      2  N   UNL     1       1.882   7.829  19.648  0.00  0.00    +0.000 NA
ATOM      3  O   UNL     1       2.286   6.496  19.714  0.00  0.00    +0.000 OA
ATOM      4  C   UNL     1       2.965   6.232  18.555  0.00  0.00    +0.000 A 
ATOM      5  N   UNL     1       3.076   7.288  17.776  0.00  0.00    +0.000 NA
ENDROOT
BRANCH   4   6
ATOM      6  C   UNL     1       3.331   4.791  18.296  0.00  0.00    +0.000 C 
ATOM      7  C   UNL     1       2.184   4.053  17.552  0.00  0.00    +0.000 C 
ATOM      8  C   UNL     1       2.337   2.575  17.915  0.00  0.00    +0.000 C 
ATOM      9  C   UNL     1       3.066   2.543  19.254  0.00  0.00    +0.000 C 
ATOM     10  C   UNL     1       3.282   4.005  19.637  0.00  0.00    +0.000 C 
BRANCH   6  11
ATOM     11  C   UNL     1       4.651   4.661  17.512  0.00  0.00    +0.000 A 
ATOM     12  C   UNL     1       5.913   4.698  18.133  0.00  0.00    +0.000 A 
ATOM     13  C   UNL     1       7.085   4.487  17.405  0.00  0.00    +0.000 A 
ATOM     14  F   UNL     1       8.260   4.488  18.048  0.00  0.00    +0.000 F 
ATOM     15  C   UNL     1       7.053   4.263  16.041  0.00  0.00    +0.000 A 
ATOM     16  C   UNL     1       5.821   4.260  15.405  0.00  0.00    +0.000 A 
ATOM     17  F   UNL     1       5.770   4.047  14.083  0.00  0.00    +0.000 F 
ATOM     18  C   UNL     1       4.635   4.457  16.116  0.00  0.00    +0.000 A 
ENDBRANCH   6  11
ENDBRANCH   4   6
BRANCH   1  19
ATOM     19  C   UNL     1       2.022   9.562  17.882  0.00  0.00    +0.000 C 
BRANCH  19  24
ATOM     20  C   UNL     1      -0.303  11.305  20.361  0.00  0.00    +0.000 A 
ATOM     21  C   UNL     1      -1.535  11.210  19.700  0.00  0.00    +0.000 A 
ATOM     22  C   UNL     1      -1.623  10.519  18.491  0.00  0.00    +0.000 A 
ATOM     23  C   UNL     1      -0.481   9.944  17.927  0.00  0.00    +0.000 A 
ATOM     24  C   UNL     1       0.768  10.068  18.554  0.00  0.00    +0.000 A 
ATOM     25  C   UNL     1       0.842  10.744  19.782  0.00  0.00    +0.000 A 
BRANCH  20  27
ATOM     26  N   UNL     1      -0.823  11.496  22.731  0.00  0.00    +0.000 N 
ATOM     27  C   UNL     1      -0.168  12.026  21.656  0.00  0.00    +0.000 C 
ATOM     28  O   UNL     1       0.527  13.024  21.765  0.00  0.00    +0.000 OA
ATOM     29  H   UNL     1      -0.630  11.925  23.628  0.00  0.00    +0.000 HD
ATOM     30  H   UNL     1      -1.182  10.551  22.734  0.00  0.00    +0.000 HD
ENDBRANCH  20  27
ENDBRANCH  19  24
ENDBRANCH   1  19
TORSDOF 5
ENDMDL
MODEL 4
REMARK VINA RESULT:      -9.2      0.112      1.551
REMARK  Name = 
REMARK  5 active torsions:
REMARK  status: ('A' for Active; 'I' for Inactive)
REMARK    1  A    between atoms: C_2  and  C_4
REMARK    2  A    between atoms: C_8  and  C_9
REMARK    3  A    between atoms: C_9  and  C_10
REMARK    4  A    between atoms: C_13  and  C_14
REMARK    5  A    between atoms: C_14  and  C_15
REMARK                            x       y       z     vdW  Elec       q    Type
REMARK                         _______ _______ _______ _____ _____    ______ ____
ROOT
ATOM      1  C   UNL     1       2.336   8.397  18.519  0.00  0.00    +0.000 A 
ATOM      2  N   UNL     1       1.749   8.002  19.659  0.00  0.00    +0.000 NA
ATOM      3  O   UNL     1       2.125   6.664  19.773  0.00  0.00    +0.000 OA
ATOM      4  C   UNL     1       2.873   6.368  18.666  0.00  0.00    +0.000 A 
ATOM      5  N   UNL     1       3.053   7.409  17.878  0.00  0.00    +0.000 NA
ENDROOT
BRANCH   4   6
ATOM      6  C   UNL     1       3.229   4.917  18.454  0.00  0.00    +0.000 C 
ATOM      7  C   UNL     1       2.121   4.187  17.647  0.00  0.00    +0.000 C 
ATOM      8  C   UNL     1       2.223   2.713  18.042  0.00  0.00    +0.000 C 
ATOM      9  C   UNL     1       2.860   2.690  19.427  0.00  0.00    +0.000 C 
ATOM     10  C   UNL     1       3.076   4.155  19.801  0.00  0.00    +0.000 C 
BRANCH   6  11
ATOM     11  C   UNL     1       4.596   4.752  17.762  0.00  0.00    +0.000 A 
ATOM     12  C   UNL     1       5.817   4.971  18.426  0.00  0.00    +0.000 A 
ATOM     13  C   UNL     1       7.037   4.726  17.796  0.00  0.00    +0.000 A 
ATOM     14  F   UNL     1       8.173   4.907  18.483  0.00  0.00    +0.000 F 
ATOM     15  C   UNL     1       7.095   4.285  16.487  0.00  0.00    +0.000 A 
ATOM     16  C   UNL     1       5.902   4.098  15.804  0.00  0.00    +0.000 A 
ATOM     17  F   UNL     1       5.937   3.673  14.535  0.00  0.00    +0.000 F 
ATOM     18  C   UNL     1       4.669   4.326  16.419  0.00  0.00    +0.000 A 
ENDBRANCH   6  11
ENDBRANCH   4   6
BRANCH   1  19
ATOM     19  C   UNL     1       2.035   9.702  17.878  0.00  0.00    +0.000 C 
BRANCH  19  24
ATOM     20  C   UNL     1      -1.591  10.689  18.561  0.00  0.00    +0.000 A 
ATOM     21  C   UNL     1      -1.500  11.198  19.863  0.00  0.00    +0.000 A 
ATOM     22  C   UNL     1      -0.256  11.288  20.488  0.00  0.00    +0.000 A 
ATOM     23  C   UNL     1       0.894  10.850  19.826  0.00  0.00    +0.000 A 
ATOM     24  C   UNL     1       0.814  10.296  18.540  0.00  0.00    +0.000 A 
ATOM     25  C   UNL     1      -0.439  10.232  17.910  0.00  0.00    +0.000 A 
BRANCH  20  27
ATOM     26  N   UNL     1      -3.393  11.724  17.294  0.00  0.00    +0.000 N 
ATOM     27  C   UNL     1      -2.898  10.582  17.857  0.00  0.00    +0.000 C 
ATOM     28  O   UNL     1      -3.486   9.517  17.751  0.00  0.00    +0.000 OA
ATOM     29  H   UNL     1      -4.220  11.618  16.719  0.00  0.00    +0.000 HD
ATOM     30  H   UNL     1      -2.821  12.543  17.140  0.00  0.00    +0.000 HD
ENDBRANCH  20  27
ENDBRANCH  19  24
ENDBRANCH   1  19
TORSDOF 5
ENDMDL
MODEL 5
REMARK VINA RESULT:      -9.1      1.012      1.924
REMARK  Name = 
REMARK  5 active torsions:
REMARK  status: ('A' for Active; 'I' for Inactive)
REMARK    1  A    between atoms: C_2  and  C_4
REMARK    2  A    between atoms: C_8  and  C_9
REMARK    3  A    between atoms: C_9  and  C_10
REMARK    4  A    between atoms: C_13  and  C_14
REMARK    5  A    between atoms: C_14  and  C_15
REMARK                            x       y       z     vdW  Elec       q    Type
REMARK                         _______ _______ _______ _____ _____    ______ ____
ROOT
ATOM      1  C   UNL     1       1.861   7.847  19.510  0.00  0.00    +0.000 A 
ATOM      2  N   UNL     1       2.468   8.209  18.370  0.00  0.00    +0.000 NA
ATOM      3  O   UNL     1       2.921   7.000  17.844  0.00  0.00    +0.000 OA
ATOM      4  C   UNL     1       2.578   6.025  18.742  0.00  0.00    +0.000 A 
ATOM      5  N   UNL     1       1.900   6.494  19.770  0.00  0.00    +0.000 NA
ENDROOT
BRANCH   4   6
ATOM      6  C   UNL     1       3.140   4.646  18.496  0.00  0.00    +0.000 C 
ATOM      7  C   UNL     1       2.205   3.824  17.567  0.00  0.00    +0.000 C 
ATOM      8  C   UNL     1       2.472   2.356  17.903  0.00  0.00    +0.000 C 
ATOM      9  C   UNL     1       2.998   2.340  19.334  0.00  0.00    +0.000 C 
ATOM     10  C   UNL     1       2.988   3.798  19.790  0.00  0.00    +0.000 C 
BRANCH   6  11
ATOM     11  C   UNL     1       4.566   4.699  17.914  0.00  0.00    +0.000 A 
ATOM     12  C   UNL     1       5.687   5.072  18.678  0.00  0.00    +0.000 A 
ATOM     13  C   UNL     1       6.975   5.022  18.145  0.00  0.00    +0.000 A 
ATOM     14  F   UNL     1       8.016   5.345  18.924  0.00  0.00    +0.000 F 
ATOM     15  C   UNL     1       7.198   4.631  16.837  0.00  0.00    +0.000 A 
ATOM     16  C   UNL     1       6.101   4.295  16.057  0.00  0.00    +0.000 A 
ATOM     17  F   UNL     1       6.296   3.915  14.788  0.00  0.00    +0.000 F 
ATOM     18  C   UNL     1       4.804   4.326  16.575  0.00  0.00    +0.000 A 
ENDBRANCH   6  11
ENDBRANCH   4   6
BRANCH   1  19
ATOM     19  C   UNL     1       1.411   8.836  20.522  0.00  0.00    +0.000 C 
BRANCH  19  24
ATOM     20  C   UNL     1      -0.982  10.836  18.316  0.00  0.00    +0.000 A 
ATOM     21  C   UNL     1      -0.630  12.151  18.646  0.00  0.00    +0.000 A 
ATOM     22  C   UNL     1       0.428  12.388  19.525  0.00  0.00    +0.000 A 
ATOM     23  C   UNL     1       1.120  11.316  20.093  0.00  0.00    +0.000 A 
ATOM     24  C   UNL     1       0.751   9.992  19.808  0.00  0.00    +0.000 A 
ATOM     25  C   UNL     1      -0.299   9.764  18.904  0.00  0.00    +0.000 A 
BRANCH  20  27
ATOM     26  N   UNL     1      -2.241  11.371  16.303  0.00  0.00    +0.000 N 
ATOM     27  C   UNL     1      -2.099  10.541  17.378  0.00  0.00    +0.000 C 
ATOM     28  O   UNL     1      -2.834   9.579  17.537  0.00  0.00    +0.000 OA
ATOM     29  H   UNL     1      -2.926  11.095  15.611  0.00  0.00    +0.000 HD
ATOM     30  H   UNL     1      -1.509  12.004  16.008  0.00  0.00    +0.000 HD
ENDBRANCH  20  27
ENDBRANCH  19  24
ENDBRANCH   1  19
TORSDOF 5
ENDMDL
MODEL 6
REMARK VINA RESULT:      -9.0      1.468      1.878
REMARK  Name = 
REMARK  5 active torsions:
REMARK  status: ('A' for Active; 'I' for Inactive)
REMARK    1  A    between atoms: C_2  and  C_4
REMARK    2  A    between atoms: C_8  and  C_9
REMARK    3  A    between atoms: C_9  and  C_10
REMARK    4  A    between atoms: C_13  and  C_14
REMARK    5  A    between atoms: C_14  and  C_15
REMARK                            x       y       z     vdW  Elec       q    Type
REMARK                         _______ _______ _______ _____ _____    ______ ____
ROOT
ATOM      1  C   UNL     1       1.841   8.882  18.877  0.00  0.00    +0.000 A 
ATOM      2  N   UNL     1       1.434   8.583  20.120  0.00  0.00    +0.000 NA
ATOM      3  O   UNL     1       1.770   7.237  20.258  0.00  0.00    +0.000 OA
ATOM      4  C   UNL     1       2.315   6.842  19.066  0.00  0.00    +0.000 A 
ATOM      5  N   UNL     1       2.404   7.826  18.194  0.00  0.00    +0.000 NA
ENDROOT
BRANCH   4   6
ATOM      6  C   UNL     1       2.575   5.365  18.894  0.00  0.00    +0.000 C 
ATOM      7  C   UNL     1       1.585   4.744  17.870  0.00  0.00    +0.000 C 
ATOM      8  C   UNL     1       1.476   3.265  18.244  0.00  0.00    +0.000 C 
ATOM      9  C   UNL     1       1.826   3.177  19.725  0.00  0.00    +0.000 C 
ATOM     10  C   UNL     1       2.095   4.613  20.167  0.00  0.00    +0.000 C 
BRANCH   6  11
ATOM     11  C   UNL     1       4.030   5.079  18.476  0.00  0.00    +0.000 A 
ATOM     12  C   UNL     1       4.371   4.543  17.221  0.00  0.00    +0.000 A 
ATOM     13  C   UNL     1       5.703   4.380  16.840  0.00  0.00    +0.000 A 
ATOM     14  F   UNL     1       5.979   3.907  15.617  0.00  0.00    +0.000 F 
ATOM     15  C   UNL     1       6.740   4.712  17.692  0.00  0.00    +0.000 A 
ATOM     16  C   UNL     1       6.423   5.208  18.949  0.00  0.00    +0.000 A 
ATOM     17  F   UNL     1       7.414   5.533  19.790  0.00  0.00    +0.000 F 
ATOM     18  C   UNL     1       5.096   5.389  19.346  0.00  0.00    +0.000 A 
ENDBRANCH   6  11
ENDBRANCH   4   6
BRANCH   1  19
ATOM     19  C   UNL     1       1.490  10.161  18.210  0.00  0.00    +0.000 C 
BRANCH  19  24
ATOM     20  C   UNL     1      -1.918  11.595  19.169  0.00  0.00    +0.000 A 
ATOM     21  C   UNL     1      -2.768  10.890  18.308  0.00  0.00    +0.000 A 
ATOM     22  C   UNL     1      -2.247   9.902  17.472  0.00  0.00    +0.000 A 
ATOM     23  C   UNL     1      -0.876   9.632  17.476  0.00  0.00    +0.000 A 
ATOM     24  C   UNL     1      -0.004  10.360  18.300  0.00  0.00    +0.000 A 
ATOM     25  C   UNL     1      -0.541  11.336  19.156  0.00  0.00    +0.000 A 
BRANCH  20  27
ATOM     26  N   UNL     1      -1.509  13.441  20.703  0.00  0.00    +0.000 N 
ATOM     27  C   UNL     1      -2.434  12.651  20.082  0.00  0.00    +0.000 C 
ATOM     28  O   UNL     1      -3.631  12.832  20.242  0.00  0.00    +0.000 OA
ATOM     29  H   UNL     1      -1.871  14.228  21.227  0.00  0.00    +0.000 HD
ATOM     30  H   UNL     1      -0.546  13.488  20.397  0.00  0.00    +0.000 HD
ENDBRANCH  20  27
ENDBRANCH  19  24
ENDBRANCH   1  19
TORSDOF 5
ENDMDL
MODEL 7
REMARK VINA RESULT:      -8.9      1.034      1.232
REMARK  Name = 
REMARK  5 active torsions:
REMARK  status: ('A' for Active; 'I' for Inactive)
REMARK    1  A    between atoms: C_2  and  C_4
REMARK    2  A    between atoms: C_8  and  C_9
REMARK    3  A    between atoms: C_9  and  C_10
REMARK    4  A    between atoms: C_13  and  C_14
REMARK    5  A    between atoms: C_14  and  C_15
REMARK                            x       y       z     vdW  Elec       q    Type
REMARK                         _______ _______ _______ _____ _____    ______ ____
ROOT
ATOM      1  C   UNL     1       1.851   8.096  19.416  0.00  0.00    +0.000 A 
ATOM      2  N   UNL     1       2.531   8.392  18.298  0.00  0.00    +0.000 NA
ATOM      3  O   UNL     1       2.987   7.151  17.855  0.00  0.00    +0.000 OA
ATOM      4  C   UNL     1       2.569   6.226  18.773  0.00  0.00    +0.000 A 
ATOM      5  N   UNL     1       1.844   6.755  19.738  0.00  0.00    +0.000 NA
ENDROOT
BRANCH   4   6
ATOM      6  C   UNL     1       3.114   4.826  18.623  0.00  0.00    +0.000 C 
ATOM      7  C   UNL     1       2.291   4.021  17.579  0.00  0.00    +0.000 C 
ATOM      8  C   UNL     1       2.459   2.551  17.965  0.00  0.00    +0.000 C 
ATOM      9  C   UNL     1       2.777   2.538  19.456  0.00  0.00    +0.000 C 
ATOM     10  C   UNL     1       2.752   4.002  19.890  0.00  0.00    +0.000 C 
BRANCH   6  11
ATOM     11  C   UNL     1       4.608   4.824  18.247  0.00  0.00    +0.000 A 
ATOM     12  C   UNL     1       5.071   4.467  16.967  0.00  0.00    +0.000 A 
ATOM     13  C   UNL     1       6.422   4.562  16.633  0.00  0.00    +0.000 A 
ATOM     14  F   UNL     1       6.809   4.252  15.389  0.00  0.00    +0.000 F 
ATOM     15  C   UNL     1       7.362   4.985  17.554  0.00  0.00    +0.000 A 
ATOM     16  C   UNL     1       6.930   5.307  18.833  0.00  0.00    +0.000 A 
ATOM     17  F   UNL     1       7.826   5.716  19.740  0.00  0.00    +0.000 F 
ATOM     18  C   UNL     1       5.580   5.229  19.185  0.00  0.00    +0.000 A 
ENDBRANCH   6  11
ENDBRANCH   4   6
BRANCH   1  19
ATOM     19  C   UNL     1       1.365   9.139  20.354  0.00  0.00    +0.000 C 
BRANCH  19  24
ATOM     20  C   UNL     1      -1.273  11.020  18.332  0.00  0.00    +0.000 A 
ATOM     21  C   UNL     1      -0.712  12.302  18.267  0.00  0.00    +0.000 A 
ATOM     22  C   UNL     1       0.550  12.536  18.814  0.00  0.00    +0.000 A 
ATOM     23  C   UNL     1       1.244  11.500  19.446  0.00  0.00    +0.000 A 
ATOM     24  C   UNL     1       0.676  10.222  19.558  0.00  0.00    +0.000 A 
ATOM     25  C   UNL     1      -0.584   9.990  18.983  0.00  0.00    +0.000 A 
BRANCH  20  27
ATOM     26  N   UNL     1      -3.361  11.796  17.351  0.00  0.00    +0.000 N 
ATOM     27  C   UNL     1      -2.613  10.727  17.754  0.00  0.00    +0.000 C 
ATOM     28  O   UNL     1      -3.014   9.582  17.611  0.00  0.00    +0.000 OA
ATOM     29  H   UNL     1      -4.217  11.581  16.855  0.00  0.00    +0.000 HD
ATOM     30  H   UNL     1      -2.963  12.715  17.217  0.00  0.00    +0.000 HD
ENDBRANCH  20  27
ENDBRANCH  19  24
ENDBRANCH   1  19
TORSDOF 5
ENDMDL
MODEL 8
REMARK VINA RESULT:      -8.9      1.357      2.342
REMARK  Name = 
REMARK  5 active torsions:
REMARK  status: ('A' for Active; 'I' for Inactive)
REMARK    1  A    between atoms: C_2  and  C_4
REMARK    2  A    between atoms: C_8  and  C_9
REMARK    3  A    between atoms: C_9  and  C_10
REMARK    4  A    between atoms: C_13  and  C_14
REMARK    5  A    between atoms: C_14  and  C_15
REMARK                            x       y       z     vdW  Elec       q    Type
REMARK                         _______ _______ _______ _____ _____    ______ ____
ROOT
ATOM      1  C   UNL     1       2.011   8.771  18.774  0.00  0.00    +0.000 A 
ATOM      2  N   UNL     1       1.537   8.417  19.977  0.00  0.00    +0.000 NA
ATOM      3  O   UNL     1       1.919   7.081  20.097  0.00  0.00    +0.000 OA
ATOM      4  C   UNL     1       2.555   6.746  18.932  0.00  0.00    +0.000 A 
ATOM      5  N   UNL     1       2.660   7.760  18.098  0.00  0.00    +0.000 NA
ENDROOT
BRANCH   4   6
ATOM      6  C   UNL     1       2.886   5.287  18.734  0.00  0.00    +0.000 C 
ATOM      7  C   UNL     1       1.790   4.580  17.890  0.00  0.00    +0.000 C 
ATOM      8  C   UNL     1       1.846   3.105  18.291  0.00  0.00    +0.000 C 
ATOM      9  C   UNL     1       2.435   3.070  19.696  0.00  0.00    +0.000 C 
ATOM     10  C   UNL     1       2.671   4.531  20.076  0.00  0.00    +0.000 C 
BRANCH   6  11
ATOM     11  C   UNL     1       4.272   5.091  18.089  0.00  0.00    +0.000 A 
ATOM     12  C   UNL     1       5.474   5.288  18.792  0.00  0.00    +0.000 A 
ATOM     13  C   UNL     1       6.710   5.015  18.205  0.00  0.00    +0.000 A 
ATOM     14  F   UNL     1       7.826   5.177  18.928  0.00  0.00    +0.000 F 
ATOM     15  C   UNL     1       6.802   4.566  16.900  0.00  0.00    +0.000 A 
ATOM     16  C   UNL     1       5.629   4.400  16.179  0.00  0.00    +0.000 A 
ATOM     17  F   UNL     1       5.697   3.968  14.913  0.00  0.00    +0.000 F 
ATOM     18  C   UNL     1       4.381   4.657  16.751  0.00  0.00    +0.000 A 
ENDBRANCH   6  11
ENDBRANCH   4   6
BRANCH   1  19
ATOM     19  C   UNL     1       1.652  10.057  18.123  0.00  0.00    +0.000 C 
BRANCH  19  24
ATOM     20  C   UNL     1      -1.617  11.553  19.413  0.00  0.00    +0.000 A 
ATOM     21  C   UNL     1      -2.554  10.947  18.566  0.00  0.00    +0.000 A 
ATOM     22  C   UNL     1      -2.134  10.002  17.629  0.00  0.00    +0.000 A 
ATOM     23  C   UNL     1      -0.779   9.678  17.520  0.00  0.00    +0.000 A 
ATOM     24  C   UNL     1       0.177  10.308  18.330  0.00  0.00    +0.000 A 
ATOM     25  C   UNL     1      -0.258  11.240  19.287  0.00  0.00    +0.000 A 
BRANCH  20  27
ATOM     26  N   UNL     1      -2.998  13.446  20.070  0.00  0.00    +0.000 N 
ATOM     27  C   UNL     1      -2.025  12.560  20.431  0.00  0.00    +0.000 C 
ATOM     28  O   UNL     1      -1.540  12.573  21.552  0.00  0.00    +0.000 OA
ATOM     29  H   UNL     1      -3.350  14.049  20.804  0.00  0.00    +0.000 HD
ATOM     30  H   UNL     1      -3.590  13.301  19.263  0.00  0.00    +0.000 HD
ENDBRANCH  20  27
ENDBRANCH  19  24
ENDBRANCH   1  19
TORSDOF 5
ENDMDL
MODEL 9
REMARK VINA RESULT:      -8.9      2.513      3.873
REMARK  Name = 
REMARK  5 active torsions:
REMARK  status: ('A' for Active; 'I' for Inactive)
REMARK    1  A    between atoms: C_2  and  C_4
REMARK    2  A    between atoms: C_8  and  C_9
REMARK    3  A    between atoms: C_9  and  C_10
REMARK    4  A    between atoms: C_13  and  C_14
REMARK    5  A    between atoms: C_14  and  C_15
REMARK                            x       y       z     vdW  Elec       q    Type
REMARK                         _______ _______ _______ _____ _____    ______ ____
ROOT
ATOM      1  C   UNL     1       1.787   8.987  18.678  0.00  0.00    +0.000 A 
ATOM      2  N   UNL     1       2.415   9.136  17.502  0.00  0.00    +0.000 NA
ATOM      3  O   UNL     1       3.019   7.896  17.296  0.00  0.00    +0.000 OA
ATOM      4  C   UNL     1       2.728   7.129  18.392  0.00  0.00    +0.000 A 
ATOM      5  N   UNL     1       1.950   7.747  19.257  0.00  0.00    +0.000 NA
ENDROOT
BRANCH   4   6
ATOM      6  C   UNL     1       3.442   5.803  18.502  0.00  0.00    +0.000 C 
ATOM      7  C   UNL     1       4.801   5.966  19.238  0.00  0.00    +0.000 C 
ATOM      8  C   UNL     1       5.683   4.820  18.737  0.00  0.00    +0.000 C 
ATOM      9  C   UNL     1       5.141   4.440  17.364  0.00  0.00    +0.000 C 
ATOM     10  C   UNL     1       3.982   5.399  17.101  0.00  0.00    +0.000 C 
BRANCH   6  11
ATOM     11  C   UNL     1       2.577   4.737  19.200  0.00  0.00    +0.000 A 
ATOM     12  C   UNL     1       1.678   3.908  18.503  0.00  0.00    +0.000 A 
ATOM     13  C   UNL     1       0.977   2.892  19.152  0.00  0.00    +0.000 A 
ATOM     14  F   UNL     1       0.165   2.101  18.438  0.00  0.00    +0.000 F 
ATOM     15  C   UNL     1       1.115   2.678  20.511  0.00  0.00    +0.000 A 
ATOM     16  C   UNL     1       1.969   3.508  21.223  0.00  0.00    +0.000 A 
ATOM     17  F   UNL     1       2.116   3.317  22.540  0.00  0.00    +0.000 F 
ATOM     18  C   UNL     1       2.690   4.524  20.590  0.00  0.00    +0.000 A 
ENDBRANCH   6  11
ENDBRANCH   4   6
BRANCH   1  19
ATOM     19  C   UNL     1       1.182  10.130  19.408  0.00  0.00    +0.000 C 
BRANCH  19  24
ATOM     20  C   UNL     1      -2.348  11.530  19.002  0.00  0.00    +0.000 A 
ATOM     21  C   UNL     1      -2.755  10.915  17.811  0.00  0.00    +0.000 A 
ATOM     22  C   UNL     1      -1.917   9.994  17.182  0.00  0.00    +0.000 A 
ATOM     23  C   UNL     1      -0.663   9.704  17.726  0.00  0.00    +0.000 A 
ATOM     24  C   UNL     1      -0.221  10.344  18.894  0.00  0.00    +0.000 A 
ATOM     25  C   UNL     1      -1.083  11.251  19.533  0.00  0.00    +0.000 A 
BRANCH  20  27
ATOM     26  N   UNL     1      -4.499  12.640  19.258  0.00  0.00    +0.000 N 
ATOM     27  C   UNL     1      -3.216  12.512  19.708  0.00  0.00    +0.000 C 
ATOM     28  O   UNL     1      -2.816  13.148  20.670  0.00  0.00    +0.000 OA
ATOM     29  H   UNL     1      -5.113  13.221  19.815  0.00  0.00    +0.000 HD
ATOM     30  H   UNL     1      -4.930  11.957  18.648  0.00  0.00    +0.000 HD
ENDBRANCH  20  27
ENDBRANCH  19  24
ENDBRANCH   1  19
TORSDOF 5
ENDMDL
