MODEL 1
REMARK VINA RESULT:      -8.7      0.000      0.000
REMARK  Name = 
REMARK  5 active torsions:
REMARK  status: ('A' for Active; 'I' for Inactive)
REMARK    1  A    between atoms: C_1  and  C_2
REMARK    2  A    between atoms: C_6  and  C_7
REMARK    3  A    between atoms: N_9  and  C_10
REMARK    4  A    between atoms: C_10  and  C_11
REMARK    5  A    between atoms: C_10  and  C_17
REMARK                            x       y       z     vdW  Elec       q    Type
REMARK                         _______ _______ _______ _____ _____    ______ ____
ROOT
ATOM      1  C   UNL     1       3.626   5.677  19.459  0.00  0.00    +0.000 C 
ENDROOT
BRANCH   1   2
ATOM      2  C   UNL     1       4.754   5.427  18.442  0.00  0.00    +0.000 A 
ATOM      3  C   UNL     1       6.070   5.154  18.873  0.00  0.00    +0.000 A 
ATOM      4  C   UNL     1       7.150   5.085  17.984  0.00  0.00    +0.000 A 
ATOM      5  C   UNL     1       6.835   5.164  16.632  0.00  0.00    +0.000 A 
ATOM      6  N   UNL     1       7.591   5.235  15.491  0.00  0.00    +0.000 N 
ATOM      7  C   UNL     1       6.776   4.880  14.453  0.00  0.00    +0.000 A 
ATOM      8  N   UNL     1       5.513   5.006  14.793  0.00  0.00    +0.000 NA
ATOM      9  C   UNL     1       5.533   5.210  16.152  0.00  0.00    +0.000 A 
ATOM     10  C   UNL     1       4.482   5.415  17.055  0.00  0.00    +0.000 A 
ATOM     11  H   UNL     1       8.559   5.516  15.424  0.00  0.00    +0.000 HD
ENDBRANCH   1   2
BRANCH   1  12
ATOM     12  C   UNL     1       2.616   4.531  19.520  0.00  0.00    +0.000 A 
ATOM     13  C   UNL     1       1.841   4.183  18.395  0.00  0.00    +0.000 A 
ATOM     14  C   UNL     1       0.954   3.108  18.447  0.00  0.00    +0.000 A 
ATOM     15  C   UNL     1       0.826   2.367  19.617  0.00  0.00    +0.000 A 
ATOM     16  C   UNL     1       1.582   2.699  20.740  0.00  0.00    +0.000 A 
ATOM     17  C   UNL     1       2.464   3.787  20.699  0.00  0.00    +0.000 A 
ENDBRANCH   1  12
BRANCH   1  20
ATOM     18  C   UNL     1       2.013   7.527  19.942  0.00  0.00    +0.000 C 
ATOM     19  O   UNL     1       1.722   7.144  21.072  0.00  0.00    +0.000 OA
ATOM     20  N   UNL     1       2.909   6.894  19.122  0.00  0.00    +0.000 N 
ATOM     21  H   UNL     1       2.961   7.180  18.160  0.00  0.00    +0.000 HD
BRANCH  18  27
ATOM     22  C   UNL     1       0.059   9.782  21.339  0.00  0.00    +0.000 C 
ATOM     23  C   UNL     1       0.628   9.667  19.979  0.00  0.00    +0.000 A 
ATOM     24  O   UNL     1       0.299  10.682  19.125  0.00  0.00    +0.000 OA
ATOM     25  C   UNL     1       0.902  10.436  17.939  0.00  0.00    +0.000 A 
ATOM     26  C   UNL     1       1.625   9.262  18.024  0.00  0.00    +0.000 A 
ATOM     27  C   UNL     1       1.448   8.742  19.347  0.00  0.00    +0.000 A 
ENDBRANCH  18  27
ENDBRANCH   1  20
TORSDOF 4
ENDMDL
MODEL 2
REMARK VINA RESULT:      -8.6      2.572      6.211
REMARK  Name = 
REMARK  5 active torsions:
REMARK  status: ('A' for Active; 'I' for Inactive)
REMARK    1  A    between atoms: C_1  and  C_2
REMARK    2  A    between atoms: C_6  and  C_7
REMARK    3  A    between atoms: N_9  and  C_10
REMARK    4  A    between atoms: C_10  and  C_11
REMARK    5  A    between atoms: C_10  and  C_17
REMARK                            x       y       z     vdW  Elec       q    Type
REMARK                         _______ _______ _______ _____ _____    ______ ____
ROOT
ATOM      1  C   UNL     1       2.356   5.582  18.424  0.00  0.00    +0.000 C 
ENDROOT
BRANCH   1   2
ATOM      2  C   UNL     1       2.079   7.037  18.845  0.00  0.00    +0.000 A 
ATOM      3  C   UNL     1       1.721   7.351  20.173  0.00  0.00    +0.000 A 
ATOM      4  C   UNL     1       1.304   8.632  20.554  0.00  0.00    +0.000 A 
ATOM      5  C   UNL     1       1.394   9.618  19.578  0.00  0.00    +0.000 A 
ATOM      6  N   UNL     1       1.001  10.930  19.525  0.00  0.00    +0.000 N 
ATOM      7  C   UNL     1       1.700  11.513  18.506  0.00  0.00    +0.000 A 
ATOM      8  N   UNL     1       2.157  10.601  17.678  0.00  0.00    +0.000 NA
ATOM      9  C   UNL     1       1.949   9.405  18.323  0.00  0.00    +0.000 A 
ATOM     10  C   UNL     1       2.231   8.094  17.919  0.00  0.00    +0.000 A 
ATOM     11  H   UNL     1       0.313  11.380  20.113  0.00  0.00    +0.000 HD
ENDBRANCH   1   2
BRANCH   1  12
ATOM     12  C   UNL     1       1.958   4.567  19.497  0.00  0.00    +0.000 A 
ATOM     13  C   UNL     1       0.962   3.600  19.250  0.00  0.00    +0.000 A 
ATOM     14  C   UNL     1       0.637   2.651  20.219  0.00  0.00    +0.000 A 
ATOM     15  C   UNL     1       1.296   2.652  21.444  0.00  0.00    +0.000 A 
ATOM     16  C   UNL     1       2.281   3.603  21.706  0.00  0.00    +0.000 A 
ATOM     17  C   UNL     1       2.602   4.568  20.742  0.00  0.00    +0.000 A 
ENDBRANCH   1  12
BRANCH   1  20
ATOM     18  C   UNL     1       4.286   4.407  17.353  0.00  0.00    +0.000 C 
ATOM     19  O   UNL     1       3.612   3.550  16.789  0.00  0.00    +0.000 OA
ATOM     20  N   UNL     1       3.768   5.404  18.136  0.00  0.00    +0.000 N 
ATOM     21  H   UNL     1       4.399   5.956  18.689  0.00  0.00    +0.000 HD
BRANCH  18  27
ATOM     22  C   UNL     1       6.126   4.162  14.631  0.00  0.00    +0.000 C 
ATOM     23  C   UNL     1       6.479   4.370  16.051  0.00  0.00    +0.000 A 
ATOM     24  O   UNL     1       7.815   4.494  16.305  0.00  0.00    +0.000 OA
ATOM     25  C   UNL     1       7.968   4.689  17.635  0.00  0.00    +0.000 A 
ATOM     26  C   UNL     1       6.729   4.694  18.246  0.00  0.00    +0.000 A 
ATOM     27  C   UNL     1       5.746   4.477  17.226  0.00  0.00    +0.000 A 
ENDBRANCH  18  27
ENDBRANCH   1  20
TORSDOF 4
ENDMDL
MODEL 3
REMARK VINA RESULT:      -8.6      1.031      1.466
REMARK  Name = 
REMARK  5 active torsions:
REMARK  status: ('A' for Active; 'I' for Inactive)
REMARK    1  A    between atoms: C_1  and  C_2
REMARK    2  A    between atoms: C_6  and  C_7
REMARK    3  A    between atoms: N_9  and  C_10
REMARK    4  A    between atoms: C_10  and  C_11
REMARK    5  A    between atoms: C_10  and  C_17
REMARK                            x       y       z     vdW  Elec       q    Type
REMARK                         _______ _______ _______ _____ _____    ______ ____
ROOT
ATOM      1  C   UNL     1       3.091   6.292  19.450  0.00  0.00    +0.000 C 
ENDROOT
BRANCH   1   2
ATOM      2  C   UNL     1       4.069   6.208  18.265  0.00  0.00    +0.000 A 
ATOM      3  C   UNL     1       4.021   7.152  17.217  0.00  0.00    +0.000 A 
ATOM      4  C   UNL     1       4.780   7.015  16.049  0.00  0.00    +0.000 A 
ATOM      5  C   UNL     1       5.692   5.965  16.033  0.00  0.00    +0.000 A 
ATOM      6  N   UNL     1       6.519   5.450  15.069  0.00  0.00    +0.000 N 
ATOM      7  C   UNL     1       7.469   4.711  15.715  0.00  0.00    +0.000 A 
ATOM      8  N   UNL     1       7.060   4.386  16.921  0.00  0.00    +0.000 NA
ATOM      9  C   UNL     1       5.932   5.144  17.127  0.00  0.00    +0.000 A 
ATOM     10  C   UNL     1       5.071   5.212  18.229  0.00  0.00    +0.000 A 
ATOM     11  H   UNL     1       6.435   5.575  14.070  0.00  0.00    +0.000 HD
ENDBRANCH   1   2
BRANCH   1  12
ATOM     12  C   UNL     1       2.239   5.033  19.608  0.00  0.00    +0.000 A 
ATOM     13  C   UNL     1       1.694   4.376  18.485  0.00  0.00    +0.000 A 
ATOM     14  C   UNL     1       0.955   3.203  18.637  0.00  0.00    +0.000 A 
ATOM     15  C   UNL     1       0.747   2.669  19.904  0.00  0.00    +0.000 A 
ATOM     16  C   UNL     1       1.275   3.307  21.025  0.00  0.00    +0.000 A 
ATOM     17  C   UNL     1       2.006   4.494  20.882  0.00  0.00    +0.000 A 
ENDBRANCH   1  12
BRANCH   1  20
ATOM     18  C   UNL     1       1.646   8.146  20.307  0.00  0.00    +0.000 C 
ATOM     19  O   UNL     1       1.858   7.928  21.496  0.00  0.00    +0.000 OA
ATOM     20  N   UNL     1       2.197   7.424  19.281  0.00  0.00    +0.000 N 
ATOM     21  H   UNL     1       1.841   7.565  18.352  0.00  0.00    +0.000 HD
BRANCH  18  27
ATOM     22  C   UNL     1      -0.389  10.049  22.065  0.00  0.00    +0.000 C 
ATOM     23  C   UNL     1      -0.053  10.020  20.625  0.00  0.00    +0.000 A 
ATOM     24  O   UNL     1      -0.690  10.957  19.861  0.00  0.00    +0.000 OA
ATOM     25  C   UNL     1      -0.268  10.807  18.585  0.00  0.00    +0.000 A 
ATOM     26  C   UNL     1       0.646   9.773  18.520  0.00  0.00    +0.000 A 
ATOM     27  C   UNL     1       0.790   9.242  19.843  0.00  0.00    +0.000 A 
ENDBRANCH  18  27
ENDBRANCH   1  20
TORSDOF 4
ENDMDL
MODEL 4
REMARK VINA RESULT:      -8.5      1.035      1.814
REMARK  Name = 
REMARK  5 active torsions:
REMARK  status: ('A' for Active; 'I' for Inactive)
REMARK    1  A    between atoms: C_1  and  C_2
REMARK    2  A    between atoms: C_6  and  C_7
REMARK    3  A    between atoms: N_9  and  C_10
REMARK    4  A    between atoms: C_10  and  C_11
REMARK    5  A    between atoms: C_10  and  C_17
REMARK                            x       y       z     vdW  Elec       q    Type
REMARK                         _______ _______ _______ _____ _____    ______ ____
ROOT
ATOM      1  C   UNL     1       3.093   6.243  19.513  0.00  0.00    +0.000 C 
ENDROOT
BRANCH   1   2
ATOM      2  C   UNL     1       4.054   6.174  18.313  0.00  0.00    +0.000 A 
ATOM      3  C   UNL     1       3.984   7.125  17.273  0.00  0.00    +0.000 A 
ATOM      4  C   UNL     1       4.726   7.002  16.092  0.00  0.00    +0.000 A 
ATOM      5  C   UNL     1       5.644   5.959  16.055  0.00  0.00    +0.000 A 
ATOM      6  N   UNL     1       6.460   5.456  15.075  0.00  0.00    +0.000 N 
ATOM      7  C   UNL     1       7.424   4.719  15.701  0.00  0.00    +0.000 A 
ATOM      8  N   UNL     1       7.036   4.382  16.911  0.00  0.00    +0.000 NA
ATOM      9  C   UNL     1       5.906   5.131  17.139  0.00  0.00    +0.000 A 
ATOM     10  C   UNL     1       5.062   5.185  18.255  0.00  0.00    +0.000 A 
ATOM     11  H   UNL     1       6.360   5.588  14.078  0.00  0.00    +0.000 HD
ENDBRANCH   1   2
BRANCH   1  12
ATOM     12  C   UNL     1       2.241   4.983  19.666  0.00  0.00    +0.000 A 
ATOM     13  C   UNL     1       1.673   4.348  18.543  0.00  0.00    +0.000 A 
ATOM     14  C   UNL     1       0.934   3.174  18.688  0.00  0.00    +0.000 A 
ATOM     15  C   UNL     1       0.750   2.617  19.949  0.00  0.00    +0.000 A 
ATOM     16  C   UNL     1       1.302   3.234  21.071  0.00  0.00    +0.000 A 
ATOM     17  C   UNL     1       2.033   4.421  20.934  0.00  0.00    +0.000 A 
ENDBRANCH   1  12
BRANCH   1  20
ATOM     18  C   UNL     1       1.671   8.091  20.417  0.00  0.00    +0.000 C 
ATOM     19  O   UNL     1       1.905   7.860  21.600  0.00  0.00    +0.000 OA
ATOM     20  N   UNL     1       2.199   7.379  19.373  0.00  0.00    +0.000 N 
ATOM     21  H   UNL     1       1.825   7.529  18.453  0.00  0.00    +0.000 HD
BRANCH  18  27
ATOM     22  C   UNL     1       2.046  10.096  17.830  0.00  0.00    +0.000 C 
ATOM     23  C   UNL     1       1.007  10.013  18.878  0.00  0.00    +0.000 A 
ATOM     24  O   UNL     1      -0.003  10.927  18.769  0.00  0.00    +0.000 OA
ATOM     25  C   UNL     1      -0.868  10.711  19.786  0.00  0.00    +0.000 A 
ATOM     26  C   UNL     1      -0.422   9.655  20.555  0.00  0.00    +0.000 A 
ATOM     27  C   UNL     1       0.808   9.194  19.981  0.00  0.00    +0.000 A 
ENDBRANCH  18  27
ENDBRANCH   1  20
TORSDOF 4
ENDMDL
MODEL 5
REMARK VINA RESULT:      -8.4      2.634      6.076
REMARK  Name = 
REMARK  5 active torsions:
REMARK  status: ('A' for Active; 'I' for Inactive)
REMARK    1  A    between atoms: C_1  and  C_2
REMARK    2  A    between atoms: C_6  and  C_7
REMARK    3  A    between atoms: N_9  and  C_10
REMARK    4  A    between atoms: C_10  and  C_11
REMARK    5  A    between atoms: C_10  and  C_17
REMARK                            x       y       z     vdW  Elec       q    Type
REMARK                         _______ _______ _______ _____ _____    ______ ____
ROOT
ATOM      1  C   UNL     1       2.298   5.417  18.313  0.00  0.00    +0.000 C 
ENDROOT
BRANCH   1   2
ATOM      2  C   UNL     1       2.051   6.857  18.795  0.00  0.00    +0.000 A 
ATOM      3  C   UNL     1       1.813   7.133  20.158  0.00  0.00    +0.000 A 
ATOM      4  C   UNL     1       1.424   8.400  20.610  0.00  0.00    +0.000 A 
ATOM      5  C   UNL     1       1.416   9.412  19.657  0.00  0.00    +0.000 A 
ATOM      6  N   UNL     1       1.011  10.721  19.675  0.00  0.00    +0.000 N 
ATOM      7  C   UNL     1       1.608  11.337  18.612  0.00  0.00    +0.000 A 
ATOM      8  N   UNL     1       1.994  10.451  17.721  0.00  0.00    +0.000 NA
ATOM      9  C   UNL     1       1.855   9.236  18.351  0.00  0.00    +0.000 A 
ATOM     10  C   UNL     1       2.109   7.939  17.888  0.00  0.00    +0.000 A 
ATOM     11  H   UNL     1       0.376  11.148  20.335  0.00  0.00    +0.000 HD
ENDBRANCH   1   2
BRANCH   1  12
ATOM     12  C   UNL     1       2.304   4.400  19.455  0.00  0.00    +0.000 A 
ATOM     13  C   UNL     1       1.099   3.930  20.017  0.00  0.00    +0.000 A 
ATOM     14  C   UNL     1       1.114   2.970  21.028  0.00  0.00    +0.000 A 
ATOM     15  C   UNL     1       2.324   2.465  21.494  0.00  0.00    +0.000 A 
ATOM     16  C   UNL     1       3.524   2.922  20.951  0.00  0.00    +0.000 A 
ATOM     17  C   UNL     1       3.517   3.896  19.945  0.00  0.00    +0.000 A 
ENDBRANCH   1  12
BRANCH   1  20
ATOM     18  C   UNL     1       3.961   4.293  16.820  0.00  0.00    +0.000 C 
ATOM     19  O   UNL     1       3.263   3.314  16.572  0.00  0.00    +0.000 OA
ATOM     20  N   UNL     1       3.574   5.332  17.626  0.00  0.00    +0.000 N 
ATOM     21  H   UNL     1       4.266   6.004  17.905  0.00  0.00    +0.000 HD
BRANCH  18  27
ATOM     22  C   UNL     1       6.820   4.772  18.387  0.00  0.00    +0.000 C 
ATOM     23  C   UNL     1       6.479   4.674  16.951  0.00  0.00    +0.000 A 
ATOM     24  O   UNL     1       7.536   4.796  16.094  0.00  0.00    +0.000 OA
ATOM     25  C   UNL     1       7.063   4.673  14.833  0.00  0.00    +0.000 A 
ATOM     26  C   UNL     1       5.697   4.469  14.871  0.00  0.00    +0.000 A 
ATOM     27  C   UNL     1       5.299   4.477  16.248  0.00  0.00    +0.000 A 
ENDBRANCH  18  27
ENDBRANCH   1  20
TORSDOF 4
ENDMDL
MODEL 6
REMARK VINA RESULT:      -8.2      2.554      6.294
REMARK  Name = 
REMARK  5 active torsions:
REMARK  status: ('A' for Active; 'I' for Inactive)
REMARK    1  A    between atoms: C_1  and  C_2
REMARK    2  A    between atoms: C_6  and  C_7
REMARK    3  A    between atoms: N_9  and  C_10
REMARK    4  A    between atoms: C_10  and  C_11
REMARK    5  A    between atoms: C_10  and  C_17
REMARK                            x       y       z     vdW  Elec       q    Type
REMARK                         _______ _______ _______ _____ _____    ______ ____
ROOT
ATOM      1  C   UNL     1       2.705   6.244  18.209  0.00  0.00    +0.000 C 
ENDROOT
BRANCH   1   2
ATOM      2  C   UNL     1       2.069   7.566  18.675  0.00  0.00    +0.000 A 
ATOM      3  C   UNL     1       1.716   8.567  17.745  0.00  0.00    +0.000 A 
ATOM      4  C   UNL     1       1.290   9.841  18.141  0.00  0.00    +0.000 A 
ATOM      5  C   UNL     1       1.101  10.025  19.506  0.00  0.00    +0.000 A 
ATOM      6  N   UNL     1       0.800  11.117  20.277  0.00  0.00    +0.000 N 
ATOM      7  C   UNL     1       0.337  10.644  21.472  0.00  0.00    +0.000 A 
ATOM      8  N   UNL     1       0.718   9.400  21.655  0.00  0.00    +0.000 NA
ATOM      9  C   UNL     1       1.223   9.004  20.439  0.00  0.00    +0.000 A 
ATOM     10  C   UNL     1       1.779   7.781  20.041  0.00  0.00    +0.000 A 
ATOM     11  H   UNL     1       0.915  12.087  20.021  0.00  0.00    +0.000 HD
ENDBRANCH   1   2
BRANCH   1  12
ATOM     12  C   UNL     1       2.028   5.013  18.812  0.00  0.00    +0.000 A 
ATOM     13  C   UNL     1       1.463   4.017  17.990  0.00  0.00    +0.000 A 
ATOM     14  C   UNL     1       0.887   2.876  18.549  0.00  0.00    +0.000 A 
ATOM     15  C   UNL     1       0.864   2.712  19.930  0.00  0.00    +0.000 A 
ATOM     16  C   UNL     1       1.415   3.689  20.758  0.00  0.00    +0.000 A 
ATOM     17  C   UNL     1       1.983   4.844  20.203  0.00  0.00    +0.000 A 
ENDBRANCH   1  12
BRANCH   1  20
ATOM     18  C   UNL     1       5.148   6.158  17.678  0.00  0.00    +0.000 C 
ATOM     19  O   UNL     1       5.009   6.148  16.458  0.00  0.00    +0.000 OA
ATOM     20  N   UNL     1       4.111   6.210  18.572  0.00  0.00    +0.000 N 
ATOM     21  H   UNL     1       4.308   6.047  19.543  0.00  0.00    +0.000 HD
BRANCH  18  27
ATOM     22  C   UNL     1       7.616   8.317  17.362  0.00  0.00    +0.000 C 
ATOM     23  C   UNL     1       7.475   7.081  18.162  0.00  0.00    +0.000 A 
ATOM     24  O   UNL     1       8.559   6.759  18.929  0.00  0.00    +0.000 OA
ATOM     25  C   UNL     1       8.267   5.621  19.601  0.00  0.00    +0.000 A 
ATOM     26  C   UNL     1       6.991   5.206  19.272  0.00  0.00    +0.000 A 
ATOM     27  C   UNL     1       6.464   6.144  18.325  0.00  0.00    +0.000 A 
ENDBRANCH  18  27
ENDBRANCH   1  20
TORSDOF 4
ENDMDL
MODEL 7
REMARK VINA RESULT:      -8.2      2.569      6.425
REMARK  Name = 
REMARK  5 active torsions:
REMARK  status: ('A' for Active; 'I' for Inactive)
REMARK    1  A    between atoms: C_1  and  C_2
REMARK    2  A    between atoms: C_6  and  C_7
REMARK    3  A    between atoms: N_9  and  C_10
REMARK    4  A    between atoms: C_10  and  C_11
REMARK    5  A    between atoms: C_10  and  C_17
REMARK                            x       y       z     vdW  Elec       q    Type
REMARK                         _______ _______ _______ _____ _____    ______ ____
ROOT
ATOM      1  C   UNL     1       2.341   5.553  18.320  0.00  0.00    +0.000 C 
ENDROOT
BRANCH   1   2
ATOM      2  C   UNL     1       1.999   7.017  18.646  0.00  0.00    +0.000 A 
ATOM      3  C   UNL     1       2.029   8.008  17.641  0.00  0.00    +0.000 A 
ATOM      4  C   UNL     1       1.885   9.371  17.929  0.00  0.00    +0.000 A 
ATOM      5  C   UNL     1       1.573   9.688  19.246  0.00  0.00    +0.000 A 
ATOM      6  N   UNL     1       1.456  10.871  19.928  0.00  0.00    +0.000 N 
ATOM      7  C   UNL     1       0.739  10.606  21.061  0.00  0.00    +0.000 A 
ATOM      8  N   UNL     1       0.772   9.322  21.339  0.00  0.00    +0.000 NA
ATOM      9  C   UNL     1       1.316   8.734  20.222  0.00  0.00    +0.000 A 
ATOM     10  C   UNL     1       1.597   7.389  19.948  0.00  0.00    +0.000 A 
ATOM     11  H   UNL     1       1.841  11.765  19.659  0.00  0.00    +0.000 HD
ENDBRANCH   1   2
BRANCH   1  12
ATOM     12  C   UNL     1       1.945   4.587  19.437  0.00  0.00    +0.000 A 
ATOM     13  C   UNL     1       0.947   3.612  19.237  0.00  0.00    +0.000 A 
ATOM     14  C   UNL     1       0.624   2.707  20.248  0.00  0.00    +0.000 A 
ATOM     15  C   UNL     1       1.288   2.760  21.469  0.00  0.00    +0.000 A 
ATOM     16  C   UNL     1       2.275   3.720  21.685  0.00  0.00    +0.000 A 
ATOM     17  C   UNL     1       2.595   4.641  20.679  0.00  0.00    +0.000 A 
ENDBRANCH   1  12
BRANCH   1  20
ATOM     18  C   UNL     1       4.345   4.405  17.359  0.00  0.00    +0.000 C 
ATOM     19  O   UNL     1       3.719   3.506  16.806  0.00  0.00    +0.000 OA
ATOM     20  N   UNL     1       3.767   5.413  18.085  0.00  0.00    +0.000 N 
ATOM     21  H   UNL     1       4.361   6.005  18.638  0.00  0.00    +0.000 HD
BRANCH  18  27
ATOM     22  C   UNL     1       6.286   4.106  14.714  0.00  0.00    +0.000 C 
ATOM     23  C   UNL     1       6.582   4.388  16.135  0.00  0.00    +0.000 A 
ATOM     24  O   UNL     1       7.904   4.569  16.428  0.00  0.00    +0.000 OA
ATOM     25  C   UNL     1       8.003   4.827  17.752  0.00  0.00    +0.000 A 
ATOM     26  C   UNL     1       6.744   4.816  18.319  0.00  0.00    +0.000 A 
ATOM     27  C   UNL     1       5.805   4.520  17.278  0.00  0.00    +0.000 A 
ENDBRANCH  18  27
ENDBRANCH   1  20
TORSDOF 4
ENDMDL
MODEL 8
REMARK VINA RESULT:      -8.1      0.562      1.254
REMARK  Name = 
REMARK  5 active torsions:
REMARK  status: ('A' for Active; 'I' for Inactive)
REMARK    1  A    between atoms: C_1  and  C_2
REMARK    2  A    between atoms: C_6  and  C_7
REMARK    3  A    between atoms: N_9  and  C_10
REMARK    4  A    between atoms: C_10  and  C_11
REMARK    5  A    between atoms: C_10  and  C_17
REMARK                            x       y       z     vdW  Elec       q    Type
REMARK                         _______ _______ _______ _____ _____    ______ ____
ROOT
ATOM      1  C   UNL     1       3.413   5.751  19.797  0.00  0.00    +0.000 C 
ENDROOT
BRANCH   1   2
ATOM      2  C   UNL     1       4.568   5.581  18.794  0.00  0.00    +0.000 A 
ATOM      3  C   UNL     1       5.887   5.357  19.241  0.00  0.00    +0.000 A 
ATOM      4  C   UNL     1       6.984   5.361  18.370  0.00  0.00    +0.000 A 
ATOM      5  C   UNL     1       6.688   5.461  17.015  0.00  0.00    +0.000 A 
ATOM      6  N   UNL     1       7.458   5.598  15.890  0.00  0.00    +0.000 N 
ATOM      7  C   UNL     1       6.679   5.234  14.829  0.00  0.00    +0.000 A 
ATOM      8  N   UNL     1       5.406   5.292  15.149  0.00  0.00    +0.000 NA
ATOM      9  C   UNL     1       5.393   5.461  16.513  0.00  0.00    +0.000 A 
ATOM     10  C   UNL     1       4.319   5.593  17.403  0.00  0.00    +0.000 A 
ATOM     11  H   UNL     1       8.413   5.925  15.847  0.00  0.00    +0.000 HD
ENDBRANCH   1   2
BRANCH   1  12
ATOM     12  C   UNL     1       2.436   4.575  19.784  0.00  0.00    +0.000 A 
ATOM     13  C   UNL     1       1.759   4.204  18.604  0.00  0.00    +0.000 A 
ATOM     14  C   UNL     1       0.903   3.103  18.592  0.00  0.00    +0.000 A 
ATOM     15  C   UNL     1       0.709   2.358  19.751  0.00  0.00    +0.000 A 
ATOM     16  C   UNL     1       1.367   2.713  20.927  0.00  0.00    +0.000 A 
ATOM     17  C   UNL     1       2.217   3.827  20.950  0.00  0.00    +0.000 A 
ENDBRANCH   1  12
BRANCH   1  20
ATOM     18  C   UNL     1       1.803   7.579  20.365  0.00  0.00    +0.000 C 
ATOM     19  O   UNL     1       1.568   7.188  21.504  0.00  0.00    +0.000 OA
ATOM     20  N   UNL     1       2.667   6.962  19.500  0.00  0.00    +0.000 N 
ATOM     21  H   UNL     1       2.672   7.253  18.539  0.00  0.00    +0.000 HD
BRANCH  18  27
ATOM     22  C   UNL     1       2.350   8.984  17.435  0.00  0.00    +0.000 C 
ATOM     23  C   UNL     1       1.458   9.345  18.558  0.00  0.00    +0.000 A 
ATOM     24  O   UNL     1       0.704  10.467  18.362  0.00  0.00    +0.000 OA
ATOM     25  C   UNL     1      -0.058  10.652  19.465  0.00  0.00    +0.000 A 
ATOM     26  C   UNL     1       0.201   9.647  20.377  0.00  0.00    +0.000 A 
ATOM     27  C   UNL     1       1.197   8.791  19.804  0.00  0.00    +0.000 A 
ENDBRANCH  18  27
ENDBRANCH   1  20
TORSDOF 4
ENDMDL
MODEL 9
REMARK VINA RESULT:      -8.0      1.081      1.098
REMARK  Name = 
REMARK  5 active torsions:
REMARK  status: ('A' for Active; 'I' for Inactive)
REMARK    1  A    between atoms: C_1  and  C_2
REMARK    2  A    between atoms: C_6  and  C_7
REMARK    3  A    between atoms: N_9  and  C_10
REMARK    4  A    between atoms: C_10  and  C_11
REMARK    5  A    between atoms: C_10  and  C_17
REMARK                            x       y       z     vdW  Elec       q    Type
REMARK                         _______ _______ _______ _____ _____    ______ ____
ROOT
ATOM      1  C   UNL     1       4.107   5.314  19.607  0.00  0.00    +0.000 C 
ENDROOT
BRANCH   1   2
ATOM      2  C   UNL     1       5.126   5.179  18.461  0.00  0.00    +0.000 A 
ATOM      3  C   UNL     1       6.512   5.166  18.723  0.00  0.00    +0.000 A 
ATOM      4  C   UNL     1       7.469   5.210  17.701  0.00  0.00    +0.000 A 
ATOM      5  C   UNL     1       6.979   5.129  16.403  0.00  0.00    +0.000 A 
ATOM      6  N   UNL     1       7.562   5.238  15.167  0.00  0.00    +0.000 N 
ATOM      7  C   UNL     1       6.701   4.671  14.271  0.00  0.00    +0.000 A 
ATOM      8  N   UNL     1       5.487   4.609  14.771  0.00  0.00    +0.000 NA
ATOM      9  C   UNL     1       5.640   4.919  16.102  0.00  0.00    +0.000 A 
ATOM     10  C   UNL     1       4.690   5.014  17.127  0.00  0.00    +0.000 A 
ATOM     11  H   UNL     1       8.449   5.671  14.954  0.00  0.00    +0.000 HD
ENDBRANCH   1   2
BRANCH   1  12
ATOM     12  C   UNL     1       3.038   4.222  19.583  0.00  0.00    +0.000 A 
ATOM     13  C   UNL     1       3.095   3.167  18.650  0.00  0.00    +0.000 A 
ATOM     14  C   UNL     1       2.139   2.151  18.665  0.00  0.00    +0.000 A 
ATOM     15  C   UNL     1       1.115   2.171  19.606  0.00  0.00    +0.000 A 
ATOM     16  C   UNL     1       1.041   3.209  20.534  0.00  0.00    +0.000 A 
ATOM     17  C   UNL     1       1.990   4.240  20.516  0.00  0.00    +0.000 A 
ENDBRANCH   1  12
BRANCH   1  20
ATOM     18  C   UNL     1       2.468   6.928  18.624  0.00  0.00    +0.000 C 
ATOM     19  O   UNL     1       2.034   6.160  17.770  0.00  0.00    +0.000 OA
ATOM     20  N   UNL     1       3.439   6.602  19.533  0.00  0.00    +0.000 N 
ATOM     21  H   UNL     1       3.848   7.338  20.081  0.00  0.00    +0.000 HD
BRANCH  18  27
ATOM     22  C   UNL     1       1.000   8.275  21.248  0.00  0.00    +0.000 C 
ATOM     23  C   UNL     1       1.351   8.820  19.919  0.00  0.00    +0.000 A 
ATOM     24  O   UNL     1       1.019  10.131  19.723  0.00  0.00    +0.000 OA
ATOM     25  C   UNL     1       1.414  10.475  18.475  0.00  0.00    +0.000 A 
ATOM     26  C   UNL     1       2.005   9.388  17.862  0.00  0.00    +0.000 A 
ATOM     27  C   UNL     1       1.963   8.295  18.789  0.00  0.00    +0.000 A 
ENDBRANCH  18  27
ENDBRANCH   1  20
TORSDOF 4
ENDMDL
