MODEL 1
REMARK VINA RESULT:      -9.9      0.000      0.000
REMARK  Name = 
REMARK  3 active torsions:
REMARK  status: ('A' for Active; 'I' for Inactive)
REMARK    1  A    between atoms: C_2  and  C_3
REMARK    2  A    between atoms: C_6  and  O_7
REMARK    3  A    between atoms: O_7  and  C_8
REMARK                            x       y       z     vdW  Elec       q    Type
REMARK                         _______ _______ _______ _____ _____    ______ ____
ROOT
ATOM      1  C   UNL     1       4.566   5.948  18.424  0.00  0.00    +0.000 A 
ATOM      2  C   UNL     1       5.809   5.390  18.735  0.00  0.00    +0.000 A 
ATOM      3  C   UNL     1       6.826   5.395  17.783  0.00  0.00    +0.000 A 
ATOM      4  C   UNL     1       6.554   5.883  16.502  0.00  0.00    +0.000 A 
ATOM      5  C   UNL     1       5.390   6.609  16.260  0.00  0.00    +0.000 A 
ATOM      6  C   UNL     1       4.406   6.676  17.242  0.00  0.00    +0.000 A 
ENDROOT
BRANCH   1   8
ATOM      7  O   UNL     1       2.962   6.502  20.028  0.00  0.00    +0.000 OA
ATOM      8  C   UNL     1       3.393   5.625  19.286  0.00  0.00    +0.000 C 
ATOM      9  N   UNL     1       2.892   4.309  19.265  0.00  0.00    +0.000 N 
ATOM     10  C   UNL     1       1.910   3.931  20.282  0.00  0.00    +0.000 C 
ATOM     11  C   UNL     1       0.702   3.172  19.709  0.00  0.00    +0.000 C 
ATOM     12  C   UNL     1       1.006   1.877  18.951  0.00  0.00    +0.000 C 
ATOM     13  N   UNL     1       1.748   2.117  17.719  0.00  0.00    +0.000 NA
ATOM     14  C   UNL     1       3.200   2.202  17.909  0.00  0.00    +0.000 C 
ATOM     15  C   UNL     1       3.750   3.135  19.020  0.00  0.00    +0.000 C 
ATOM     16  C   UNL     1       3.833   2.448  20.391  0.00  0.00    +0.000 C 
ATOM     17  C   UNL     1       2.735   3.078  21.246  0.00  0.00    +0.000 C 
ATOM     18  H   UNL     1       1.423   2.998  17.314  0.00  0.00    +0.000 HD
ENDBRANCH   1   8
BRANCH   4  19
ATOM     19  O   UNL     1       7.387   5.667  15.430  0.00  0.00    +0.000 OA
BRANCH  19  20
ATOM     20  C   UNL     1       6.934   4.901  14.371  0.00  0.00    +0.000 A 
ATOM     21  C   UNL     1       5.817   4.054  14.396  0.00  0.00    +0.000 A 
ATOM     22  C   UNL     1       5.522   3.249  13.291  0.00  0.00    +0.000 A 
ATOM     23  C   UNL     1       6.301   3.345  12.144  0.00  0.00    +0.000 A 
ATOM     24  F   UNL     1       6.024   2.561  11.095  0.00  0.00    +0.000 F 
ATOM     25  C   UNL     1       7.357   4.243  12.069  0.00  0.00    +0.000 A 
ATOM     26  C   UNL     1       7.665   5.015  13.184  0.00  0.00    +0.000 A 
ATOM     27  F   UNL     1       8.683   5.882  13.103  0.00  0.00    +0.000 F 
ENDBRANCH  19  20
ENDBRANCH   4  19
TORSDOF 3
ENDMDL
MODEL 2
REMARK VINA RESULT:      -9.1      0.938      1.315
REMARK  Name = 
REMARK  3 active torsions:
REMARK  status: ('A' for Active; 'I' for Inactive)
REMARK    1  A    between atoms: C_2  and  C_3
REMARK    2  A    between atoms: C_6  and  O_7
REMARK    3  A    between atoms: O_7  and  C_8
REMARK                            x       y       z     vdW  Elec       q    Type
REMARK                         _______ _______ _______ _____ _____    ______ ____
ROOT
ATOM      1  C   UNL     1       4.549   5.971  18.365  0.00  0.00    +0.000 A 
ATOM      2  C   UNL     1       5.798   5.541  18.824  0.00  0.00    +0.000 A 
ATOM      3  C   UNL     1       6.884   5.522  17.952  0.00  0.00    +0.000 A 
ATOM      4  C   UNL     1       6.684   5.852  16.610  0.00  0.00    +0.000 A 
ATOM      5  C   UNL     1       5.498   6.462  16.206  0.00  0.00    +0.000 A 
ATOM      6  C   UNL     1       4.436   6.558  17.102  0.00  0.00    +0.000 A 
ENDROOT
BRANCH   1   8
ATOM      7  O   UNL     1       2.837   6.553  19.841  0.00  0.00    +0.000 OA
ATOM      8  C   UNL     1       3.335   5.654  19.170  0.00  0.00    +0.000 C 
ATOM      9  N   UNL     1       2.872   4.325  19.185  0.00  0.00    +0.000 N 
ATOM     10  C   UNL     1       1.842   3.967  20.159  0.00  0.00    +0.000 C 
ATOM     11  C   UNL     1       0.691   3.145  19.555  0.00  0.00    +0.000 C 
ATOM     12  C   UNL     1       1.077   1.825  18.881  0.00  0.00    +0.000 C 
ATOM     13  N   UNL     1       1.885   2.028  17.684  0.00  0.00    +0.000 NA
ATOM     14  C   UNL     1       3.320   2.165  17.956  0.00  0.00    +0.000 C 
ATOM     15  C   UNL     1       3.776   3.167  19.051  0.00  0.00    +0.000 C 
ATOM     16  C   UNL     1       3.794   2.550  20.456  0.00  0.00    +0.000 C 
ATOM     17  C   UNL     1       2.629   3.186  21.212  0.00  0.00    +0.000 C 
ATOM     18  H   UNL     1       1.561   2.878  17.218  0.00  0.00    +0.000 HD
ENDBRANCH   1   8
BRANCH   4  19
ATOM     19  O   UNL     1       7.612   5.587  15.630  0.00  0.00    +0.000 OA
BRANCH  19  20
ATOM     20  C   UNL     1       7.212   4.908  14.493  0.00  0.00    +0.000 A 
ATOM     21  C   UNL     1       7.612   5.206  13.182  0.00  0.00    +0.000 A 
ATOM     22  C   UNL     1       7.054   4.511  12.104  0.00  0.00    +0.000 A 
ATOM     23  C   UNL     1       6.155   3.479  12.343  0.00  0.00    +0.000 A 
ATOM     24  F   UNL     1       5.612   2.828  11.307  0.00  0.00    +0.000 F 
ATOM     25  C   UNL     1       5.815   3.112  13.638  0.00  0.00    +0.000 A 
ATOM     26  C   UNL     1       6.348   3.829  14.704  0.00  0.00    +0.000 A 
ATOM     27  F   UNL     1       6.018   3.466  15.950  0.00  0.00    +0.000 F 
ENDBRANCH  19  20
ENDBRANCH   4  19
TORSDOF 3
ENDMDL
MODEL 3
REMARK VINA RESULT:      -9.0      5.990      8.306
REMARK  Name = 
REMARK  3 active torsions:
REMARK  status: ('A' for Active; 'I' for Inactive)
REMARK    1  A    between atoms: C_2  and  C_3
REMARK    2  A    between atoms: C_6  and  O_7
REMARK    3  A    between atoms: O_7  and  C_8
REMARK                            x       y       z     vdW  Elec       q    Type
REMARK                         _______ _______ _______ _____ _____    ______ ____
ROOT
ATOM      1  C   UNL     1       2.459   7.246  18.519  0.00  0.00    +0.000 A 
ATOM      2  C   UNL     1       2.461   8.274  17.572  0.00  0.00    +0.000 A 
ATOM      3  C   UNL     1       1.847   9.488  17.870  0.00  0.00    +0.000 A 
ATOM      4  C   UNL     1       1.165   9.624  19.082  0.00  0.00    +0.000 A 
ATOM      5  C   UNL     1       1.332   8.680  20.092  0.00  0.00    +0.000 A 
ATOM      6  C   UNL     1       2.018   7.499  19.821  0.00  0.00    +0.000 A 
ENDROOT
BRANCH   1   8
ATOM      7  O   UNL     1       1.898   5.011  18.143  0.00  0.00    +0.000 OA
ATOM      8  C   UNL     1       2.784   5.858  18.080  0.00  0.00    +0.000 C 
ATOM      9  N   UNL     1       4.107   5.572  17.693  0.00  0.00    +0.000 N 
ATOM     10  C   UNL     1       4.480   4.171  17.502  0.00  0.00    +0.000 C 
ATOM     11  C   UNL     1       5.269   3.922  16.205  0.00  0.00    +0.000 C 
ATOM     12  C   UNL     1       6.574   4.706  16.040  0.00  0.00    +0.000 C 
ATOM     13  N   UNL     1       6.347   6.141  15.915  0.00  0.00    +0.000 NA
ATOM     14  C   UNL     1       6.236   6.838  17.201  0.00  0.00    +0.000 C 
ATOM     15  C   UNL     1       5.272   6.265  18.275  0.00  0.00    +0.000 C 
ATOM     16  C   UNL     1       5.930   5.197  19.160  0.00  0.00    +0.000 C 
ATOM     17  C   UNL     1       5.300   3.866  18.755  0.00  0.00    +0.000 C 
ATOM     18  H   UNL     1       5.479   6.285  15.393  0.00  0.00    +0.000 HD
ENDBRANCH   1   8
BRANCH   4  19
ATOM     19  O   UNL     1       0.298  10.661  19.337  0.00  0.00    +0.000 OA
BRANCH  19  20
ATOM     20  C   UNL     1      -0.932  10.679  18.703  0.00  0.00    +0.000 A 
ATOM     21  C   UNL     1      -1.299   9.880  17.611  0.00  0.00    +0.000 A 
ATOM     22  C   UNL     1      -2.538  10.067  16.990  0.00  0.00    +0.000 A 
ATOM     23  C   UNL     1      -3.430  11.001  17.505  0.00  0.00    +0.000 A 
ATOM     24  F   UNL     1      -4.609  11.187  16.897  0.00  0.00    +0.000 F 
ATOM     25  C   UNL     1      -3.119  11.739  18.639  0.00  0.00    +0.000 A 
ATOM     26  C   UNL     1      -1.872  11.571  19.231  0.00  0.00    +0.000 A 
ATOM     27  F   UNL     1      -1.580  12.284  20.327  0.00  0.00    +0.000 F 
ENDBRANCH  19  20
ENDBRANCH   4  19
TORSDOF 3
ENDMDL
MODEL 4
REMARK VINA RESULT:      -8.6      5.722      8.426
REMARK  Name = 
REMARK  3 active torsions:
REMARK  status: ('A' for Active; 'I' for Inactive)
REMARK    1  A    between atoms: C_2  and  C_3
REMARK    2  A    between atoms: C_6  and  O_7
REMARK    3  A    between atoms: O_7  and  C_8
REMARK                            x       y       z     vdW  Elec       q    Type
REMARK                         _______ _______ _______ _____ _____    ______ ____
ROOT
ATOM      1  C   UNL     1       2.424   7.022  18.621  0.00  0.00    +0.000 A 
ATOM      2  C   UNL     1       2.193   8.158  17.839  0.00  0.00    +0.000 A 
ATOM      3  C   UNL     1       1.572   9.269  18.402  0.00  0.00    +0.000 A 
ATOM      4  C   UNL     1       1.113   9.195  19.720  0.00  0.00    +0.000 A 
ATOM      5  C   UNL     1       1.515   8.149  20.546  0.00  0.00    +0.000 A 
ATOM      6  C   UNL     1       2.210   7.072  20.001  0.00  0.00    +0.000 A 
ENDROOT
BRANCH   1   8
ATOM      7  O   UNL     1       1.860   4.886  17.866  0.00  0.00    +0.000 OA
ATOM      8  C   UNL     1       2.745   5.732  17.945  0.00  0.00    +0.000 C 
ATOM      9  N   UNL     1       4.066   5.520  17.506  0.00  0.00    +0.000 N 
ATOM     10  C   UNL     1       4.437   4.173  17.072  0.00  0.00    +0.000 C 
ATOM     11  C   UNL     1       5.219   4.155  15.747  0.00  0.00    +0.000 C 
ATOM     12  C   UNL     1       6.522   4.957  15.712  0.00  0.00    +0.000 C 
ATOM     13  N   UNL     1       6.294   6.392  15.839  0.00  0.00    +0.000 NA
ATOM     14  C   UNL     1       6.191   6.854  17.228  0.00  0.00    +0.000 C 
ATOM     15  C   UNL     1       5.235   6.102  18.192  0.00  0.00    +0.000 C 
ATOM     16  C   UNL     1       5.899   4.897  18.874  0.00  0.00    +0.000 C 
ATOM     17  C   UNL     1       5.267   3.656  18.248  0.00  0.00    +0.000 C 
ATOM     18  H   UNL     1       5.423   6.623  15.356  0.00  0.00    +0.000 HD
ENDBRANCH   1   8
BRANCH   4  19
ATOM     19  O   UNL     1       0.246  10.117  20.260  0.00  0.00    +0.000 OA
BRANCH  19  20
ATOM     20  C   UNL     1       0.254  11.412  19.773  0.00  0.00    +0.000 A 
ATOM     21  C   UNL     1       1.168  12.412  20.131  0.00  0.00    +0.000 A 
ATOM     22  C   UNL     1       1.007  13.715  19.649  0.00  0.00    +0.000 A 
ATOM     23  C   UNL     1      -0.023  13.996  18.759  0.00  0.00    +0.000 A 
ATOM     24  F   UNL     1      -0.183  15.248  18.313  0.00  0.00    +0.000 F 
ATOM     25  C   UNL     1      -0.885  12.998  18.325  0.00  0.00    +0.000 A 
ATOM     26  C   UNL     1      -0.739  11.712  18.834  0.00  0.00    +0.000 A 
ATOM     27  F   UNL     1      -1.572  10.754  18.408  0.00  0.00    +0.000 F 
ENDBRANCH  19  20
ENDBRANCH   4  19
TORSDOF 3
ENDMDL
MODEL 5
REMARK VINA RESULT:      -8.6      6.434      8.558
REMARK  Name = 
REMARK  3 active torsions:
REMARK  status: ('A' for Active; 'I' for Inactive)
REMARK    1  A    between atoms: C_2  and  C_3
REMARK    2  A    between atoms: C_6  and  O_7
REMARK    3  A    between atoms: O_7  and  C_8
REMARK                            x       y       z     vdW  Elec       q    Type
REMARK                         _______ _______ _______ _____ _____    ______ ____
ROOT
ATOM      1  C   UNL     1       0.374   9.772  19.531  0.00  0.00    +0.000 A 
ATOM      2  C   UNL     1       0.469   9.126  20.768  0.00  0.00    +0.000 A 
ATOM      3  C   UNL     1       1.380   8.086  20.935  0.00  0.00    +0.000 A 
ATOM      4  C   UNL     1       2.123   7.651  19.835  0.00  0.00    +0.000 A 
ATOM      5  C   UNL     1       2.169   8.415  18.671  0.00  0.00    +0.000 A 
ATOM      6  C   UNL     1       1.317   9.508  18.534  0.00  0.00    +0.000 A 
ENDROOT
BRANCH   1   8
ATOM      7  O   UNL     1      -1.315  10.557  18.125  0.00  0.00    +0.000 OA
ATOM      8  C   UNL     1      -0.822  10.616  19.247  0.00  0.00    +0.000 C 
ATOM      9  N   UNL     1      -1.273  11.495  20.250  0.00  0.00    +0.000 N 
ATOM     10  C   UNL     1      -2.282  12.490  19.889  0.00  0.00    +0.000 C 
ATOM     11  C   UNL     1      -3.436  12.582  20.900  0.00  0.00    +0.000 C 
ATOM     12  C   UNL     1      -3.052  12.913  22.345  0.00  0.00    +0.000 C 
ATOM     13  N   UNL     1      -2.268  11.852  22.968  0.00  0.00    +0.000 NA
ATOM     14  C   UNL     1      -0.830  11.942  22.695  0.00  0.00    +0.000 C 
ATOM     15  C   UNL     1      -0.362  12.122  21.226  0.00  0.00    +0.000 C 
ATOM     16  C   UNL     1      -0.313  13.593  20.790  0.00  0.00    +0.000 C 
ATOM     17  C   UNL     1      -1.468  13.782  19.809  0.00  0.00    +0.000 C 
ATOM     18  H   UNL     1      -2.608  10.953  22.617  0.00  0.00    +0.000 HD
ENDBRANCH   1   8
BRANCH   4  19
ATOM     19  O   UNL     1       2.819   6.465  19.828  0.00  0.00    +0.000 OA
BRANCH  19  20
ATOM     20  C   UNL     1       2.137   5.286  19.587  0.00  0.00    +0.000 A 
ATOM     21  C   UNL     1       1.339   4.601  20.514  0.00  0.00    +0.000 A 
ATOM     22  C   UNL     1       0.785   3.361  20.182  0.00  0.00    +0.000 A 
ATOM     23  C   UNL     1       0.972   2.845  18.904  0.00  0.00    +0.000 A 
ATOM     24  F   UNL     1       0.453   1.650  18.597  0.00  0.00    +0.000 F 
ATOM     25  C   UNL     1       1.685   3.551  17.945  0.00  0.00    +0.000 A 
ATOM     26  C   UNL     1       2.261   4.768  18.293  0.00  0.00    +0.000 A 
ATOM     27  F   UNL     1       2.944   5.445  17.361  0.00  0.00    +0.000 F 
ENDBRANCH  19  20
ENDBRANCH   4  19
TORSDOF 3
ENDMDL
MODEL 6
REMARK VINA RESULT:      -8.5      6.269      8.451
REMARK  Name = 
REMARK  3 active torsions:
REMARK  status: ('A' for Active; 'I' for Inactive)
REMARK    1  A    between atoms: C_2  and  C_3
REMARK    2  A    between atoms: C_6  and  O_7
REMARK    3  A    between atoms: O_7  and  C_8
REMARK                            x       y       z     vdW  Elec       q    Type
REMARK                         _______ _______ _______ _____ _____    ______ ____
ROOT
ATOM      1  C   UNL     1       0.858   9.466  18.939  0.00  0.00    +0.000 A 
ATOM      2  C   UNL     1       0.959   8.945  20.232  0.00  0.00    +0.000 A 
ATOM      3  C   UNL     1       1.842   7.899  20.488  0.00  0.00    +0.000 A 
ATOM      4  C   UNL     1       2.550   7.332  19.426  0.00  0.00    +0.000 A 
ATOM      5  C   UNL     1       2.596   7.974  18.190  0.00  0.00    +0.000 A 
ATOM      6  C   UNL     1       1.773   9.073  17.958  0.00  0.00    +0.000 A 
ENDROOT
BRANCH   1   8
ATOM      7  O   UNL     1      -0.980  10.004  17.603  0.00  0.00    +0.000 OA
ATOM      8  C   UNL     1      -0.318  10.313  18.590  0.00  0.00    +0.000 C 
ATOM      9  N   UNL     1      -0.561  11.467  19.359  0.00  0.00    +0.000 N 
ATOM     10  C   UNL     1      -1.557  12.421  18.871  0.00  0.00    +0.000 C 
ATOM     11  C   UNL     1      -2.536  12.890  19.960  0.00  0.00    +0.000 C 
ATOM     12  C   UNL     1      -1.919  13.556  21.192  0.00  0.00    +0.000 C 
ATOM     13  N   UNL     1      -1.110  12.630  21.976  0.00  0.00    +0.000 NA
ATOM     14  C   UNL     1       0.273  12.506  21.503  0.00  0.00    +0.000 C 
ATOM     15  C   UNL     1       0.521  12.241  19.994  0.00  0.00    +0.000 C 
ATOM     16  C   UNL     1       0.585  13.531  19.163  0.00  0.00    +0.000 C 
ATOM     17  C   UNL     1      -0.694  13.561  18.329  0.00  0.00    +0.000 C 
ATOM     18  H   UNL     1      -1.548  11.708  21.938  0.00  0.00    +0.000 HD
ENDBRANCH   1   8
BRANCH   4  19
ATOM     19  O   UNL     1       3.212   6.131  19.528  0.00  0.00    +0.000 OA
BRANCH  19  20
ATOM     20  C   UNL     1       2.539   4.965  19.212  0.00  0.00    +0.000 A 
ATOM     21  C   UNL     1       2.406   4.423  17.925  0.00  0.00    +0.000 A 
ATOM     22  C   UNL     1       1.609   3.292  17.720  0.00  0.00    +0.000 A 
ATOM     23  C   UNL     1       1.008   2.668  18.807  0.00  0.00    +0.000 A 
ATOM     24  F   UNL     1       0.234   1.595  18.603  0.00  0.00    +0.000 F 
ATOM     25  C   UNL     1       1.201   3.139  20.099  0.00  0.00    +0.000 A 
ATOM     26  C   UNL     1       1.967   4.283  20.291  0.00  0.00    +0.000 A 
ATOM     27  F   UNL     1       2.152   4.730  21.541  0.00  0.00    +0.000 F 
ENDBRANCH  19  20
ENDBRANCH   4  19
TORSDOF 3
ENDMDL
MODEL 7
REMARK VINA RESULT:      -8.5      6.000      8.335
REMARK  Name = 
REMARK  3 active torsions:
REMARK  status: ('A' for Active; 'I' for Inactive)
REMARK    1  A    between atoms: C_2  and  C_3
REMARK    2  A    between atoms: C_6  and  O_7
REMARK    3  A    between atoms: O_7  and  C_8
REMARK                            x       y       z     vdW  Elec       q    Type
REMARK                         _______ _______ _______ _____ _____    ______ ____
ROOT
ATOM      1  C   UNL     1       2.494   7.111  18.859  0.00  0.00    +0.000 A 
ATOM      2  C   UNL     1       1.963   7.511  20.089  0.00  0.00    +0.000 A 
ATOM      3  C   UNL     1       1.340   8.751  20.201  0.00  0.00    +0.000 A 
ATOM      4  C   UNL     1       1.333   9.610  19.100  0.00  0.00    +0.000 A 
ATOM      5  C   UNL     1       1.683   9.136  17.837  0.00  0.00    +0.000 A 
ATOM      6  C   UNL     1       2.231   7.862  17.710  0.00  0.00    +0.000 A 
ENDROOT
BRANCH   1   8
ATOM      7  O   UNL     1       4.531   6.147  18.248  0.00  0.00    +0.000 OA
ATOM      8  C   UNL     1       3.460   5.976  18.823  0.00  0.00    +0.000 C 
ATOM      9  N   UNL     1       3.063   4.743  19.376  0.00  0.00    +0.000 N 
ATOM     10  C   UNL     1       3.903   3.574  19.124  0.00  0.00    +0.000 C 
ATOM     11  C   UNL     1       4.181   2.739  20.385  0.00  0.00    +0.000 C 
ATOM     12  C   UNL     1       2.956   2.195  21.126  0.00  0.00    +0.000 C 
ATOM     13  N   UNL     1       2.145   3.256  21.711  0.00  0.00    +0.000 NA
ATOM     14  C   UNL     1       1.171   3.837  20.781  0.00  0.00    +0.000 C 
ATOM     15  C   UNL     1       1.660   4.289  19.379  0.00  0.00    +0.000 C 
ATOM     16  C   UNL     1       1.640   3.154  18.345  0.00  0.00    +0.000 C 
ATOM     17  C   UNL     1       3.102   2.802  18.075  0.00  0.00    +0.000 C 
ATOM     18  H   UNL     1       2.770   4.000  22.030  0.00  0.00    +0.000 HD
ENDBRANCH   1   8
BRANCH   4  19
ATOM     19  O   UNL     1       1.007  10.943  19.196  0.00  0.00    +0.000 OA
BRANCH  19  20
ATOM     20  C   UNL     1      -0.324  11.302  19.304  0.00  0.00    +0.000 A 
ATOM     21  C   UNL     1      -1.316  11.058  18.343  0.00  0.00    +0.000 A 
ATOM     22  C   UNL     1      -2.607  11.565  18.522  0.00  0.00    +0.000 A 
ATOM     23  C   UNL     1      -2.919  12.252  19.690  0.00  0.00    +0.000 A 
ATOM     24  F   UNL     1      -4.151  12.749  19.849  0.00  0.00    +0.000 F 
ATOM     25  C   UNL     1      -1.974  12.426  20.691  0.00  0.00    +0.000 A 
ATOM     26  C   UNL     1      -0.684  11.948  20.491  0.00  0.00    +0.000 A 
ATOM     27  F   UNL     1       0.222  12.117  21.464  0.00  0.00    +0.000 F 
ENDBRANCH  19  20
ENDBRANCH   4  19
TORSDOF 3
ENDMDL
MODEL 8
REMARK VINA RESULT:      -8.5      6.076      8.359
REMARK  Name = 
REMARK  3 active torsions:
REMARK  status: ('A' for Active; 'I' for Inactive)
REMARK    1  A    between atoms: C_2  and  C_3
REMARK    2  A    between atoms: C_6  and  O_7
REMARK    3  A    between atoms: O_7  and  C_8
REMARK                            x       y       z     vdW  Elec       q    Type
REMARK                         _______ _______ _______ _____ _____    ______ ____
ROOT
ATOM      1  C   UNL     1       0.887   9.547  19.026  0.00  0.00    +0.000 A 
ATOM      2  C   UNL     1       0.982   8.998  20.308  0.00  0.00    +0.000 A 
ATOM      3  C   UNL     1       1.819   7.907  20.532  0.00  0.00    +0.000 A 
ATOM      4  C   UNL     1       2.484   7.328  19.449  0.00  0.00    +0.000 A 
ATOM      5  C   UNL     1       2.542   7.991  18.224  0.00  0.00    +0.000 A 
ATOM      6  C   UNL     1       1.768   9.131  18.024  0.00  0.00    +0.000 A 
ENDROOT
BRANCH   1   8
ATOM      7  O   UNL     1      -1.023  10.123  17.814  0.00  0.00    +0.000 OA
ATOM      8  C   UNL     1      -0.253  10.454  18.711  0.00  0.00    +0.000 C 
ATOM      9  N   UNL     1      -0.342  11.679  19.399  0.00  0.00    +0.000 N 
ATOM     10  C   UNL     1      -1.308  12.668  18.921  0.00  0.00    +0.000 C 
ATOM     11  C   UNL     1      -2.147  13.294  20.047  0.00  0.00    +0.000 C 
ATOM     12  C   UNL     1      -1.373  14.002  21.162  0.00  0.00    +0.000 C 
ATOM     13  N   UNL     1      -0.563  13.079  21.948  0.00  0.00    +0.000 NA
ATOM     14  C   UNL     1       0.758  12.811  21.369  0.00  0.00    +0.000 C 
ATOM     15  C   UNL     1       0.846  12.413  19.872  0.00  0.00    +0.000 C 
ATOM     16  C   UNL     1       0.926  13.626  18.934  0.00  0.00    +0.000 C 
ATOM     17  C   UNL     1      -0.420  13.692  18.213  0.00  0.00    +0.000 C 
ATOM     18  H   UNL     1      -1.068  12.193  22.024  0.00  0.00    +0.000 HD
ENDBRANCH   1   8
BRANCH   4  19
ATOM     19  O   UNL     1       3.091   6.096  19.519  0.00  0.00    +0.000 OA
BRANCH  19  20
ATOM     20  C   UNL     1       2.324   4.959  19.338  0.00  0.00    +0.000 A 
ATOM     21  C   UNL     1       1.411   4.435  20.265  0.00  0.00    +0.000 A 
ATOM     22  C   UNL     1       0.772   3.217  20.009  0.00  0.00    +0.000 A 
ATOM     23  C   UNL     1       0.994   2.566  18.801  0.00  0.00    +0.000 A 
ATOM     24  F   UNL     1       0.393   1.393  18.568  0.00  0.00    +0.000 F 
ATOM     25  C   UNL     1       1.826   3.115  17.835  0.00  0.00    +0.000 A 
ATOM     26  C   UNL     1       2.483   4.309  18.110  0.00  0.00    +0.000 A 
ATOM     27  F   UNL     1       3.282   4.834  17.171  0.00  0.00    +0.000 F 
ENDBRANCH  19  20
ENDBRANCH   4  19
TORSDOF 3
ENDMDL
MODEL 9
REMARK VINA RESULT:      -8.4      5.643      8.351
REMARK  Name = 
REMARK  3 active torsions:
REMARK  status: ('A' for Active; 'I' for Inactive)
REMARK    1  A    between atoms: C_2  and  C_3
REMARK    2  A    between atoms: C_6  and  O_7
REMARK    3  A    between atoms: O_7  and  C_8
REMARK                            x       y       z     vdW  Elec       q    Type
REMARK                         _______ _______ _______ _____ _____    ______ ____
ROOT
ATOM      1  C   UNL     1       2.398   6.966  18.662  0.00  0.00    +0.000 A 
ATOM      2  C   UNL     1       2.153   8.136  17.937  0.00  0.00    +0.000 A 
ATOM      3  C   UNL     1       1.541   9.220  18.562  0.00  0.00    +0.000 A 
ATOM      4  C   UNL     1       1.104   9.084  19.883  0.00  0.00    +0.000 A 
ATOM      5  C   UNL     1       1.521   8.001  20.653  0.00  0.00    +0.000 A 
ATOM      6  C   UNL     1       2.208   6.952  20.046  0.00  0.00    +0.000 A 
ENDROOT
BRANCH   1   8
ATOM      7  O   UNL     1       1.815   4.879  17.793  0.00  0.00    +0.000 OA
ATOM      8  C   UNL     1       2.709   5.709  17.922  0.00  0.00    +0.000 C 
ATOM      9  N   UNL     1       4.030   5.504  17.481  0.00  0.00    +0.000 N 
ATOM     10  C   UNL     1       4.389   4.178  16.979  0.00  0.00    +0.000 C 
ATOM     11  C   UNL     1       5.179   4.219  15.660  0.00  0.00    +0.000 C 
ATOM     12  C   UNL     1       6.492   5.005  15.676  0.00  0.00    +0.000 C 
ATOM     13  N   UNL     1       6.280   6.435  15.876  0.00  0.00    +0.000 NA
ATOM     14  C   UNL     1       6.173   6.825  17.286  0.00  0.00    +0.000 C 
ATOM     15  C   UNL     1       5.201   6.035  18.203  0.00  0.00    +0.000 C 
ATOM     16  C   UNL     1       5.846   4.789  18.826  0.00  0.00    +0.000 C 
ATOM     17  C   UNL     1       5.204   3.589  18.132  0.00  0.00    +0.000 C 
ATOM     18  H   UNL     1       5.416   6.701  15.400  0.00  0.00    +0.000 HD
ENDBRANCH   1   8
BRANCH   4  19
ATOM     19  O   UNL     1       0.246   9.978  20.479  0.00  0.00    +0.000 OA
BRANCH  19  20
ATOM     20  C   UNL     1      -0.018  11.180  19.847  0.00  0.00    +0.000 A 
ATOM     21  C   UNL     1      -1.040  11.404  18.914  0.00  0.00    +0.000 A 
ATOM     22  C   UNL     1      -1.138  12.638  18.264  0.00  0.00    +0.000 A 
ATOM     23  C   UNL     1      -0.261  13.663  18.600  0.00  0.00    +0.000 A 
ATOM     24  F   UNL     1      -0.349  14.837  17.963  0.00  0.00    +0.000 F 
ATOM     25  C   UNL     1       0.701  13.487  19.585  0.00  0.00    +0.000 A 
ATOM     26  C   UNL     1       0.815  12.247  20.203  0.00  0.00    +0.000 A 
ATOM     27  F   UNL     1       1.743  12.086  21.155  0.00  0.00    +0.000 F 
ENDBRANCH  19  20
ENDBRANCH   4  19
TORSDOF 3
ENDMDL
