MODEL 1
REMARK VINA RESULT:      -7.5      0.000      0.000
REMARK  Name = 
REMARK  5 active torsions:
REMARK  status: ('A' for Active; 'I' for Inactive)
REMARK    1  A    between atoms: C_1  and  C_2
REMARK    2  A    between atoms: C_7  and  C_8
REMARK    3  A    between atoms: C_12  and  C_13
REMARK    4  A    between atoms: C_13  and  C_14
REMARK    5  A    between atoms: C_23  and  C_24
REMARK                            x       y       z     vdW  Elec       q    Type
REMARK                         _______ _______ _______ _____ _____    ______ ____
ROOT
ATOM      1  C   UNL     1       5.425   6.700  17.007  0.00  0.00    +0.000 C 
ATOM      2  O   UNL     1       5.152   6.944  15.835  0.00  0.00    +0.000 OA
ATOM      3  N   UNL     1       6.714   6.837  17.474  0.00  0.00    +0.000 N 
ATOM      4  C   UNL     1       7.840   7.362  16.703  0.00  0.00    +0.000 C 
ATOM      5  C   UNL     1       8.228   8.189  17.938  0.00  0.00    +0.000 C 
ATOM      6  C   UNL     1       7.196   7.380  18.740  0.00  0.00    +0.000 C 
ENDROOT
BRANCH   1  13
ATOM      7  C   UNL     1       1.476   2.560  21.668  0.00  0.00    +0.000 C 
ATOM      8  C   UNL     1       2.001   3.636  20.793  0.00  0.00    +0.000 A 
ATOM      9  C   UNL     1       1.407   4.877  20.522  0.00  0.00    +0.000 A 
ATOM     10  C   UNL     1       2.287   5.526  19.694  0.00  0.00    +0.000 A 
ATOM     11  N   UNL     1       2.253   6.778  19.169  0.00  0.00    +0.000 NA
ATOM     12  C   UNL     1       3.255   7.079  18.405  0.00  0.00    +0.000 A 
ATOM     13  C   UNL     1       4.396   6.200  17.981  0.00  0.00    +0.000 A 
ATOM     14  C   UNL     1       4.424   4.995  18.613  0.00  0.00    +0.000 A 
ATOM     15  C   UNL     1       5.490   3.935  18.503  0.00  0.00    +0.000 C 
ATOM     16  N   UNL     1       3.356   4.651  19.471  0.00  0.00    +0.000 N 
ATOM     17  N   UNL     1       3.173   3.490  20.163  0.00  0.00    +0.000 NA
ENDBRANCH   1  13
BRANCH   5  18
ATOM     18  C   UNL     1       7.971   9.690  17.842  0.00  0.00    +0.000 C 
BRANCH  18  19
ATOM     19  C   UNL     1       9.139  10.428  18.457  0.00  0.00    +0.000 A 
ATOM     20  C   UNL     1      10.181  10.916  17.650  0.00  0.00    +0.000 A 
ATOM     21  C   UNL     1      11.209  11.681  18.207  0.00  0.00    +0.000 A 
ATOM     22  C   UNL     1      11.206  11.947  19.572  0.00  0.00    +0.000 A 
ATOM     23  F   UNL     1      12.188  12.691  20.100  0.00  0.00    +0.000 F 
ATOM     24  C   UNL     1      10.190  11.453  20.380  0.00  0.00    +0.000 A 
ATOM     25  F   UNL     1      10.186  11.713  21.694  0.00  0.00    +0.000 F 
ATOM     26  C   UNL     1       9.156  10.699  19.833  0.00  0.00    +0.000 A 
ENDBRANCH  18  19
ENDBRANCH   5  18
TORSDOF 3
ENDMDL
MODEL 2
REMARK VINA RESULT:      -7.4      5.577      7.484
REMARK  Name = 
REMARK  5 active torsions:
REMARK  status: ('A' for Active; 'I' for Inactive)
REMARK    1  A    between atoms: C_1  and  C_2
REMARK    2  A    between atoms: C_7  and  C_8
REMARK    3  A    between atoms: C_12  and  C_13
REMARK    4  A    between atoms: C_13  and  C_14
REMARK    5  A    between atoms: C_23  and  C_24
REMARK                            x       y       z     vdW  Elec       q    Type
REMARK                         _______ _______ _______ _____ _____    ______ ____
ROOT
ATOM      1  C   UNL     1       2.994   6.178  19.327  0.00  0.00    +0.000 C 
ATOM      2  O   UNL     1       2.469   5.260  19.953  0.00  0.00    +0.000 OA
ATOM      3  N   UNL     1       4.261   6.040  18.804  0.00  0.00    +0.000 N 
ATOM      4  C   UNL     1       5.059   4.815  18.833  0.00  0.00    +0.000 C 
ATOM      5  C   UNL     1       5.420   5.081  17.365  0.00  0.00    +0.000 C 
ATOM      6  C   UNL     1       4.792   6.476  17.516  0.00  0.00    +0.000 C 
ENDROOT
BRANCH   1  13
ATOM      7  C   UNL     1      -1.050  12.286  20.227  0.00  0.00    +0.000 C 
ATOM      8  C   UNL     1      -0.181  11.200  19.711  0.00  0.00    +0.000 A 
ATOM      9  C   UNL     1       0.367  11.087  18.424  0.00  0.00    +0.000 A 
ATOM     10  C   UNL     1       1.118   9.940  18.450  0.00  0.00    +0.000 A 
ATOM     11  N   UNL     1       1.912   9.378  17.503  0.00  0.00    +0.000 NA
ATOM     12  C   UNL     1       2.482   8.269  17.854  0.00  0.00    +0.000 A 
ATOM     13  C   UNL     1       2.317   7.505  19.136  0.00  0.00    +0.000 A 
ATOM     14  C   UNL     1       1.587   8.164  20.076  0.00  0.00    +0.000 A 
ATOM     15  C   UNL     1       1.332   7.732  21.499  0.00  0.00    +0.000 C 
ATOM     16  N   UNL     1       0.975   9.388  19.729  0.00  0.00    +0.000 N 
ATOM     17  N   UNL     1       0.178  10.182  20.502  0.00  0.00    +0.000 NA
ENDBRANCH   1  13
BRANCH   5  18
ATOM     18  C   UNL     1       4.762   4.162  16.340  0.00  0.00    +0.000 C 
BRANCH  18  19
ATOM     19  C   UNL     1       5.511   4.270  15.031  0.00  0.00    +0.000 A 
ATOM     20  C   UNL     1       6.740   4.951  14.964  0.00  0.00    +0.000 A 
ATOM     21  C   UNL     1       7.477   4.966  13.777  0.00  0.00    +0.000 A 
ATOM     22  C   UNL     1       6.982   4.316  12.652  0.00  0.00    +0.000 A 
ATOM     23  F   UNL     1       7.698   4.324  11.519  0.00  0.00    +0.000 F 
ATOM     24  C   UNL     1       5.760   3.656  12.704  0.00  0.00    +0.000 A 
ATOM     25  F   UNL     1       5.288   3.028  11.620  0.00  0.00    +0.000 F 
ATOM     26  C   UNL     1       5.024   3.626  13.884  0.00  0.00    +0.000 A 
ENDBRANCH  18  19
ENDBRANCH   5  18
TORSDOF 3
ENDMDL
MODEL 3
REMARK VINA RESULT:      -7.4      5.186      7.219
REMARK  Name = 
REMARK  5 active torsions:
REMARK  status: ('A' for Active; 'I' for Inactive)
REMARK    1  A    between atoms: C_1  and  C_2
REMARK    2  A    between atoms: C_7  and  C_8
REMARK    3  A    between atoms: C_12  and  C_13
REMARK    4  A    between atoms: C_13  and  C_14
REMARK    5  A    between atoms: C_23  and  C_24
REMARK                            x       y       z     vdW  Elec       q    Type
REMARK                         _______ _______ _______ _____ _____    ______ ____
ROOT
ATOM      1  C   UNL     1       3.183   6.042  19.086  0.00  0.00    +0.000 C 
ATOM      2  O   UNL     1       2.710   5.092  19.706  0.00  0.00    +0.000 OA
ATOM      3  N   UNL     1       4.426   5.952  18.499  0.00  0.00    +0.000 N 
ATOM      4  C   UNL     1       5.252   4.747  18.449  0.00  0.00    +0.000 C 
ATOM      5  C   UNL     1       5.535   5.068  16.975  0.00  0.00    +0.000 C 
ATOM      6  C   UNL     1       4.883   6.441  17.202  0.00  0.00    +0.000 C 
ENDROOT
BRANCH   1  13
ATOM      7  C   UNL     1      -1.035  11.968  20.335  0.00  0.00    +0.000 C 
ATOM      8  C   UNL     1      -0.137  10.939  19.757  0.00  0.00    +0.000 A 
ATOM      9  C   UNL     1       0.409  10.915  18.465  0.00  0.00    +0.000 A 
ATOM     10  C   UNL     1       1.194   9.790  18.425  0.00  0.00    +0.000 A 
ATOM     11  N   UNL     1       2.001   9.306  17.446  0.00  0.00    +0.000 NA
ATOM     12  C   UNL     1       2.604   8.196  17.733  0.00  0.00    +0.000 A 
ATOM     13  C   UNL     1       2.466   7.358  18.971  0.00  0.00    +0.000 A 
ATOM     14  C   UNL     1       1.721   7.941  19.948  0.00  0.00    +0.000 A 
ATOM     15  C   UNL     1       1.484   7.422  21.344  0.00  0.00    +0.000 C 
ATOM     16  N   UNL     1       1.072   9.164  19.671  0.00  0.00    +0.000 N 
ATOM     17  N   UNL     1       0.254   9.889  20.489  0.00  0.00    +0.000 NA
ENDBRANCH   1  13
BRANCH   5  18
ATOM     18  C   UNL     1       4.849   4.165  15.953  0.00  0.00    +0.000 C 
BRANCH  18  19
ATOM     19  C   UNL     1       5.656   4.171  14.674  0.00  0.00    +0.000 A 
ATOM     20  C   UNL     1       5.200   3.482  13.537  0.00  0.00    +0.000 A 
ATOM     21  C   UNL     1       5.897   3.569  12.329  0.00  0.00    +0.000 A 
ATOM     22  C   UNL     1       7.057   4.331  12.258  0.00  0.00    +0.000 A 
ATOM     23  F   UNL     1       7.715   4.421  11.095  0.00  0.00    +0.000 F 
ATOM     24  C   UNL     1       7.525   5.002  13.381  0.00  0.00    +0.000 A 
ATOM     25  F   UNL     1       8.641   5.739  13.310  0.00  0.00    +0.000 F 
ATOM     26  C   UNL     1       6.832   4.930  14.586  0.00  0.00    +0.000 A 
ENDBRANCH  18  19
ENDBRANCH   5  18
TORSDOF 3
ENDMDL
MODEL 4
REMARK VINA RESULT:      -7.3      5.173      7.956
REMARK  Name = 
REMARK  5 active torsions:
REMARK  status: ('A' for Active; 'I' for Inactive)
REMARK    1  A    between atoms: C_1  and  C_2
REMARK    2  A    between atoms: C_7  and  C_8
REMARK    3  A    between atoms: C_12  and  C_13
REMARK    4  A    between atoms: C_13  and  C_14
REMARK    5  A    between atoms: C_23  and  C_24
REMARK                            x       y       z     vdW  Elec       q    Type
REMARK                         _______ _______ _______ _____ _____    ______ ____
ROOT
ATOM      1  C   UNL     1       4.480   5.470  18.966  0.00  0.00    +0.000 C 
ATOM      2  O   UNL     1       5.080   5.271  20.019  0.00  0.00    +0.000 OA
ATOM      3  N   UNL     1       3.140   5.790  18.969  0.00  0.00    +0.000 N 
ATOM      4  C   UNL     1       2.329   6.025  20.162  0.00  0.00    +0.000 C 
ATOM      5  C   UNL     1       1.732   7.247  19.449  0.00  0.00    +0.000 C 
ATOM      6  C   UNL     1       2.410   6.761  18.159  0.00  0.00    +0.000 C 
ENDROOT
BRANCH   1  13
ATOM      7  C   UNL     1       6.401   3.314  12.174  0.00  0.00    +0.000 C 
ATOM      8  C   UNL     1       6.304   3.971  13.501  0.00  0.00    +0.000 A 
ATOM      9  C   UNL     1       7.173   4.932  14.039  0.00  0.00    +0.000 A 
ATOM     10  C   UNL     1       6.645   5.252  15.264  0.00  0.00    +0.000 A 
ATOM     11  N   UNL     1       7.038   6.165  16.188  0.00  0.00    +0.000 NA
ATOM     12  C   UNL     1       6.311   6.206  17.260  0.00  0.00    +0.000 A 
ATOM     13  C   UNL     1       5.146   5.332  17.627  0.00  0.00    +0.000 A 
ATOM     14  C   UNL     1       4.745   4.505  16.624  0.00  0.00    +0.000 A 
ATOM     15  C   UNL     1       3.546   3.590  16.624  0.00  0.00    +0.000 C 
ATOM     16  N   UNL     1       5.504   4.458  15.434  0.00  0.00    +0.000 N 
ATOM     17  N   UNL     1       5.299   3.678  14.334  0.00  0.00    +0.000 NA
ENDBRANCH   1  13
BRANCH   5  18
ATOM     18  C   UNL     1       2.186   8.608  19.968  0.00  0.00    +0.000 C 
BRANCH  18  19
ATOM     19  C   UNL     1       1.113   9.171  20.873  0.00  0.00    +0.000 A 
ATOM     20  C   UNL     1       1.072   8.827  22.235  0.00  0.00    +0.000 A 
ATOM     21  C   UNL     1       0.140   9.423  23.089  0.00  0.00    +0.000 A 
ATOM     22  C   UNL     1      -0.761  10.351  22.581  0.00  0.00    +0.000 A 
ATOM     23  F   UNL     1      -1.646  10.928  23.406  0.00  0.00    +0.000 F 
ATOM     24  C   UNL     1      -0.741  10.684  21.233  0.00  0.00    +0.000 A 
ATOM     25  F   UNL     1      -1.608  11.581  20.747  0.00  0.00    +0.000 F 
ATOM     26  C   UNL     1       0.191  10.104  20.377  0.00  0.00    +0.000 A 
ENDBRANCH  18  19
ENDBRANCH   5  18
TORSDOF 3
ENDMDL
MODEL 5
REMARK VINA RESULT:      -7.3      6.744      9.040
REMARK  Name = 
REMARK  5 active torsions:
REMARK  status: ('A' for Active; 'I' for Inactive)
REMARK    1  A    between atoms: C_1  and  C_2
REMARK    2  A    between atoms: C_7  and  C_8
REMARK    3  A    between atoms: C_12  and  C_13
REMARK    4  A    between atoms: C_13  and  C_14
REMARK    5  A    between atoms: C_23  and  C_24
REMARK                            x       y       z     vdW  Elec       q    Type
REMARK                         _______ _______ _______ _____ _____    ______ ____
ROOT
ATOM      1  C   UNL     1       1.077  11.932  19.624  0.00  0.00    +0.000 C 
ATOM      2  O   UNL     1       2.171  12.461  19.799  0.00  0.00    +0.000 OA
ATOM      3  N   UNL     1       0.912  10.955  18.666  0.00  0.00    +0.000 N 
ATOM      4  C   UNL     1       1.982  10.380  17.852  0.00  0.00    +0.000 C 
ATOM      5  C   UNL     1       1.371   8.998  18.125  0.00  0.00    +0.000 C 
ATOM      6  C   UNL     1       0.148   9.712  18.721  0.00  0.00    +0.000 C 
ENDROOT
BRANCH   1  13
ATOM      7  C   UNL     1      -4.434  12.321  24.518  0.00  0.00    +0.000 C 
ATOM      8  C   UNL     1      -3.502  12.528  23.382  0.00  0.00    +0.000 A 
ATOM      9  C   UNL     1      -3.621  13.465  22.345  0.00  0.00    +0.000 A 
ATOM     10  C   UNL     1      -2.504  13.289  21.569  0.00  0.00    +0.000 A 
ATOM     11  N   UNL     1      -2.070  13.961  20.472  0.00  0.00    +0.000 NA
ATOM     12  C   UNL     1      -0.960  13.525  19.966  0.00  0.00    +0.000 A 
ATOM     13  C   UNL     1      -0.144  12.342  20.398  0.00  0.00    +0.000 A 
ATOM     14  C   UNL     1      -0.577  11.770  21.554  0.00  0.00    +0.000 A 
ATOM     15  C   UNL     1       0.080  10.646  22.315  0.00  0.00    +0.000 C 
ATOM     16  N   UNL     1      -1.772  12.241  22.141  0.00  0.00    +0.000 N 
ATOM     17  N   UNL     1      -2.394  11.786  23.267  0.00  0.00    +0.000 NA
ENDBRANCH   1  13
BRANCH   5  18
ATOM     18  C   UNL     1       2.152   8.102  19.082  0.00  0.00    +0.000 C 
BRANCH  18  19
ATOM     19  C   UNL     1       2.781   6.974  18.296  0.00  0.00    +0.000 A 
ATOM     20  C   UNL     1       3.972   7.178  17.578  0.00  0.00    +0.000 A 
ATOM     21  C   UNL     1       4.602   6.111  16.933  0.00  0.00    +0.000 A 
ATOM     22  C   UNL     1       4.036   4.843  16.990  0.00  0.00    +0.000 A 
ATOM     23  F   UNL     1       4.650   3.820  16.379  0.00  0.00    +0.000 F 
ATOM     24  C   UNL     1       2.849   4.634  17.681  0.00  0.00    +0.000 A 
ATOM     25  F   UNL     1       2.308   3.411  17.737  0.00  0.00    +0.000 F 
ATOM     26  C   UNL     1       2.220   5.689  18.336  0.00  0.00    +0.000 A 
ENDBRANCH  18  19
ENDBRANCH   5  18
TORSDOF 3
ENDMDL
MODEL 6
REMARK VINA RESULT:      -7.3      4.889      8.018
REMARK  Name = 
REMARK  5 active torsions:
REMARK  status: ('A' for Active; 'I' for Inactive)
REMARK    1  A    between atoms: C_1  and  C_2
REMARK    2  A    between atoms: C_7  and  C_8
REMARK    3  A    between atoms: C_12  and  C_13
REMARK    4  A    between atoms: C_13  and  C_14
REMARK    5  A    between atoms: C_23  and  C_24
REMARK                            x       y       z     vdW  Elec       q    Type
REMARK                         _______ _______ _______ _____ _____    ______ ____
ROOT
ATOM      1  C   UNL     1       4.608   5.207  19.041  0.00  0.00    +0.000 C 
ATOM      2  O   UNL     1       5.350   5.241  20.020  0.00  0.00    +0.000 OA
ATOM      3  N   UNL     1       3.255   5.430  19.175  0.00  0.00    +0.000 N 
ATOM      4  C   UNL     1       2.580   5.817  20.412  0.00  0.00    +0.000 C 
ATOM      5  C   UNL     1       1.790   6.848  19.594  0.00  0.00    +0.000 C 
ATOM      6  C   UNL     1       2.344   6.188  18.322  0.00  0.00    +0.000 C 
ENDROOT
BRANCH   1  13
ATOM      7  C   UNL     1       8.165   5.283  12.575  0.00  0.00    +0.000 C 
ATOM      8  C   UNL     1       7.280   4.978  13.726  0.00  0.00    +0.000 A 
ATOM      9  C   UNL     1       6.300   3.976  13.802  0.00  0.00    +0.000 A 
ATOM     10  C   UNL     1       5.784   4.072  15.069  0.00  0.00    +0.000 A 
ATOM     11  N   UNL     1       4.853   3.317  15.708  0.00  0.00    +0.000 NA
ATOM     12  C   UNL     1       4.582   3.691  16.918  0.00  0.00    +0.000 A 
ATOM     13  C   UNL     1       5.113   4.880  17.664  0.00  0.00    +0.000 A 
ATOM     14  C   UNL     1       6.107   5.539  17.009  0.00  0.00    +0.000 A 
ATOM     15  C   UNL     1       6.927   6.695  17.525  0.00  0.00    +0.000 C 
ATOM     16  N   UNL     1       6.441   5.137  15.697  0.00  0.00    +0.000 N 
ATOM     17  N   UNL     1       7.370   5.683  14.859  0.00  0.00    +0.000 NA
ENDBRANCH   1  13
BRANCH   5  18
ATOM     18  C   UNL     1       2.178   8.308  19.811  0.00  0.00    +0.000 C 
BRANCH  18  19
ATOM     19  C   UNL     1       1.150   8.961  20.708  0.00  0.00    +0.000 A 
ATOM     20  C   UNL     1       1.163   8.735  22.095  0.00  0.00    +0.000 A 
ATOM     21  C   UNL     1       0.274   9.414  22.932  0.00  0.00    +0.000 A 
ATOM     22  C   UNL     1      -0.638  10.308  22.384  0.00  0.00    +0.000 A 
ATOM     23  F   UNL     1      -1.481  10.966  23.192  0.00  0.00    +0.000 F 
ATOM     24  C   UNL     1      -0.672  10.525  21.012  0.00  0.00    +0.000 A 
ATOM     25  F   UNL     1      -1.549  11.389  20.487  0.00  0.00    +0.000 F 
ATOM     26  C   UNL     1       0.217   9.861  20.171  0.00  0.00    +0.000 A 
ENDBRANCH  18  19
ENDBRANCH   5  18
TORSDOF 3
ENDMDL
MODEL 7
REMARK VINA RESULT:      -7.2      5.119      7.901
REMARK  Name = 
REMARK  5 active torsions:
REMARK  status: ('A' for Active; 'I' for Inactive)
REMARK    1  A    between atoms: C_1  and  C_2
REMARK    2  A    between atoms: C_7  and  C_8
REMARK    3  A    between atoms: C_12  and  C_13
REMARK    4  A    between atoms: C_13  and  C_14
REMARK    5  A    between atoms: C_23  and  C_24
REMARK                            x       y       z     vdW  Elec       q    Type
REMARK                         _______ _______ _______ _____ _____    ______ ____
ROOT
ATOM      1  C   UNL     1       4.601   5.300  18.948  0.00  0.00    +0.000 C 
ATOM      2  O   UNL     1       5.211   5.103  19.996  0.00  0.00    +0.000 OA
ATOM      3  N   UNL     1       3.250   5.568  18.960  0.00  0.00    +0.000 N 
ATOM      4  C   UNL     1       2.433   5.748  20.159  0.00  0.00    +0.000 C 
ATOM      5  C   UNL     1       1.789   6.960  19.472  0.00  0.00    +0.000 C 
ATOM      6  C   UNL     1       2.481   6.526  18.171  0.00  0.00    +0.000 C 
ENDROOT
BRANCH   1  13
ATOM      7  C   UNL     1       6.570   3.373  12.102  0.00  0.00    +0.000 C 
ATOM      8  C   UNL     1       6.458   3.993  13.444  0.00  0.00    +0.000 A 
ATOM      9  C   UNL     1       7.301   4.963  14.006  0.00  0.00    +0.000 A 
ATOM     10  C   UNL     1       6.766   5.237  15.240  0.00  0.00    +0.000 A 
ATOM     11  N   UNL     1       7.135   6.136  16.187  0.00  0.00    +0.000 NA
ATOM     12  C   UNL     1       6.409   6.130  17.260  0.00  0.00    +0.000 A 
ATOM     13  C   UNL     1       5.269   5.215  17.605  0.00  0.00    +0.000 A 
ATOM     14  C   UNL     1       4.889   4.404  16.582  0.00  0.00    +0.000 A 
ATOM     15  C   UNL     1       3.715   3.457  16.559  0.00  0.00    +0.000 C 
ATOM     16  N   UNL     1       5.648   4.408  15.391  0.00  0.00    +0.000 N 
ATOM     17  N   UNL     1       5.462   3.651  14.271  0.00  0.00    +0.000 NA
ENDBRANCH   1  13
BRANCH   5  18
ATOM     18  C   UNL     1       2.191   8.327  20.018  0.00  0.00    +0.000 C 
BRANCH  18  19
ATOM     19  C   UNL     1       1.053   9.297  19.797  0.00  0.00    +0.000 A 
ATOM     20  C   UNL     1       0.593   9.578  18.498  0.00  0.00    +0.000 A 
ATOM     21  C   UNL     1      -0.520  10.399  18.302  0.00  0.00    +0.000 A 
ATOM     22  C   UNL     1      -1.167  10.952  19.401  0.00  0.00    +0.000 A 
ATOM     23  F   UNL     1      -2.242  11.730  19.209  0.00  0.00    +0.000 F 
ATOM     24  C   UNL     1      -0.710  10.696  20.688  0.00  0.00    +0.000 A 
ATOM     25  F   UNL     1      -1.337  11.228  21.744  0.00  0.00    +0.000 F 
ATOM     26  C   UNL     1       0.392   9.871  20.893  0.00  0.00    +0.000 A 
ENDBRANCH  18  19
ENDBRANCH   5  18
TORSDOF 3
ENDMDL
MODEL 8
REMARK VINA RESULT:      -7.2      0.602      1.277
REMARK  Name = 
REMARK  5 active torsions:
REMARK  status: ('A' for Active; 'I' for Inactive)
REMARK    1  A    between atoms: C_1  and  C_2
REMARK    2  A    between atoms: C_7  and  C_8
REMARK    3  A    between atoms: C_12  and  C_13
REMARK    4  A    between atoms: C_13  and  C_14
REMARK    5  A    between atoms: C_23  and  C_24
REMARK                            x       y       z     vdW  Elec       q    Type
REMARK                         _______ _______ _______ _____ _____    ______ ____
ROOT
ATOM      1  C   UNL     1       5.331   6.621  16.925  0.00  0.00    +0.000 C 
ATOM      2  O   UNL     1       5.062   6.793  15.739  0.00  0.00    +0.000 OA
ATOM      3  N   UNL     1       6.617   6.798  17.389  0.00  0.00    +0.000 N 
ATOM      4  C   UNL     1       7.742   7.288  16.594  0.00  0.00    +0.000 C 
ATOM      5  C   UNL     1       8.116   8.188  17.780  0.00  0.00    +0.000 C 
ATOM      6  C   UNL     1       7.088   7.418  18.623  0.00  0.00    +0.000 C 
ENDROOT
BRANCH   1  13
ATOM      7  C   UNL     1       1.320   2.674  21.700  0.00  0.00    +0.000 C 
ATOM      8  C   UNL     1       1.868   3.721  20.804  0.00  0.00    +0.000 A 
ATOM      9  C   UNL     1       1.312   4.980  20.527  0.00  0.00    +0.000 A 
ATOM     10  C   UNL     1       2.200   5.588  19.677  0.00  0.00    +0.000 A 
ATOM     11  N   UNL     1       2.201   6.834  19.137  0.00  0.00    +0.000 NA
ATOM     12  C   UNL     1       3.199   7.091  18.354  0.00  0.00    +0.000 A 
ATOM     13  C   UNL     1       4.302   6.168  17.922  0.00  0.00    +0.000 A 
ATOM     14  C   UNL     1       4.299   4.971  18.567  0.00  0.00    +0.000 A 
ATOM     15  C   UNL     1       5.326   3.872  18.453  0.00  0.00    +0.000 C 
ATOM     16  N   UNL     1       3.235   4.674  19.447  0.00  0.00    +0.000 N 
ATOM     17  N   UNL     1       3.023   3.527  20.157  0.00  0.00    +0.000 NA
ENDBRANCH   1  13
BRANCH   5  18
ATOM     18  C   UNL     1       7.844   9.679  17.596  0.00  0.00    +0.000 C 
BRANCH  18  19
ATOM     19  C   UNL     1       8.913  10.465  18.322  0.00  0.00    +0.000 A 
ATOM     20  C   UNL     1       9.246  10.160  19.653  0.00  0.00    +0.000 A 
ATOM     21  C   UNL     1      10.299  10.822  20.289  0.00  0.00    +0.000 A 
ATOM     22  C   UNL     1      11.011  11.799  19.603  0.00  0.00    +0.000 A 
ATOM     23  F   UNL     1      12.027  12.424  20.214  0.00  0.00    +0.000 F 
ATOM     24  C   UNL     1      10.677  12.121  18.294  0.00  0.00    +0.000 A 
ATOM     25  F   UNL     1      11.366  13.061  17.634  0.00  0.00    +0.000 F 
ATOM     26  C   UNL     1       9.637  11.460  17.648  0.00  0.00    +0.000 A 
ENDBRANCH  18  19
ENDBRANCH   5  18
TORSDOF 3
ENDMDL
MODEL 9
REMARK VINA RESULT:      -7.2      6.842      9.208
REMARK  Name = 
REMARK  5 active torsions:
REMARK  status: ('A' for Active; 'I' for Inactive)
REMARK    1  A    between atoms: C_1  and  C_2
REMARK    2  A    between atoms: C_7  and  C_8
REMARK    3  A    between atoms: C_12  and  C_13
REMARK    4  A    between atoms: C_13  and  C_14
REMARK    5  A    between atoms: C_23  and  C_24
REMARK                            x       y       z     vdW  Elec       q    Type
REMARK                         _______ _______ _______ _____ _____    ______ ____
ROOT
ATOM      1  C   UNL     1       0.765  12.070  20.183  0.00  0.00    +0.000 C 
ATOM      2  O   UNL     1       1.843  12.579  20.481  0.00  0.00    +0.000 OA
ATOM      3  N   UNL     1       0.683  11.129  19.180  0.00  0.00    +0.000 N 
ATOM      4  C   UNL     1       1.820  10.567  18.453  0.00  0.00    +0.000 C 
ATOM      5  C   UNL     1       1.172   9.185  18.618  0.00  0.00    +0.000 C 
ATOM      6  C   UNL     1      -0.095   9.896  19.119  0.00  0.00    +0.000 C 
ENDROOT
BRANCH   1  13
ATOM      7  C   UNL     1      -5.167  12.389  24.563  0.00  0.00    +0.000 C 
ATOM      8  C   UNL     1      -4.135  12.614  23.521  0.00  0.00    +0.000 A 
ATOM      9  C   UNL     1      -4.157  13.571  22.495  0.00  0.00    +0.000 A 
ATOM     10  C   UNL     1      -2.974  13.405  21.821  0.00  0.00    +0.000 A 
ATOM     11  N   UNL     1      -2.441  14.096  20.781  0.00  0.00    +0.000 NA
ATOM     12  C   UNL     1      -1.291  13.666  20.369  0.00  0.00    +0.000 A 
ATOM     13  C   UNL     1      -0.520  12.471  20.851  0.00  0.00    +0.000 A 
ATOM     14  C   UNL     1      -1.058  11.879  21.951  0.00  0.00    +0.000 A 
ATOM     15  C   UNL     1      -0.476  10.738  22.747  0.00  0.00    +0.000 C 
ATOM     16  N   UNL     1      -2.300  12.344  22.437  0.00  0.00    +0.000 N 
ATOM     17  N   UNL     1      -3.023  11.870  23.492  0.00  0.00    +0.000 NA
ENDBRANCH   1  13
BRANCH   5  18
ATOM     18  C   UNL     1       1.848   8.247  19.614  0.00  0.00    +0.000 C 
BRANCH  18  19
ATOM     19  C   UNL     1       2.577   7.164  18.850  0.00  0.00    +0.000 A 
ATOM     20  C   UNL     1       2.302   5.808  19.094  0.00  0.00    +0.000 A 
ATOM     21  C   UNL     1       2.904   4.812  18.320  0.00  0.00    +0.000 A 
ATOM     22  C   UNL     1       3.794   5.169  17.313  0.00  0.00    +0.000 A 
ATOM     23  F   UNL     1       4.361   4.212  16.567  0.00  0.00    +0.000 F 
ATOM     24  C   UNL     1       4.087   6.507  17.077  0.00  0.00    +0.000 A 
ATOM     25  F   UNL     1       4.942   6.848  16.105  0.00  0.00    +0.000 F 
ATOM     26  C   UNL     1       3.483   7.506  17.836  0.00  0.00    +0.000 A 
ENDBRANCH  18  19
ENDBRANCH   5  18
TORSDOF 3
ENDMDL
