MODEL 1
REMARK VINA RESULT:      -8.7      0.000      0.000
REMARK  Name = 
REMARK  7 active torsions:
REMARK  status: ('A' for Active; 'I' for Inactive)
REMARK    1  A    between atoms: C_1  and  N_2
REMARK    2  A    between atoms: N_2  and  C_3
REMARK    3  A    between atoms: N_2  and  C_5
REMARK    4  A    between atoms: C_7  and  C_8
REMARK    5  A    between atoms: C_13  and  C_14
REMARK    6  A    between atoms: C_14  and  C_15
REMARK    7  A    between atoms: N_19  and  C_20
REMARK                            x       y       z     vdW  Elec       q    Type
REMARK                         _______ _______ _______ _____ _____    ______ ____
ROOT
ATOM      1  C   UNL     1       2.168   7.383  19.615  0.00  0.00    +0.000 C 
ATOM      2  O   UNL     1       1.951   7.156  20.804  0.00  0.00    +0.000 OA
ATOM      3  N   UNL     1       1.695   8.452  18.871  0.00  0.00    +0.000 N 
ATOM      4  C   UNL     1       0.944   9.512  19.404  0.00  0.00    +0.000 A 
ATOM      5  C   UNL     1       0.265  10.362  18.533  0.00  0.00    +0.000 A 
ATOM      6  C   UNL     1      -0.544  11.387  19.060  0.00  0.00    +0.000 A 
ATOM      7  C   UNL     1      -0.597  11.545  20.451  0.00  0.00    +0.000 A 
ATOM      8  C   UNL     1       0.134  10.679  21.234  0.00  0.00    +0.000 A 
ATOM      9  N   UNL     1       0.892   9.680  20.737  0.00  0.00    +0.000 NA
ATOM     10  H   UNL     1       1.858   8.409  17.872  0.00  0.00    +0.000 HD
ENDROOT
BRANCH   1  13
ATOM     11  C   UNL     1       3.693   4.091  18.512  0.00  0.00    +0.000 A 
ATOM     12  C   UNL     1       2.967   5.051  19.231  0.00  0.00    +0.000 A 
ATOM     13  C   UNL     1       2.979   6.387  18.839  0.00  0.00    +0.000 A 
ATOM     14  N   UNL     1       3.671   6.852  17.772  0.00  0.00    +0.000 NA
ATOM     15  C   UNL     1       4.393   5.930  17.074  0.00  0.00    +0.000 A 
ATOM     16  C   UNL     1       4.427   4.555  17.390  0.00  0.00    +0.000 A 
ATOM     17  C   UNL     1       5.154   3.639  16.495  0.00  0.00    +0.000 C 
ATOM     18  C   UNL     1       5.896   4.078  15.474  0.00  0.00    +0.000 C 
ATOM     19  C   UNL     1       6.031   5.519  15.109  0.00  0.00    +0.000 C 
ATOM     20  C   UNL     1       5.111   6.479  15.868  0.00  0.00    +0.000 C 
BRANCH  11  22
ATOM     21  C   UNL     1       2.442   1.958  18.578  0.00  0.00    +0.000 C 
ATOM     22  N   UNL     1       3.644   2.735  18.871  0.00  0.00    +0.000 N 
BRANCH  22  23
ATOM     23  C   UNL     1       4.380   2.318  20.062  0.00  0.00    +0.000 C 
ATOM     24  F   UNL     1       3.543   2.320  21.137  0.00  0.00    +0.000 F 
ENDBRANCH  22  23
ENDBRANCH  11  22
ENDBRANCH   1  13
BRANCH   6  25
ATOM     25  C   UNL     1      -1.422  12.248  18.182  0.00  0.00    +0.000 C 
BRANCH  25  26
ATOM     26  C   UNL     1      -2.837  11.803  18.055  0.00  0.00    +0.000 A 
ATOM     27  N   UNL     1      -3.778  11.969  18.965  0.00  0.00    +0.000 NA
ATOM     28  N   UNL     1      -4.969  11.540  18.435  0.00  0.00    +0.000 NA
ATOM     29  C   UNL     1      -4.733  11.116  17.217  0.00  0.00    +0.000 A 
ATOM     30  N   UNL     1      -3.407  11.242  16.941  0.00  0.00    +0.000 N 
ATOM     31  C   UNL     1      -2.762  10.860  15.714  0.00  0.00    +0.000 C 
ENDBRANCH  25  26
ENDBRANCH   6  25
TORSDOF 5
ENDMDL
MODEL 2
REMARK VINA RESULT:      -8.6      0.545      1.098
REMARK  Name = 
REMARK  7 active torsions:
REMARK  status: ('A' for Active; 'I' for Inactive)
REMARK    1  A    between atoms: C_1  and  N_2
REMARK    2  A    between atoms: N_2  and  C_3
REMARK    3  A    between atoms: N_2  and  C_5
REMARK    4  A    between atoms: C_7  and  C_8
REMARK    5  A    between atoms: C_13  and  C_14
REMARK    6  A    between atoms: C_14  and  C_15
REMARK    7  A    between atoms: N_19  and  C_20
REMARK                            x       y       z     vdW  Elec       q    Type
REMARK                         _______ _______ _______ _____ _____    ______ ____
ROOT
ATOM      1  C   UNL     1       2.109   7.379  19.719  0.00  0.00    +0.000 C 
ATOM      2  O   UNL     1       1.851   7.130  20.895  0.00  0.00    +0.000 OA
ATOM      3  N   UNL     1       1.693   8.482  18.990  0.00  0.00    +0.000 N 
ATOM      4  C   UNL     1       0.963   9.553  19.529  0.00  0.00    +0.000 A 
ATOM      5  C   UNL     1       0.337  10.446  18.662  0.00  0.00    +0.000 A 
ATOM      6  C   UNL     1      -0.452  11.485  19.193  0.00  0.00    +0.000 A 
ATOM      7  C   UNL     1      -0.538  11.610  20.586  0.00  0.00    +0.000 A 
ATOM      8  C   UNL     1       0.141  10.701  21.366  0.00  0.00    +0.000 A 
ATOM      9  N   UNL     1       0.879   9.690  20.864  0.00  0.00    +0.000 NA
ATOM     10  H   UNL     1       1.883   8.458  17.995  0.00  0.00    +0.000 HD
ENDROOT
BRANCH   1  13
ATOM     11  C   UNL     1       3.580   4.069  18.596  0.00  0.00    +0.000 A 
ATOM     12  C   UNL     1       2.867   5.036  19.318  0.00  0.00    +0.000 A 
ATOM     13  C   UNL     1       2.908   6.375  18.941  0.00  0.00    +0.000 A 
ATOM     14  N   UNL     1       3.619   6.837  17.885  0.00  0.00    +0.000 NA
ATOM     15  C   UNL     1       4.329   5.909  17.184  0.00  0.00    +0.000 A 
ATOM     16  C   UNL     1       4.334   4.530  17.485  0.00  0.00    +0.000 A 
ATOM     17  C   UNL     1       5.052   3.610  16.588  0.00  0.00    +0.000 C 
ATOM     18  C   UNL     1       5.811   4.045  15.578  0.00  0.00    +0.000 C 
ATOM     19  C   UNL     1       5.978   5.487  15.230  0.00  0.00    +0.000 C 
ATOM     20  C   UNL     1       5.070   6.457  15.990  0.00  0.00    +0.000 C 
BRANCH  11  22
ATOM     21  C   UNL     1       2.225   2.012  18.817  0.00  0.00    +0.000 C 
ATOM     22  N   UNL     1       3.502   2.711  18.940  0.00  0.00    +0.000 N 
BRANCH  22  23
ATOM     23  C   UNL     1       4.377   2.225  20.004  0.00  0.00    +0.000 C 
ATOM     24  F   UNL     1       3.713   2.268  21.193  0.00  0.00    +0.000 F 
ENDBRANCH  22  23
ENDBRANCH  11  22
ENDBRANCH   1  13
BRANCH   6  25
ATOM     25  C   UNL     1      -1.276  12.397  18.314  0.00  0.00    +0.000 C 
BRANCH  25  26
ATOM     26  C   UNL     1      -2.474  11.774  17.688  0.00  0.00    +0.000 A 
ATOM     27  N   UNL     1      -2.490  11.124  16.539  0.00  0.00    +0.000 NA
ATOM     28  N   UNL     1      -3.744  10.595  16.361  0.00  0.00    +0.000 NA
ATOM     29  C   UNL     1      -4.470  10.935  17.399  0.00  0.00    +0.000 A 
ATOM     30  N   UNL     1      -3.723  11.693  18.248  0.00  0.00    +0.000 N 
ATOM     31  C   UNL     1      -4.179  12.271  19.483  0.00  0.00    +0.000 C 
ENDBRANCH  25  26
ENDBRANCH   6  25
TORSDOF 5
ENDMDL
MODEL 3
REMARK VINA RESULT:      -8.5      2.815      4.369
REMARK  Name = 
REMARK  7 active torsions:
REMARK  status: ('A' for Active; 'I' for Inactive)
REMARK    1  A    between atoms: C_1  and  N_2
REMARK    2  A    between atoms: N_2  and  C_3
REMARK    3  A    between atoms: N_2  and  C_5
REMARK    4  A    between atoms: C_7  and  C_8
REMARK    5  A    between atoms: C_13  and  C_14
REMARK    6  A    between atoms: C_14  and  C_15
REMARK    7  A    between atoms: N_19  and  C_20
REMARK                            x       y       z     vdW  Elec       q    Type
REMARK                         _______ _______ _______ _____ _____    ______ ____
ROOT
ATOM      1  C   UNL     1       1.910   8.627  18.527  0.00  0.00    +0.000 C 
ATOM      2  O   UNL     1       1.993   9.250  17.470  0.00  0.00    +0.000 OA
ATOM      3  N   UNL     1       1.266   9.032  19.685  0.00  0.00    +0.000 N 
ATOM      4  C   UNL     1       0.517  10.214  19.797  0.00  0.00    +0.000 A 
ATOM      5  C   UNL     1       0.174  10.678  21.066  0.00  0.00    +0.000 A 
ATOM      6  C   UNL     1      -0.520  11.896  21.192  0.00  0.00    +0.000 A 
ATOM      7  C   UNL     1      -0.885  12.578  20.023  0.00  0.00    +0.000 A 
ATOM      8  C   UNL     1      -0.533  12.028  18.811  0.00  0.00    +0.000 A 
ATOM      9  N   UNL     1       0.152  10.874  18.684  0.00  0.00    +0.000 NA
ATOM     10  H   UNL     1       1.415   8.456  20.505  0.00  0.00    +0.000 HD
ENDROOT
BRANCH   1  13
ATOM     11  C   UNL     1       4.421   5.854  17.901  0.00  0.00    +0.000 A 
ATOM     12  C   UNL     1       3.718   7.065  17.810  0.00  0.00    +0.000 A 
ATOM     13  C   UNL     1       2.621   7.309  18.631  0.00  0.00    +0.000 A 
ATOM     14  N   UNL     1       2.156   6.428  19.548  0.00  0.00    +0.000 NA
ATOM     15  C   UNL     1       2.821   5.241  19.635  0.00  0.00    +0.000 A 
ATOM     16  C   UNL     1       3.951   4.914  18.855  0.00  0.00    +0.000 A 
ATOM     17  C   UNL     1       4.651   3.646  19.118  0.00  0.00    +0.000 C 
ATOM     18  C   UNL     1       4.179   2.733  19.971  0.00  0.00    +0.000 C 
ATOM     19  C   UNL     1       2.931   2.914  20.769  0.00  0.00    +0.000 C 
ATOM     20  C   UNL     1       2.301   4.308  20.698  0.00  0.00    +0.000 C 
BRANCH  11  22
ATOM     21  C   UNL     1       6.760   6.423  17.335  0.00  0.00    +0.000 C 
ATOM     22  N   UNL     1       5.558   5.622  17.113  0.00  0.00    +0.000 N 
BRANCH  22  23
ATOM     23  C   UNL     1       5.356   5.171  15.739  0.00  0.00    +0.000 C 
ATOM     24  F   UNL     1       5.180   6.251  14.928  0.00  0.00    +0.000 F 
ENDBRANCH  22  23
ENDBRANCH  11  22
ENDBRANCH   1  13
BRANCH   6  25
ATOM     25  C   UNL     1      -0.792  12.530  22.536  0.00  0.00    +0.000 C 
BRANCH  25  26
ATOM     26  C   UNL     1      -2.227  12.643  22.914  0.00  0.00    +0.000 A 
ATOM     27  N   UNL     1      -2.943  11.701  23.498  0.00  0.00    +0.000 NA
ATOM     28  N   UNL     1      -4.179  12.221  23.795  0.00  0.00    +0.000 NA
ATOM     29  C   UNL     1      -4.195  13.466  23.384  0.00  0.00    +0.000 A 
ATOM     30  N   UNL     1      -3.001  13.770  22.806  0.00  0.00    +0.000 N 
ATOM     31  C   UNL     1      -2.648  15.033  22.216  0.00  0.00    +0.000 C 
ENDBRANCH  25  26
ENDBRANCH   6  25
TORSDOF 5
ENDMDL
MODEL 4
REMARK VINA RESULT:      -8.4      2.847      9.063
REMARK  Name = 
REMARK  7 active torsions:
REMARK  status: ('A' for Active; 'I' for Inactive)
REMARK    1  A    between atoms: C_1  and  N_2
REMARK    2  A    between atoms: N_2  and  C_3
REMARK    3  A    between atoms: N_2  and  C_5
REMARK    4  A    between atoms: C_7  and  C_8
REMARK    5  A    between atoms: C_13  and  C_14
REMARK    6  A    between atoms: C_14  and  C_15
REMARK    7  A    between atoms: N_19  and  C_20
REMARK                            x       y       z     vdW  Elec       q    Type
REMARK                         _______ _______ _______ _____ _____    ______ ____
ROOT
ATOM      1  C   UNL     1       1.613   9.130  18.037  0.00  0.00    +0.000 C 
ATOM      2  O   UNL     1       2.313   9.637  17.162  0.00  0.00    +0.000 OA
ATOM      3  N   UNL     1       1.775   7.880  18.612  0.00  0.00    +0.000 N 
ATOM      4  C   UNL     1       2.845   7.016  18.332  0.00  0.00    +0.000 A 
ATOM      5  C   UNL     1       2.753   5.681  18.720  0.00  0.00    +0.000 A 
ATOM      6  C   UNL     1       3.793   4.791  18.385  0.00  0.00    +0.000 A 
ATOM      7  C   UNL     1       4.911   5.299  17.711  0.00  0.00    +0.000 A 
ATOM      8  C   UNL     1       4.931   6.639  17.397  0.00  0.00    +0.000 A 
ATOM      9  N   UNL     1       3.929   7.491  17.694  0.00  0.00    +0.000 NA
ATOM     10  H   UNL     1       1.027   7.567  19.219  0.00  0.00    +0.000 HD
ENDROOT
BRANCH   1  13
ATOM     11  C   UNL     1      -0.619  11.305  20.198  0.00  0.00    +0.000 A 
ATOM     12  C   UNL     1       0.476  10.561  19.735  0.00  0.00    +0.000 A 
ATOM     13  C   UNL     1       0.413   9.893  18.515  0.00  0.00    +0.000 A 
ATOM     14  N   UNL     1      -0.674   9.903  17.707  0.00  0.00    +0.000 NA
ATOM     15  C   UNL     1      -1.751  10.610  18.154  0.00  0.00    +0.000 A 
ATOM     16  C   UNL     1      -1.770  11.329  19.368  0.00  0.00    +0.000 A 
ATOM     17  C   UNL     1      -2.952  12.145  19.690  0.00  0.00    +0.000 C 
ATOM     18  C   UNL     1      -4.060  12.123  18.944  0.00  0.00    +0.000 C 
ATOM     19  C   UNL     1      -4.202  11.313  17.699  0.00  0.00    +0.000 C 
ATOM     20  C   UNL     1      -2.922  10.633  17.205  0.00  0.00    +0.000 C 
BRANCH  11  22
ATOM     21  C   UNL     1       0.345  13.178  21.493  0.00  0.00    +0.000 C 
ATOM     22  N   UNL     1      -0.544  12.022  21.401  0.00  0.00    +0.000 N 
BRANCH  22  23
ATOM     23  C   UNL     1      -0.737  11.286  22.648  0.00  0.00    +0.000 C 
ATOM     24  F   UNL     1      -2.028  11.421  23.060  0.00  0.00    +0.000 F 
ENDBRANCH  22  23
ENDBRANCH  11  22
ENDBRANCH   1  13
BRANCH   6  25
ATOM     25  C   UNL     1       3.692   3.306  18.642  0.00  0.00    +0.000 C 
BRANCH  25  26
ATOM     26  C   UNL     1       2.994   2.918  19.898  0.00  0.00    +0.000 A 
ATOM     27  N   UNL     1       3.544   2.862  21.096  0.00  0.00    +0.000 NA
ATOM     28  N   UNL     1       2.558   2.586  22.011  0.00  0.00    +0.000 NA
ATOM     29  C   UNL     1       1.427   2.474  21.355  0.00  0.00    +0.000 A 
ATOM     30  N   UNL     1       1.654   2.653  20.025  0.00  0.00    +0.000 N 
ATOM     31  C   UNL     1       0.664   2.582  18.985  0.00  0.00    +0.000 C 
ENDBRANCH  25  26
ENDBRANCH   6  25
TORSDOF 5
ENDMDL
MODEL 5
REMARK VINA RESULT:      -8.4      3.473      9.321
REMARK  Name = 
REMARK  7 active torsions:
REMARK  status: ('A' for Active; 'I' for Inactive)
REMARK    1  A    between atoms: C_1  and  N_2
REMARK    2  A    between atoms: N_2  and  C_3
REMARK    3  A    between atoms: N_2  and  C_5
REMARK    4  A    between atoms: C_7  and  C_8
REMARK    5  A    between atoms: C_13  and  C_14
REMARK    6  A    between atoms: C_14  and  C_15
REMARK    7  A    between atoms: N_19  and  C_20
REMARK                            x       y       z     vdW  Elec       q    Type
REMARK                         _______ _______ _______ _____ _____    ______ ____
ROOT
ATOM      1  C   UNL     1       2.277   8.740  18.285  0.00  0.00    +0.000 C 
ATOM      2  O   UNL     1       2.501   9.064  17.119  0.00  0.00    +0.000 OA
ATOM      3  N   UNL     1       2.603   7.537  18.892  0.00  0.00    +0.000 N 
ATOM      4  C   UNL     1       3.334   6.513  18.270  0.00  0.00    +0.000 A 
ATOM      5  C   UNL     1       3.342   5.244  18.846  0.00  0.00    +0.000 A 
ATOM      6  C   UNL     1       4.018   4.195  18.195  0.00  0.00    +0.000 A 
ATOM      7  C   UNL     1       4.704   4.480  17.007  0.00  0.00    +0.000 A 
ATOM      8  C   UNL     1       4.670   5.771  16.529  0.00  0.00    +0.000 A 
ATOM      9  N   UNL     1       4.005   6.776  17.135  0.00  0.00    +0.000 NA
ATOM     10  H   UNL     1       2.221   7.386  19.818  0.00  0.00    +0.000 HD
ENDROOT
BRANCH   1  13
ATOM     11  C   UNL     1       0.677  11.943  19.532  0.00  0.00    +0.000 A 
ATOM     12  C   UNL     1       1.400  11.027  18.755  0.00  0.00    +0.000 A 
ATOM     13  C   UNL     1       1.520   9.700  19.155  0.00  0.00    +0.000 A 
ATOM     14  N   UNL     1       0.972   9.203  20.290  0.00  0.00    +0.000 NA
ATOM     15  C   UNL     1       0.279  10.088  21.061  0.00  0.00    +0.000 A 
ATOM     16  C   UNL     1       0.094  11.446  20.726  0.00  0.00    +0.000 A 
ATOM     17  C   UNL     1      -0.767  12.277  21.584  0.00  0.00    +0.000 C 
ATOM     18  C   UNL     1      -1.268  11.831  22.740  0.00  0.00    +0.000 C 
ATOM     19  C   UNL     1      -1.046  10.449  23.258  0.00  0.00    +0.000 C 
ATOM     20  C   UNL     1      -0.353   9.486  22.291  0.00  0.00    +0.000 C 
BRANCH  11  22
ATOM     21  C   UNL     1      -0.584  13.599  18.196  0.00  0.00    +0.000 C 
ATOM     22  N   UNL     1       0.509  13.271  19.108  0.00  0.00    +0.000 N 
BRANCH  22  23
ATOM     23  C   UNL     1       1.703  14.100  18.973  0.00  0.00    +0.000 C 
ATOM     24  F   UNL     1       1.351  15.415  19.026  0.00  0.00    +0.000 F 
ENDBRANCH  22  23
ENDBRANCH  11  22
ENDBRANCH   1  13
BRANCH   6  25
ATOM     25  C   UNL     1       3.943   2.767  18.683  0.00  0.00    +0.000 C 
BRANCH  25  26
ATOM     26  C   UNL     1       3.157   2.555  19.930  0.00  0.00    +0.000 A 
ATOM     27  N   UNL     1       3.652   2.523  21.152  0.00  0.00    +0.000 NA
ATOM     28  N   UNL     1       2.606   2.431  22.038  0.00  0.00    +0.000 NA
ATOM     29  C   UNL     1       1.496   2.404  21.340  0.00  0.00    +0.000 A 
ATOM     30  N   UNL     1       1.792   2.458  20.013  0.00  0.00    +0.000 N 
ATOM     31  C   UNL     1       0.839   2.427  18.936  0.00  0.00    +0.000 C 
ENDBRANCH  25  26
ENDBRANCH   6  25
TORSDOF 5
ENDMDL
MODEL 6
REMARK VINA RESULT:      -8.4      2.471      3.482
REMARK  Name = 
REMARK  7 active torsions:
REMARK  status: ('A' for Active; 'I' for Inactive)
REMARK    1  A    between atoms: C_1  and  N_2
REMARK    2  A    between atoms: N_2  and  C_3
REMARK    3  A    between atoms: N_2  and  C_5
REMARK    4  A    between atoms: C_7  and  C_8
REMARK    5  A    between atoms: C_13  and  C_14
REMARK    6  A    between atoms: C_14  and  C_15
REMARK    7  A    between atoms: N_19  and  C_20
REMARK                            x       y       z     vdW  Elec       q    Type
REMARK                         _______ _______ _______ _____ _____    ______ ____
ROOT
ATOM      1  C   UNL     1       1.962   8.826  18.375  0.00  0.00    +0.000 C 
ATOM      2  O   UNL     1       2.188   9.729  17.571  0.00  0.00    +0.000 OA
ATOM      3  N   UNL     1       1.182   8.904  19.518  0.00  0.00    +0.000 N 
ATOM      4  C   UNL     1       0.444  10.037  19.893  0.00  0.00    +0.000 A 
ATOM      5  C   UNL     1      -0.050  10.122  21.193  0.00  0.00    +0.000 A 
ATOM      6  C   UNL     1      -0.735  11.283  21.598  0.00  0.00    +0.000 A 
ATOM      7  C   UNL     1      -0.937  12.299  20.654  0.00  0.00    +0.000 A 
ATOM      8  C   UNL     1      -0.443  12.116  19.382  0.00  0.00    +0.000 A 
ATOM      9  N   UNL     1       0.234  11.016  18.995  0.00  0.00    +0.000 NA
ATOM     10  H   UNL     1       1.216   8.103  20.138  0.00  0.00    +0.000 HD
ENDROOT
BRANCH   1  13
ATOM     11  C   UNL     1       2.761   5.130  18.660  0.00  0.00    +0.000 A 
ATOM     12  C   UNL     1       2.174   6.388  18.858  0.00  0.00    +0.000 A 
ATOM     13  C   UNL     1       2.632   7.501  18.160  0.00  0.00    +0.000 A 
ATOM     14  N   UNL     1       3.650   7.462  17.267  0.00  0.00    +0.000 NA
ATOM     15  C   UNL     1       4.239   6.247  17.077  0.00  0.00    +0.000 A 
ATOM     16  C   UNL     1       3.830   5.065  17.729  0.00  0.00    +0.000 A 
ATOM     17  C   UNL     1       4.471   3.792  17.358  0.00  0.00    +0.000 C 
ATOM     18  C   UNL     1       5.517   3.735  16.529  0.00  0.00    +0.000 C 
ATOM     19  C   UNL     1       6.114   4.931  15.866  0.00  0.00    +0.000 C 
ATOM     20  C   UNL     1       5.336   6.238  16.042  0.00  0.00    +0.000 C 
BRANCH  11  22
ATOM     21  C   UNL     1       1.259   3.165  18.671  0.00  0.00    +0.000 C 
ATOM     22  N   UNL     1       2.270   3.994  19.322  0.00  0.00    +0.000 N 
BRANCH  22  23
ATOM     23  C   UNL     1       2.199   4.033  20.781  0.00  0.00    +0.000 C 
ATOM     24  F   UNL     1       1.096   3.352  21.199  0.00  0.00    +0.000 F 
ENDBRANCH  22  23
ENDBRANCH  11  22
ENDBRANCH   1  13
BRANCH   6  25
ATOM     25  C   UNL     1      -1.165  11.504  23.029  0.00  0.00    +0.000 C 
BRANCH  25  26
ATOM     26  C   UNL     1      -2.325  12.417  23.217  0.00  0.00    +0.000 A 
ATOM     27  N   UNL     1      -3.595  12.060  23.191  0.00  0.00    +0.000 NA
ATOM     28  N   UNL     1      -4.357  13.152  23.526  0.00  0.00    +0.000 NA
ATOM     29  C   UNL     1      -3.540  14.155  23.745  0.00  0.00    +0.000 A 
ATOM     30  N   UNL     1      -2.257  13.747  23.543  0.00  0.00    +0.000 N 
ATOM     31  C   UNL     1      -1.084  14.570  23.664  0.00  0.00    +0.000 C 
ENDBRANCH  25  26
ENDBRANCH   6  25
TORSDOF 5
ENDMDL
MODEL 7
REMARK VINA RESULT:      -8.3      2.755      9.105
REMARK  Name = 
REMARK  7 active torsions:
REMARK  status: ('A' for Active; 'I' for Inactive)
REMARK    1  A    between atoms: C_1  and  N_2
REMARK    2  A    between atoms: N_2  and  C_3
REMARK    3  A    between atoms: N_2  and  C_5
REMARK    4  A    between atoms: C_7  and  C_8
REMARK    5  A    between atoms: C_13  and  C_14
REMARK    6  A    between atoms: C_14  and  C_15
REMARK    7  A    between atoms: N_19  and  C_20
REMARK                            x       y       z     vdW  Elec       q    Type
REMARK                         _______ _______ _______ _____ _____    ______ ____
ROOT
ATOM      1  C   UNL     1       1.871   9.044  18.032  0.00  0.00    +0.000 C 
ATOM      2  O   UNL     1       2.565   9.498  17.124  0.00  0.00    +0.000 OA
ATOM      3  N   UNL     1       1.988   7.798  18.627  0.00  0.00    +0.000 N 
ATOM      4  C   UNL     1       3.002   6.874  18.329  0.00  0.00    +0.000 A 
ATOM      5  C   UNL     1       2.855   5.553  18.747  0.00  0.00    +0.000 A 
ATOM      6  C   UNL     1       3.834   4.605  18.396  0.00  0.00    +0.000 A 
ATOM      7  C   UNL     1       4.953   5.040  17.674  0.00  0.00    +0.000 A 
ATOM      8  C   UNL     1       5.031   6.372  17.332  0.00  0.00    +0.000 A 
ATOM      9  N   UNL     1       4.085   7.280  17.645  0.00  0.00    +0.000 NA
ATOM     10  H   UNL     1       1.245   7.536  19.265  0.00  0.00    +0.000 HD
ENDROOT
BRANCH   1  13
ATOM     11  C   UNL     1      -1.541  10.687  18.244  0.00  0.00    +0.000 A 
ATOM     12  C   UNL     1      -0.445   9.940  17.789  0.00  0.00    +0.000 A 
ATOM     13  C   UNL     1       0.728   9.877  18.535  0.00  0.00    +0.000 A 
ATOM     14  N   UNL     1       0.903  10.515  19.717  0.00  0.00    +0.000 NA
ATOM     15  C   UNL     1      -0.150  11.257  20.162  0.00  0.00    +0.000 A 
ATOM     16  C   UNL     1      -1.381  11.365  19.480  0.00  0.00    +0.000 A 
ATOM     17  C   UNL     1      -2.481  12.107  20.116  0.00  0.00    +0.000 C 
ATOM     18  C   UNL     1      -2.317  12.796  21.249  0.00  0.00    +0.000 C 
ATOM     19  C   UNL     1      -1.031  12.854  22.003  0.00  0.00    +0.000 C 
ATOM     20  C   UNL     1       0.069  11.913  21.502  0.00  0.00    +0.000 C 
BRANCH  11  22
ATOM     21  C   UNL     1      -3.715   9.637  17.708  0.00  0.00    +0.000 C 
ATOM     22  N   UNL     1      -2.744  10.712  17.522  0.00  0.00    +0.000 N 
BRANCH  22  23
ATOM     23  C   UNL     1      -2.729  11.314  16.191  0.00  0.00    +0.000 C 
ATOM     24  F   UNL     1      -2.531  10.343  15.257  0.00  0.00    +0.000 F 
ENDBRANCH  22  23
ENDBRANCH  11  22
ENDBRANCH   1  13
BRANCH   6  25
ATOM     25  C   UNL     1       3.666   3.132  18.687  0.00  0.00    +0.000 C 
BRANCH  25  26
ATOM     26  C   UNL     1       2.960   2.804  19.955  0.00  0.00    +0.000 A 
ATOM     27  N   UNL     1       3.518   2.739  21.149  0.00  0.00    +0.000 NA
ATOM     28  N   UNL     1       2.527   2.534  22.077  0.00  0.00    +0.000 NA
ATOM     29  C   UNL     1       1.386   2.472  21.434  0.00  0.00    +0.000 A 
ATOM     30  N   UNL     1       1.609   2.616  20.099  0.00  0.00    +0.000 N 
ATOM     31  C   UNL     1       0.607   2.580  19.069  0.00  0.00    +0.000 C 
ENDBRANCH  25  26
ENDBRANCH   6  25
TORSDOF 5
ENDMDL
MODEL 8
REMARK VINA RESULT:      -8.3      2.861      4.346
REMARK  Name = 
REMARK  7 active torsions:
REMARK  status: ('A' for Active; 'I' for Inactive)
REMARK    1  A    between atoms: C_1  and  N_2
REMARK    2  A    between atoms: N_2  and  C_3
REMARK    3  A    between atoms: N_2  and  C_5
REMARK    4  A    between atoms: C_7  and  C_8
REMARK    5  A    between atoms: C_13  and  C_14
REMARK    6  A    between atoms: C_14  and  C_15
REMARK    7  A    between atoms: N_19  and  C_20
REMARK                            x       y       z     vdW  Elec       q    Type
REMARK                         _______ _______ _______ _____ _____    ______ ____
ROOT
ATOM      1  C   UNL     1       2.200   8.324  18.246  0.00  0.00    +0.000 C 
ATOM      2  O   UNL     1       2.640   9.200  17.504  0.00  0.00    +0.000 OA
ATOM      3  N   UNL     1       1.336   8.496  19.317  0.00  0.00    +0.000 N 
ATOM      4  C   UNL     1       0.752   9.722  19.670  0.00  0.00    +0.000 A 
ATOM      5  C   UNL     1       0.156   9.850  20.923  0.00  0.00    +0.000 A 
ATOM      6  C   UNL     1      -0.374  11.095  21.311  0.00  0.00    +0.000 A 
ATOM      7  C   UNL     1      -0.324  12.154  20.396  0.00  0.00    +0.000 A 
ATOM      8  C   UNL     1       0.254  11.928  19.167  0.00  0.00    +0.000 A 
ATOM      9  N   UNL     1       0.785  10.745  18.797  0.00  0.00    +0.000 NA
ATOM     10  H   UNL     1       1.186   7.684  19.904  0.00  0.00    +0.000 HD
ENDROOT
BRANCH   1  13
ATOM     11  C   UNL     1       4.374   5.392  17.218  0.00  0.00    +0.000 A 
ATOM     12  C   UNL     1       3.891   6.696  17.404  0.00  0.00    +0.000 A 
ATOM     13  C   UNL     1       2.672   6.915  18.038  0.00  0.00    +0.000 A 
ATOM     14  N   UNL     1       1.878   5.923  18.506  0.00  0.00    +0.000 NA
ATOM     15  C   UNL     1       2.330   4.650  18.318  0.00  0.00    +0.000 A 
ATOM     16  C   UNL     1       3.559   4.335  17.700  0.00  0.00    +0.000 A 
ATOM     17  C   UNL     1       3.989   2.928  17.653  0.00  0.00    +0.000 C 
ATOM     18  C   UNL     1       3.199   1.926  18.050  0.00  0.00    +0.000 C 
ATOM     19  C   UNL     1       1.832   2.125  18.614  0.00  0.00    +0.000 C 
ATOM     20  C   UNL     1       1.439   3.578  18.893  0.00  0.00    +0.000 C 
BRANCH  11  22
ATOM     21  C   UNL     1       6.840   5.408  17.402  0.00  0.00    +0.000 C 
ATOM     22  N   UNL     1       5.626   5.167  16.626  0.00  0.00    +0.000 N 
BRANCH  22  23
ATOM     23  C   UNL     1       5.751   5.390  15.188  0.00  0.00    +0.000 C 
ATOM     24  F   UNL     1       5.175   4.356  14.516  0.00  0.00    +0.000 F 
ENDBRANCH  22  23
ENDBRANCH  11  22
ENDBRANCH   1  13
BRANCH   6  25
ATOM     25  C   UNL     1      -0.899  11.344  22.706  0.00  0.00    +0.000 C 
BRANCH  25  26
ATOM     26  C   UNL     1      -1.285  12.750  23.005  0.00  0.00    +0.000 A 
ATOM     27  N   UNL     1      -0.474  13.691  23.448  0.00  0.00    +0.000 NA
ATOM     28  N   UNL     1      -1.167  14.875  23.485  0.00  0.00    +0.000 NA
ATOM     29  C   UNL     1      -2.388  14.635  23.070  0.00  0.00    +0.000 A 
ATOM     30  N   UNL     1      -2.515  13.312  22.778  0.00  0.00    +0.000 N 
ATOM     31  C   UNL     1      -3.713  12.664  22.315  0.00  0.00    +0.000 C 
ENDBRANCH  25  26
ENDBRANCH   6  25
TORSDOF 5
ENDMDL
MODEL 9
REMARK VINA RESULT:      -8.3      2.806      4.312
REMARK  Name = 
REMARK  7 active torsions:
REMARK  status: ('A' for Active; 'I' for Inactive)
REMARK    1  A    between atoms: C_1  and  N_2
REMARK    2  A    between atoms: N_2  and  C_3
REMARK    3  A    between atoms: N_2  and  C_5
REMARK    4  A    between atoms: C_7  and  C_8
REMARK    5  A    between atoms: C_13  and  C_14
REMARK    6  A    between atoms: C_14  and  C_15
REMARK    7  A    between atoms: N_19  and  C_20
REMARK                            x       y       z     vdW  Elec       q    Type
REMARK                         _______ _______ _______ _____ _____    ______ ____
ROOT
ATOM      1  C   UNL     1       2.110   8.556  18.259  0.00  0.00    +0.000 C 
ATOM      2  O   UNL     1       2.453   9.440  17.476  0.00  0.00    +0.000 OA
ATOM      3  N   UNL     1       1.307   8.701  19.379  0.00  0.00    +0.000 N 
ATOM      4  C   UNL     1       0.679   9.901  19.749  0.00  0.00    +0.000 A 
ATOM      5  C   UNL     1       0.157  10.020  21.035  0.00  0.00    +0.000 A 
ATOM      6  C   UNL     1      -0.416  11.242  21.437  0.00  0.00    +0.000 A 
ATOM      7  C   UNL     1      -0.482  12.284  20.503  0.00  0.00    +0.000 A 
ATOM      8  C   UNL     1       0.029  12.066  19.244  0.00  0.00    +0.000 A 
ATOM      9  N   UNL     1       0.600  10.906  18.860  0.00  0.00    +0.000 NA
ATOM     10  H   UNL     1       1.239   7.894  19.988  0.00  0.00    +0.000 HD
ENDROOT
BRANCH   1  13
ATOM     11  C   UNL     1       4.463   5.733  17.324  0.00  0.00    +0.000 A 
ATOM     12  C   UNL     1       3.923   7.013  17.513  0.00  0.00    +0.000 A 
ATOM     13  C   UNL     1       2.646   7.171  18.044  0.00  0.00    +0.000 A 
ATOM     14  N   UNL     1       1.848   6.137  18.404  0.00  0.00    +0.000 NA
ATOM     15  C   UNL     1       2.356   4.887  18.211  0.00  0.00    +0.000 A 
ATOM     16  C   UNL     1       3.645   4.634  17.694  0.00  0.00    +0.000 A 
ATOM     17  C   UNL     1       4.125   3.244  17.635  0.00  0.00    +0.000 C 
ATOM     18  C   UNL     1       3.337   2.203  17.925  0.00  0.00    +0.000 C 
ATOM     19  C   UNL     1       1.920   2.339  18.372  0.00  0.00    +0.000 C 
ATOM     20  C   UNL     1       1.456   3.767  18.666  0.00  0.00    +0.000 C 
BRANCH  11  22
ATOM     21  C   UNL     1       6.900   5.991  17.661  0.00  0.00    +0.000 C 
ATOM     22  N   UNL     1       5.769   5.568  16.838  0.00  0.00    +0.000 N 
BRANCH  22  23
ATOM     23  C   UNL     1       5.978   5.666  15.396  0.00  0.00    +0.000 C 
ATOM     24  F   UNL     1       5.146   4.799  14.756  0.00  0.00    +0.000 F 
ENDBRANCH  22  23
ENDBRANCH  11  22
ENDBRANCH   1  13
BRANCH   6  25
ATOM     25  C   UNL     1      -0.865  11.489  22.858  0.00  0.00    +0.000 C 
BRANCH  25  26
ATOM     26  C   UNL     1      -2.043  12.385  23.013  0.00  0.00    +0.000 A 
ATOM     27  N   UNL     1      -3.304  11.998  23.044  0.00  0.00    +0.000 NA
ATOM     28  N   UNL     1      -4.084  13.093  23.322  0.00  0.00    +0.000 NA
ATOM     29  C   UNL     1      -3.288  14.127  23.449  0.00  0.00    +0.000 A 
ATOM     30  N   UNL     1      -2.000  13.737  23.243  0.00  0.00    +0.000 N 
ATOM     31  C   UNL     1      -0.846  14.593  23.275  0.00  0.00    +0.000 C 
ENDBRANCH  25  26
ENDBRANCH   6  25
TORSDOF 5
ENDMDL
