MODEL 1
REMARK VINA RESULT:     -10.0      0.000      0.000
REMARK  Name = 
REMARK  4 active torsions:
REMARK  status: ('A' for Active; 'I' for Inactive)
REMARK    1  A    between atoms: C_1  and  C_2
REMARK    2  A    between atoms: C_2  and  C_3
REMARK    3  A    between atoms: C_5  and  C_6
REMARK    4  A    between atoms: C_8  and  C_9
REMARK                            x       y       z     vdW  Elec       q    Type
REMARK                         _______ _______ _______ _____ _____    ______ ____
ROOT
ATOM      1  C   UNL     1       2.804   7.449  18.263  0.00  0.00    +0.000 A 
ATOM      2  N   UNL     1       2.061   7.860  19.265  0.00  0.00    +0.000 NA
ATOM      3  C   UNL     1       1.530   9.028  18.788  0.00  0.00    +0.000 A 
ATOM      4  N   UNL     1       1.890   9.317  17.526  0.00  0.00    +0.000 NA
ATOM      5  O   UNL     1       2.742   8.266  17.175  0.00  0.00    +0.000 OA
ENDROOT
BRANCH   1  10
ATOM      6  C   UNL     1       5.814   5.124  15.169  0.00  0.00    +0.000 C 
ATOM      7  C   UNL     1       5.210   5.028  16.580  0.00  0.00    +0.000 C 
ATOM      8  C   UNL     1       6.329   4.668  17.568  0.00  0.00    +0.000 C 
ATOM      9  C   UNL     1       4.534   6.359  16.911  0.00  0.00    +0.000 C 
ATOM     10  C   UNL     1       3.750   6.296  18.229  0.00  0.00    +0.000 C 
ATOM     11  C   UNL     1       3.004   4.983  18.343  0.00  0.00    +0.000 A 
ATOM     12  C   UNL     1       1.995   4.810  19.312  0.00  0.00    +0.000 A 
ATOM     13  C   UNL     1       1.236   3.642  19.355  0.00  0.00    +0.000 A 
ATOM     14  C   UNL     1       1.492   2.618  18.450  0.00  0.00    +0.000 A 
ATOM     15  C   UNL     1       2.521   2.758  17.519  0.00  0.00    +0.000 A 
ATOM     16  C   UNL     1       3.283   3.926  17.473  0.00  0.00    +0.000 A 
ATOM     17  O   UNL     1       4.261   3.953  16.519  0.00  0.00    +0.000 OA
ENDBRANCH   1  10
BRANCH   3  18
ATOM     18  C   UNL     1       0.657   9.839  19.624  0.00  0.00    +0.000 A 
ATOM     19  C   UNL     1      -0.202  10.776  19.013  0.00  0.00    +0.000 A 
ATOM     20  C   UNL     1      -1.043  11.614  19.756  0.00  0.00    +0.000 A 
ATOM     21  C   UNL     1      -0.979  11.461  21.138  0.00  0.00    +0.000 A 
ATOM     22  N   UNL     1      -1.610  12.086  22.176  0.00  0.00    +0.000 N 
ATOM     23  N   UNL     1      -1.225  11.596  23.365  0.00  0.00    +0.000 NA
ATOM     24  N   UNL     1      -0.334  10.641  23.132  0.00  0.00    +0.000 NA
ATOM     25  C   UNL     1      -0.161  10.541  21.778  0.00  0.00    +0.000 A 
ATOM     26  C   UNL     1       0.669   9.703  21.021  0.00  0.00    +0.000 A 
ATOM     27  H   UNL     1      -2.289  12.836  22.153  0.00  0.00    +0.000 HD
ENDBRANCH   3  18
TORSDOF 2
ENDMDL
MODEL 2
REMARK VINA RESULT:      -9.8      0.844      1.469
REMARK  Name = 
REMARK  4 active torsions:
REMARK  status: ('A' for Active; 'I' for Inactive)
REMARK    1  A    between atoms: C_1  and  C_2
REMARK    2  A    between atoms: C_2  and  C_3
REMARK    3  A    between atoms: C_5  and  C_6
REMARK    4  A    between atoms: C_8  and  C_9
REMARK                            x       y       z     vdW  Elec       q    Type
REMARK                         _______ _______ _______ _____ _____    ______ ____
ROOT
ATOM      1  C   UNL     1       2.543   7.231  19.000  0.00  0.00    +0.000 A 
ATOM      2  N   UNL     1       1.943   7.581  20.113  0.00  0.00    +0.000 NA
ATOM      3  C   UNL     1       1.327   8.754  19.769  0.00  0.00    +0.000 A 
ATOM      4  N   UNL     1       1.498   9.104  18.482  0.00  0.00    +0.000 NA
ATOM      5  O   UNL     1       2.312   8.090  17.968  0.00  0.00    +0.000 OA
ENDROOT
BRANCH   1  10
ATOM      6  C   UNL     1       5.428   5.348  15.511  0.00  0.00    +0.000 C 
ATOM      7  C   UNL     1       4.891   5.070  16.925  0.00  0.00    +0.000 C 
ATOM      8  C   UNL     1       6.056   4.608  17.809  0.00  0.00    +0.000 C 
ATOM      9  C   UNL     1       4.218   6.341  17.448  0.00  0.00    +0.000 C 
ATOM     10  C   UNL     1       3.496   6.104  18.781  0.00  0.00    +0.000 C 
ATOM     11  C   UNL     1       2.768   4.777  18.765  0.00  0.00    +0.000 A 
ATOM     12  C   UNL     1       1.806   4.472  19.750  0.00  0.00    +0.000 A 
ATOM     13  C   UNL     1       1.060   3.297  19.681  0.00  0.00    +0.000 A 
ATOM     14  C   UNL     1       1.284   2.396  18.646  0.00  0.00    +0.000 A 
ATOM     15  C   UNL     1       2.267   2.664  17.694  0.00  0.00    +0.000 A 
ATOM     16  C   UNL     1       3.016   3.840  17.759  0.00  0.00    +0.000 A 
ATOM     17  O   UNL     1       3.949   3.998  16.774  0.00  0.00    +0.000 OA
ENDBRANCH   1  10
BRANCH   3  18
ATOM     18  C   UNL     1       0.566   9.508  20.755  0.00  0.00    +0.000 A 
ATOM     19  C   UNL     1       0.563   9.076  22.097  0.00  0.00    +0.000 A 
ATOM     20  C   UNL     1      -0.175   9.732  23.091  0.00  0.00    +0.000 A 
ATOM     21  C   UNL     1      -0.905  10.839  22.670  0.00  0.00    +0.000 A 
ATOM     22  N   UNL     1      -1.740  11.707  23.314  0.00  0.00    +0.000 N 
ATOM     23  N   UNL     1      -2.230  12.642  22.485  0.00  0.00    +0.000 NA
ATOM     24  N   UNL     1      -1.727  12.406  21.279  0.00  0.00    +0.000 NA
ATOM     25  C   UNL     1      -0.917  11.306  21.363  0.00  0.00    +0.000 A 
ATOM     26  C   UNL     1      -0.167  10.645  20.381  0.00  0.00    +0.000 A 
ATOM     27  H   UNL     1      -2.020  11.720  24.286  0.00  0.00    +0.000 HD
ENDBRANCH   3  18
TORSDOF 2
ENDMDL
MODEL 3
REMARK VINA RESULT:      -9.7      1.390      3.121
REMARK  Name = 
REMARK  4 active torsions:
REMARK  status: ('A' for Active; 'I' for Inactive)
REMARK    1  A    between atoms: C_1  and  C_2
REMARK    2  A    between atoms: C_2  and  C_3
REMARK    3  A    between atoms: C_5  and  C_6
REMARK    4  A    between atoms: C_8  and  C_9
REMARK                            x       y       z     vdW  Elec       q    Type
REMARK                         _______ _______ _______ _____ _____    ______ ____
ROOT
ATOM      1  C   UNL     1       2.843   7.036  17.940  0.00  0.00    +0.000 A 
ATOM      2  N   UNL     1       2.130   7.434  18.968  0.00  0.00    +0.000 NA
ATOM      3  C   UNL     1       1.810   8.722  18.635  0.00  0.00    +0.000 A 
ATOM      4  N   UNL     1       2.266   9.104  17.430  0.00  0.00    +0.000 NA
ATOM      5  O   UNL     1       2.958   7.981  16.965  0.00  0.00    +0.000 OA
ENDROOT
BRANCH   1  10
ATOM      6  C   UNL     1       3.557   2.757  20.224  0.00  0.00    +0.000 C 
ATOM      7  C   UNL     1       4.053   3.598  19.036  0.00  0.00    +0.000 C 
ATOM      8  C   UNL     1       4.158   2.690  17.804  0.00  0.00    +0.000 C 
ATOM      9  C   UNL     1       3.086   4.766  18.830  0.00  0.00    +0.000 C 
ATOM     10  C   UNL     1       3.597   5.759  17.779  0.00  0.00    +0.000 C 
ATOM     11  C   UNL     1       5.085   5.987  17.940  0.00  0.00    +0.000 A 
ATOM     12  C   UNL     1       5.723   7.064  17.290  0.00  0.00    +0.000 A 
ATOM     13  C   UNL     1       7.070   7.339  17.516  0.00  0.00    +0.000 A 
ATOM     14  C   UNL     1       7.807   6.528  18.371  0.00  0.00    +0.000 A 
ATOM     15  C   UNL     1       7.200   5.431  18.981  0.00  0.00    +0.000 A 
ATOM     16  C   UNL     1       5.850   5.152  18.757  0.00  0.00    +0.000 A 
ATOM     17  O   UNL     1       5.361   4.055  19.408  0.00  0.00    +0.000 OA
ENDBRANCH   1  10
BRANCH   3  18
ATOM     18  C   UNL     1       1.038   9.553  19.548  0.00  0.00    +0.000 A 
ATOM     19  C   UNL     1       0.355  10.677  19.041  0.00  0.00    +0.000 A 
ATOM     20  C   UNL     1      -0.377  11.540  19.866  0.00  0.00    +0.000 A 
ATOM     21  C   UNL     1      -0.389  11.216  21.220  0.00  0.00    +0.000 A 
ATOM     22  N   UNL     1      -0.957  11.803  22.316  0.00  0.00    +0.000 N 
ATOM     23  N   UNL     1      -0.695  11.122  23.442  0.00  0.00    +0.000 NA
ATOM     24  N   UNL     1       0.051  10.075  23.109  0.00  0.00    +0.000 NA
ATOM     25  C   UNL     1       0.257  10.111  21.756  0.00  0.00    +0.000 A 
ATOM     26  C   UNL     1       0.978   9.252  20.917  0.00  0.00    +0.000 A 
ATOM     27  H   UNL     1      -1.513  12.645  22.372  0.00  0.00    +0.000 HD
ENDBRANCH   3  18
TORSDOF 2
ENDMDL
MODEL 4
REMARK VINA RESULT:      -9.4      1.445      3.346
REMARK  Name = 
REMARK  4 active torsions:
REMARK  status: ('A' for Active; 'I' for Inactive)
REMARK    1  A    between atoms: C_1  and  C_2
REMARK    2  A    between atoms: C_2  and  C_3
REMARK    3  A    between atoms: C_5  and  C_6
REMARK    4  A    between atoms: C_8  and  C_9
REMARK                            x       y       z     vdW  Elec       q    Type
REMARK                         _______ _______ _______ _____ _____    ______ ____
ROOT
ATOM      1  C   UNL     1       2.719   6.897  18.352  0.00  0.00    +0.000 A 
ATOM      2  N   UNL     1       2.076   7.158  19.467  0.00  0.00    +0.000 NA
ATOM      3  C   UNL     1       1.714   8.468  19.307  0.00  0.00    +0.000 A 
ATOM      4  N   UNL     1       2.075   8.995  18.125  0.00  0.00    +0.000 NA
ATOM      5  O   UNL     1       2.749   7.949  17.487  0.00  0.00    +0.000 OA
ENDROOT
BRANCH   1  10
ATOM      6  C   UNL     1       3.841   2.486  20.176  0.00  0.00    +0.000 C 
ATOM      7  C   UNL     1       4.153   3.432  19.004  0.00  0.00    +0.000 C 
ATOM      8  C   UNL     1       4.118   2.624  17.700  0.00  0.00    +0.000 C 
ATOM      9  C   UNL     1       3.137   4.576  19.019  0.00  0.00    +0.000 C 
ATOM     10  C   UNL     1       3.478   5.664  17.993  0.00  0.00    +0.000 C 
ATOM     11  C   UNL     1       4.968   5.934  17.977  0.00  0.00    +0.000 A 
ATOM     12  C   UNL     1       5.485   7.079  17.337  0.00  0.00    +0.000 A 
ATOM     13  C   UNL     1       6.843   7.386  17.408  0.00  0.00    +0.000 A 
ATOM     14  C   UNL     1       7.708   6.540  18.092  0.00  0.00    +0.000 A 
ATOM     15  C   UNL     1       7.216   5.378  18.687  0.00  0.00    +0.000 A 
ATOM     16  C   UNL     1       5.856   5.067  18.619  0.00  0.00    +0.000 A 
ATOM     17  O   UNL     1       5.487   3.907  19.238  0.00  0.00    +0.000 OA
ENDBRANCH   1  10
BRANCH   3  18
ATOM     18  C   UNL     1       0.997   9.172  20.361  0.00  0.00    +0.000 A 
ATOM     19  C   UNL     1       1.154   8.750  21.697  0.00  0.00    +0.000 A 
ATOM     20  C   UNL     1       0.469   9.358  22.757  0.00  0.00    +0.000 A 
ATOM     21  C   UNL     1      -0.377  10.406  22.408  0.00  0.00    +0.000 A 
ATOM     22  N   UNL     1      -1.207  11.216  23.129  0.00  0.00    +0.000 N 
ATOM     23  N   UNL     1      -1.841  12.107  22.350  0.00  0.00    +0.000 NA
ATOM     24  N   UNL     1      -1.439  11.900  21.102  0.00  0.00    +0.000 NA
ATOM     25  C   UNL     1      -0.547  10.862  21.108  0.00  0.00    +0.000 A 
ATOM     26  C   UNL     1       0.152  10.250  20.059  0.00  0.00    +0.000 A 
ATOM     27  H   UNL     1      -1.393  11.217  24.123  0.00  0.00    +0.000 HD
ENDBRANCH   3  18
TORSDOF 2
ENDMDL
MODEL 5
REMARK VINA RESULT:      -9.3      2.389      3.138
REMARK  Name = 
REMARK  4 active torsions:
REMARK  status: ('A' for Active; 'I' for Inactive)
REMARK    1  A    between atoms: C_1  and  C_2
REMARK    2  A    between atoms: C_2  and  C_3
REMARK    3  A    between atoms: C_5  and  C_6
REMARK    4  A    between atoms: C_8  and  C_9
REMARK                            x       y       z     vdW  Elec       q    Type
REMARK                         _______ _______ _______ _____ _____    ______ ____
ROOT
ATOM      1  C   UNL     1       2.188   7.810  19.373  0.00  0.00    +0.000 A 
ATOM      2  N   UNL     1       1.370   8.363  18.509  0.00  0.00    +0.000 NA
ATOM      3  C   UNL     1       0.596   9.170  19.298  0.00  0.00    +0.000 A 
ATOM      4  N   UNL     1       0.942   9.158  20.597  0.00  0.00    +0.000 NA
ATOM      5  O   UNL     1       2.002   8.248  20.649  0.00  0.00    +0.000 OA
ENDROOT
BRANCH   1  10
ATOM      6  C   UNL     1       5.084   6.044  15.833  0.00  0.00    +0.000 C 
ATOM      7  C   UNL     1       4.583   5.744  17.256  0.00  0.00    +0.000 C 
ATOM      8  C   UNL     1       5.782   5.329  18.120  0.00  0.00    +0.000 C 
ATOM      9  C   UNL     1       3.870   6.987  17.791  0.00  0.00    +0.000 C 
ATOM     10  C   UNL     1       3.181   6.722  19.137  0.00  0.00    +0.000 C 
ATOM     11  C   UNL     1       2.507   5.367  19.132  0.00  0.00    +0.000 A 
ATOM     12  C   UNL     1       1.575   5.024  20.134  0.00  0.00    +0.000 A 
ATOM     13  C   UNL     1       0.876   3.819  20.078  0.00  0.00    +0.000 A 
ATOM     14  C   UNL     1       1.116   2.928  19.038  0.00  0.00    +0.000 A 
ATOM     15  C   UNL     1       2.071   3.235  18.069  0.00  0.00    +0.000 A 
ATOM     16  C   UNL     1       2.774   4.440  18.122  0.00  0.00    +0.000 A 
ATOM     17  O   UNL     1       3.683   4.635  17.120  0.00  0.00    +0.000 OA
ENDBRANCH   1  10
BRANCH   3  18
ATOM     18  C   UNL     1      -0.488   9.951  18.721  0.00  0.00    +0.000 A 
ATOM     19  C   UNL     1      -1.002  11.050  19.440  0.00  0.00    +0.000 A 
ATOM     20  C   UNL     1      -2.066  11.824  18.962  0.00  0.00    +0.000 A 
ATOM     21  C   UNL     1      -2.586  11.441  17.729  0.00  0.00    +0.000 A 
ATOM     22  N   UNL     1      -3.608  11.916  16.958  0.00  0.00    +0.000 N 
ATOM     23  N   UNL     1      -3.748  11.215  15.822  0.00  0.00    +0.000 NA
ATOM     24  N   UNL     1      -2.821  10.265  15.824  0.00  0.00    +0.000 NA
ATOM     25  C   UNL     1      -2.099  10.377  16.982  0.00  0.00    +0.000 A 
ATOM     26  C   UNL     1      -1.028   9.617  17.469  0.00  0.00    +0.000 A 
ATOM     27  H   UNL     1      -4.238  12.687  17.138  0.00  0.00    +0.000 HD
ENDBRANCH   3  18
TORSDOF 2
ENDMDL
MODEL 6
REMARK VINA RESULT:      -9.2      2.948      8.293
REMARK  Name = 
REMARK  4 active torsions:
REMARK  status: ('A' for Active; 'I' for Inactive)
REMARK    1  A    between atoms: C_1  and  C_2
REMARK    2  A    between atoms: C_2  and  C_3
REMARK    3  A    between atoms: C_5  and  C_6
REMARK    4  A    between atoms: C_8  and  C_9
REMARK                            x       y       z     vdW  Elec       q    Type
REMARK                         _______ _______ _______ _____ _____    ______ ____
ROOT
ATOM      1  C   UNL     1       1.410   9.349  18.667  0.00  0.00    +0.000 A 
ATOM      2  N   UNL     1       2.141   8.690  17.798  0.00  0.00    +0.000 NA
ATOM      3  C   UNL     1       2.516   7.577  18.501  0.00  0.00    +0.000 A 
ATOM      4  N   UNL     1       2.007   7.518  19.744  0.00  0.00    +0.000 NA
ATOM      5  O   UNL     1       1.271   8.702  19.857  0.00  0.00    +0.000 OA
ENDROOT
BRANCH   1  10
ATOM      6  C   UNL     1       0.372  13.289  21.394  0.00  0.00    +0.000 C 
ATOM      7  C   UNL     1       0.187  12.704  19.984  0.00  0.00    +0.000 C 
ATOM      8  C   UNL     1       0.515  13.794  18.955  0.00  0.00    +0.000 C 
ATOM      9  C   UNL     1       1.083  11.472  19.847  0.00  0.00    +0.000 C 
ATOM     10  C   UNL     1       0.832  10.718  18.535  0.00  0.00    +0.000 C 
ATOM     11  C   UNL     1      -0.650  10.651  18.234  0.00  0.00    +0.000 A 
ATOM     12  C   UNL     1      -1.145   9.771  17.250  0.00  0.00    +0.000 A 
ATOM     13  C   UNL     1      -2.516   9.631  17.040  0.00  0.00    +0.000 A 
ATOM     14  C   UNL     1      -3.410  10.388  17.789  0.00  0.00    +0.000 A 
ATOM     15  C   UNL     1      -2.930  11.298  18.730  0.00  0.00    +0.000 A 
ATOM     16  C   UNL     1      -1.558  11.441  18.943  0.00  0.00    +0.000 A 
ATOM     17  O   UNL     1      -1.203  12.359  19.890  0.00  0.00    +0.000 OA
ENDBRANCH   1  10
BRANCH   3  18
ATOM     18  C   UNL     1       3.388   6.579  17.898  0.00  0.00    +0.000 A 
ATOM     19  C   UNL     1       2.995   5.225  17.914  0.00  0.00    +0.000 A 
ATOM     20  C   UNL     1       3.800   4.208  17.384  0.00  0.00    +0.000 A 
ATOM     21  C   UNL     1       5.012   4.619  16.840  0.00  0.00    +0.000 A 
ATOM     22  N   UNL     1       6.051   3.948  16.260  0.00  0.00    +0.000 N 
ATOM     23  N   UNL     1       7.033   4.778  15.875  0.00  0.00    +0.000 NA
ATOM     24  N   UNL     1       6.659   6.011  16.194  0.00  0.00    +0.000 NA
ATOM     25  C   UNL     1       5.429   5.942  16.791  0.00  0.00    +0.000 A 
ATOM     26  C   UNL     1       4.610   6.949  17.316  0.00  0.00    +0.000 A 
ATOM     27  H   UNL     1       6.161   2.954  16.103  0.00  0.00    +0.000 HD
ENDBRANCH   3  18
TORSDOF 2
ENDMDL
MODEL 7
REMARK VINA RESULT:      -9.0      1.985      2.410
REMARK  Name = 
REMARK  4 active torsions:
REMARK  status: ('A' for Active; 'I' for Inactive)
REMARK    1  A    between atoms: C_1  and  C_2
REMARK    2  A    between atoms: C_2  and  C_3
REMARK    3  A    between atoms: C_5  and  C_6
REMARK    4  A    between atoms: C_8  and  C_9
REMARK                            x       y       z     vdW  Elec       q    Type
REMARK                         _______ _______ _______ _____ _____    ______ ____
ROOT
ATOM      1  C   UNL     1       2.404   7.168  19.758  0.00  0.00    +0.000 A 
ATOM      2  N   UNL     1       2.111   8.241  19.060  0.00  0.00    +0.000 NA
ATOM      3  C   UNL     1       1.156   8.849  19.828  0.00  0.00    +0.000 A 
ATOM      4  N   UNL     1       0.891   8.209  20.980  0.00  0.00    +0.000 NA
ATOM      5  O   UNL     1       1.721   7.085  20.933  0.00  0.00    +0.000 OA
ENDROOT
BRANCH   1  10
ATOM      6  C   UNL     1       5.082   5.584  15.969  0.00  0.00    +0.000 C 
ATOM      7  C   UNL     1       4.567   5.160  17.354  0.00  0.00    +0.000 C 
ATOM      8  C   UNL     1       5.725   4.527  18.135  0.00  0.00    +0.000 C 
ATOM      9  C   UNL     1       3.984   6.390  18.053  0.00  0.00    +0.000 C 
ATOM     10  C   UNL     1       3.284   6.027  19.369  0.00  0.00    +0.000 C 
ATOM     11  C   UNL     1       2.479   4.754  19.212  0.00  0.00    +0.000 A 
ATOM     12  C   UNL     1       1.527   4.381  20.183  0.00  0.00    +0.000 A 
ATOM     13  C   UNL     1       0.712   3.266  19.994  0.00  0.00    +0.000 A 
ATOM     14  C   UNL     1       0.855   2.493  18.848  0.00  0.00    +0.000 A 
ATOM     15  C   UNL     1       1.827   2.824  17.904  0.00  0.00    +0.000 A 
ATOM     16  C   UNL     1       2.645   3.939  18.090  0.00  0.00    +0.000 A 
ATOM     17  O   UNL     1       3.560   4.169  17.102  0.00  0.00    +0.000 OA
ENDBRANCH   1  10
BRANCH   3  18
ATOM     18  C   UNL     1       0.522  10.082  19.383  0.00  0.00    +0.000 A 
ATOM     19  C   UNL     1      -0.660  10.010  18.619  0.00  0.00    +0.000 A 
ATOM     20  C   UNL     1      -1.303  11.153  18.128  0.00  0.00    +0.000 A 
ATOM     21  C   UNL     1      -0.702  12.367  18.444  0.00  0.00    +0.000 A 
ATOM     22  N   UNL     1      -1.003  13.665  18.144  0.00  0.00    +0.000 N 
ATOM     23  N   UNL     1      -0.119  14.522  18.676  0.00  0.00    +0.000 NA
ATOM     24  N   UNL     1       0.782  13.805  19.336  0.00  0.00    +0.000 NA
ATOM     25  C   UNL     1       0.453  12.483  19.206  0.00  0.00    +0.000 A 
ATOM     26  C   UNL     1       1.080  11.331  19.698  0.00  0.00    +0.000 A 
ATOM     27  H   UNL     1      -1.769  14.031  17.593  0.00  0.00    +0.000 HD
ENDBRANCH   3  18
TORSDOF 2
ENDMDL
MODEL 8
REMARK VINA RESULT:      -9.0      2.238      3.661
REMARK  Name = 
REMARK  4 active torsions:
REMARK  status: ('A' for Active; 'I' for Inactive)
REMARK    1  A    between atoms: C_1  and  C_2
REMARK    2  A    between atoms: C_2  and  C_3
REMARK    3  A    between atoms: C_5  and  C_6
REMARK    4  A    between atoms: C_8  and  C_9
REMARK                            x       y       z     vdW  Elec       q    Type
REMARK                         _______ _______ _______ _____ _____    ______ ____
ROOT
ATOM      1  C   UNL     1       2.315   7.144  18.627  0.00  0.00    +0.000 A 
ATOM      2  N   UNL     1       1.796   8.201  18.047  0.00  0.00    +0.000 NA
ATOM      3  C   UNL     1       1.415   8.974  19.110  0.00  0.00    +0.000 A 
ATOM      4  N   UNL     1       1.722   8.446  20.307  0.00  0.00    +0.000 NA
ATOM      5  O   UNL     1       2.320   7.223  19.987  0.00  0.00    +0.000 OA
ENDROOT
BRANCH   1  10
ATOM      6  C   UNL     1       2.712   2.355  19.597  0.00  0.00    +0.000 C 
ATOM      7  C   UNL     1       3.093   3.419  18.555  0.00  0.00    +0.000 C 
ATOM      8  C   UNL     1       2.779   2.871  17.157  0.00  0.00    +0.000 C 
ATOM      9  C   UNL     1       2.329   4.706  18.872  0.00  0.00    +0.000 C 
ATOM     10  C   UNL     1       2.780   5.878  17.991  0.00  0.00    +0.000 C 
ATOM     11  C   UNL     1       4.286   5.875  17.831  0.00  0.00    +0.000 A 
ATOM     12  C   UNL     1       4.956   7.003  17.315  0.00  0.00    +0.000 A 
ATOM     13  C   UNL     1       6.349   7.045  17.262  0.00  0.00    +0.000 A 
ATOM     14  C   UNL     1       7.090   5.952  17.695  0.00  0.00    +0.000 A 
ATOM     15  C   UNL     1       6.436   4.811  18.161  0.00  0.00    +0.000 A 
ATOM     16  C   UNL     1       5.042   4.765  18.216  0.00  0.00    +0.000 A 
ATOM     17  O   UNL     1       4.511   3.600  18.691  0.00  0.00    +0.000 OA
ENDBRANCH   1  10
BRANCH   3  18
ATOM     18  C   UNL     1       0.745  10.249  18.896  0.00  0.00    +0.000 A 
ATOM     19  C   UNL     1      -0.580  10.256  18.415  0.00  0.00    +0.000 A 
ATOM     20  C   UNL     1      -1.273  11.444  18.154  0.00  0.00    +0.000 A 
ATOM     21  C   UNL     1      -0.571  12.620  18.401  0.00  0.00    +0.000 A 
ATOM     22  N   UNL     1      -0.884  13.942  18.257  0.00  0.00    +0.000 N 
ATOM     23  N   UNL     1       0.129  14.741  18.628  0.00  0.00    +0.000 NA
ATOM     24  N   UNL     1       1.127  13.959  19.022  0.00  0.00    +0.000 NA
ATOM     25  C   UNL     1       0.728  12.657  18.888  0.00  0.00    +0.000 A 
ATOM     26  C   UNL     1       1.406  11.460  19.154  0.00  0.00    +0.000 A 
ATOM     27  H   UNL     1      -1.739  14.362  17.917  0.00  0.00    +0.000 HD
ENDBRANCH   3  18
TORSDOF 2
ENDMDL
MODEL 9
REMARK VINA RESULT:      -8.9      2.977      8.097
REMARK  Name = 
REMARK  4 active torsions:
REMARK  status: ('A' for Active; 'I' for Inactive)
REMARK    1  A    between atoms: C_1  and  C_2
REMARK    2  A    between atoms: C_2  and  C_3
REMARK    3  A    between atoms: C_5  and  C_6
REMARK    4  A    between atoms: C_8  and  C_9
REMARK                            x       y       z     vdW  Elec       q    Type
REMARK                         _______ _______ _______ _____ _____    ______ ____
ROOT
ATOM      1  C   UNL     1       1.076   9.524  19.443  0.00  0.00    +0.000 A 
ATOM      2  N   UNL     1       1.743   8.618  18.767  0.00  0.00    +0.000 NA
ATOM      3  C   UNL     1       1.962   7.643  19.702  0.00  0.00    +0.000 A 
ATOM      4  N   UNL     1       1.419   7.906  20.903  0.00  0.00    +0.000 NA
ATOM      5  O   UNL     1       0.830   9.162  20.733  0.00  0.00    +0.000 OA
ENDROOT
BRANCH   1  10
ATOM      6  C   UNL     1       0.233  13.989  21.284  0.00  0.00    +0.000 C 
ATOM      7  C   UNL     1       0.120  13.167  19.990  0.00  0.00    +0.000 C 
ATOM      8  C   UNL     1       0.667  14.007  18.828  0.00  0.00    +0.000 C 
ATOM      9  C   UNL     1       0.880  11.853  20.180  0.00  0.00    +0.000 C 
ATOM     10  C   UNL     1       0.672  10.891  19.003  0.00  0.00    +0.000 C 
ATOM     11  C   UNL     1      -0.772  10.907  18.549  0.00  0.00    +0.000 A 
ATOM     12  C   UNL     1      -1.266   9.907  17.687  0.00  0.00    +0.000 A 
ATOM     13  C   UNL     1      -2.618   9.858  17.349  0.00  0.00    +0.000 A 
ATOM     14  C   UNL     1      -3.488  10.823  17.842  0.00  0.00    +0.000 A 
ATOM     15  C   UNL     1      -3.001  11.846  18.655  0.00  0.00    +0.000 A 
ATOM     16  C   UNL     1      -1.649  11.898  18.996  0.00  0.00    +0.000 A 
ATOM     17  O   UNL     1      -1.285  12.942  19.799  0.00  0.00    +0.000 OA
ENDBRANCH   1  10
BRANCH   3  18
ATOM     18  C   UNL     1       2.721   6.448  19.362  0.00  0.00    +0.000 A 
ATOM     19  C   UNL     1       3.548   6.461  18.219  0.00  0.00    +0.000 A 
ATOM     20  C   UNL     1       4.278   5.338  17.813  0.00  0.00    +0.000 A 
ATOM     21  C   UNL     1       4.138   4.205  18.610  0.00  0.00    +0.000 A 
ATOM     22  N   UNL     1       4.655   2.943  18.538  0.00  0.00    +0.000 N 
ATOM     23  N   UNL     1       4.231   2.169  19.549  0.00  0.00    +0.000 NA
ATOM     24  N   UNL     1       3.427   2.906  20.305  0.00  0.00    +0.000 NA
ATOM     25  C   UNL     1       3.348   4.155  19.750  0.00  0.00    +0.000 A 
ATOM     26  C   UNL     1       2.630   5.290  20.149  0.00  0.00    +0.000 A 
ATOM     27  H   UNL     1       5.279   2.547  17.847  0.00  0.00    +0.000 HD
ENDBRANCH   3  18
TORSDOF 2
ENDMDL
