MODEL 1
REMARK VINA RESULT:      -8.9      0.000      0.000
REMARK  Name = 
REMARK  2 active torsions:
REMARK  status: ('A' for Active; 'I' for Inactive)
REMARK    1  A    between atoms: C_2  and  C_3
REMARK    2  A    between atoms: C_21  and  C_22
REMARK                            x       y       z     vdW  Elec       q    Type
REMARK                         _______ _______ _______ _____ _____    ______ ____
ROOT
ATOM      1  O   UNL     1       3.351   8.417  17.867  0.00  0.00    +0.000 OA
ATOM      2  C   UNL     1       2.435   8.025  18.591  0.00  0.00    +0.000 C 
ATOM      3  N   UNL     1       2.504   6.748  19.185  0.00  0.00    +0.000 N 
ATOM      4  C   UNL     1       1.447   6.148  19.998  0.00  0.00    +0.000 C 
ATOM      5  C   UNL     1       1.764   4.832  20.685  0.00  0.00    +0.000 C 
ATOM      6  C   UNL     1       2.352   3.904  19.661  0.00  0.00    +0.000 A 
ATOM      7  C   UNL     1       1.929   2.576  19.575  0.00  0.00    +0.000 A 
ATOM      8  C   UNL     1       2.504   1.728  18.636  0.00  0.00    +0.000 A 
ATOM      9  C   UNL     1       3.510   2.207  17.800  0.00  0.00    +0.000 A 
ATOM     10  C   UNL     1       3.943   3.549  17.858  0.00  0.00    +0.000 A 
ATOM     11  C   UNL     1       3.333   4.422  18.785  0.00  0.00    +0.000 A 
ATOM     12  C   UNL     1       3.692   5.900  18.932  0.00  0.00    +0.000 C 
ENDROOT
BRANCH   2  13
ATOM     13  C   UNL     1       1.246   8.963  18.872  0.00  0.00    +0.000 A 
ATOM     14  C   UNL     1       0.639   9.641  17.879  0.00  0.00    +0.000 A 
ATOM     15  N   UNL     1      -0.482  10.407  18.032  0.00  0.00    +0.000 N 
ATOM     16  C   UNL     1      -1.062  10.688  19.235  0.00  0.00    +0.000 A 
ATOM     17  O   UNL     1      -2.091  11.356  19.307  0.00  0.00    +0.000 OA
ATOM     18  C   UNL     1      -0.355  10.165  20.417  0.00  0.00    +0.000 A 
ATOM     19  C   UNL     1      -0.804  10.587  21.677  0.00  0.00    +0.000 A 
ATOM     20  C   UNL     1      -0.150  10.152  22.820  0.00  0.00    +0.000 A 
ATOM     21  C   UNL     1       0.935   9.290  22.697  0.00  0.00    +0.000 A 
ATOM     22  C   UNL     1       1.381   8.866  21.433  0.00  0.00    +0.000 A 
ATOM     23  C   UNL     1       0.760   9.304  20.255  0.00  0.00    +0.000 A 
ATOM     24  H   UNL     1      -0.954  10.794  17.223  0.00  0.00    +0.000 HD
ENDBRANCH   2  13
BRANCH  10  25
ATOM     25  C   UNL     1       5.048   3.997  16.929  0.00  0.00    +0.000 C 
ATOM     26  F   UNL     1       5.442   3.030  16.050  0.00  0.00    +0.000 F 
ATOM     27  F   UNL     1       4.695   5.064  16.165  0.00  0.00    +0.000 F 
ATOM     28  F   UNL     1       6.175   4.362  17.601  0.00  0.00    +0.000 F 
ENDBRANCH  10  25
TORSDOF 2
ENDMDL
MODEL 2
REMARK VINA RESULT:      -8.2      3.921      7.838
REMARK  Name = 
REMARK  2 active torsions:
REMARK  status: ('A' for Active; 'I' for Inactive)
REMARK    1  A    between atoms: C_2  and  C_3
REMARK    2  A    between atoms: C_21  and  C_22
REMARK                            x       y       z     vdW  Elec       q    Type
REMARK                         _______ _______ _______ _____ _____    ______ ____
ROOT
ATOM      1  O   UNL     1       1.924   5.914  21.420  0.00  0.00    +0.000 OA
ATOM      2  C   UNL     1       1.983   6.208  20.226  0.00  0.00    +0.000 C 
ATOM      3  N   UNL     1       1.841   7.552  19.823  0.00  0.00    +0.000 N 
ATOM      4  C   UNL     1       1.816   8.008  18.434  0.00  0.00    +0.000 C 
ATOM      5  C   UNL     1       1.815   9.507  18.196  0.00  0.00    +0.000 C 
ATOM      6  C   UNL     1       0.746  10.113  19.060  0.00  0.00    +0.000 A 
ATOM      7  C   UNL     1      -0.132  11.067  18.543  0.00  0.00    +0.000 A 
ATOM      8  C   UNL     1      -1.098  11.632  19.367  0.00  0.00    +0.000 A 
ATOM      9  C   UNL     1      -1.171  11.253  20.706  0.00  0.00    +0.000 A 
ATOM     10  C   UNL     1      -0.303  10.280  21.246  0.00  0.00    +0.000 A 
ATOM     11  C   UNL     1       0.653   9.676  20.401  0.00  0.00    +0.000 A 
ATOM     12  C   UNL     1       1.633   8.594  20.854  0.00  0.00    +0.000 C 
ENDROOT
BRANCH   2  13
ATOM     13  C   UNL     1       2.258   5.098  19.193  0.00  0.00    +0.000 A 
ATOM     14  C   UNL     1       1.426   4.048  19.056  0.00  0.00    +0.000 A 
ATOM     15  N   UNL     1       1.545   3.082  18.096  0.00  0.00    +0.000 N 
ATOM     16  C   UNL     1       2.594   2.986  17.228  0.00  0.00    +0.000 A 
ATOM     17  O   UNL     1       2.628   2.115  16.362  0.00  0.00    +0.000 OA
ATOM     18  C   UNL     1       3.672   3.970  17.426  0.00  0.00    +0.000 A 
ATOM     19  C   UNL     1       4.851   3.793  16.686  0.00  0.00    +0.000 A 
ATOM     20  C   UNL     1       5.910   4.670  16.863  0.00  0.00    +0.000 A 
ATOM     21  C   UNL     1       5.779   5.724  17.764  0.00  0.00    +0.000 A 
ATOM     22  C   UNL     1       4.596   5.900  18.500  0.00  0.00    +0.000 A 
ATOM     23  C   UNL     1       3.513   5.020  18.366  0.00  0.00    +0.000 A 
ATOM     24  H   UNL     1       0.819   2.385  17.977  0.00  0.00    +0.000 HD
ENDBRANCH   2  13
BRANCH  10  25
ATOM     25  C   UNL     1      -0.430   9.925  22.709  0.00  0.00    +0.000 C 
ATOM     26  F   UNL     1       0.769   9.857  23.357  0.00  0.00    +0.000 F 
ATOM     27  F   UNL     1      -1.172  10.824  23.408  0.00  0.00    +0.000 F 
ATOM     28  F   UNL     1      -1.018   8.711  22.901  0.00  0.00    +0.000 F 
ENDBRANCH  10  25
TORSDOF 2
ENDMDL
MODEL 3
REMARK VINA RESULT:      -8.2      1.414      2.467
REMARK  Name = 
REMARK  2 active torsions:
REMARK  status: ('A' for Active; 'I' for Inactive)
REMARK    1  A    between atoms: C_2  and  C_3
REMARK    2  A    between atoms: C_21  and  C_22
REMARK                            x       y       z     vdW  Elec       q    Type
REMARK                         _______ _______ _______ _____ _____    ______ ____
ROOT
ATOM      1  O   UNL     1       2.839   9.260  18.279  0.00  0.00    +0.000 OA
ATOM      2  C   UNL     1       2.010   8.813  19.073  0.00  0.00    +0.000 C 
ATOM      3  N   UNL     1       2.128   7.490  19.544  0.00  0.00    +0.000 N 
ATOM      4  C   UNL     1       1.165   6.829  20.424  0.00  0.00    +0.000 C 
ATOM      5  C   UNL     1       1.539   5.457  20.955  0.00  0.00    +0.000 C 
ATOM      6  C   UNL     1       1.985   4.616  19.793  0.00  0.00    +0.000 A 
ATOM      7  C   UNL     1       1.532   3.304  19.647  0.00  0.00    +0.000 A 
ATOM      8  C   UNL     1       1.977   2.536  18.578  0.00  0.00    +0.000 A 
ATOM      9  C   UNL     1       2.884   3.078  17.670  0.00  0.00    +0.000 A 
ATOM     10  C   UNL     1       3.344   4.407  17.789  0.00  0.00    +0.000 A 
ATOM     11  C   UNL     1       2.863   5.201  18.852  0.00  0.00    +0.000 A 
ATOM     12  C   UNL     1       3.263   6.658  19.079  0.00  0.00    +0.000 C 
ENDROOT
BRANCH   2  13
ATOM     13  C   UNL     1       0.880   9.733  19.573  0.00  0.00    +0.000 A 
ATOM     14  C   UNL     1       0.859  10.191  20.839  0.00  0.00    +0.000 A 
ATOM     15  N   UNL     1      -0.049  11.090  21.326  0.00  0.00    +0.000 N 
ATOM     16  C   UNL     1      -1.129  11.546  20.627  0.00  0.00    +0.000 A 
ATOM     17  O   UNL     1      -1.892  12.382  21.106  0.00  0.00    +0.000 OA
ATOM     18  C   UNL     1      -1.321  10.948  19.294  0.00  0.00    +0.000 A 
ATOM     19  C   UNL     1      -2.515  11.242  18.621  0.00  0.00    +0.000 A 
ATOM     20  C   UNL     1      -2.760  10.674  17.380  0.00  0.00    +0.000 A 
ATOM     21  C   UNL     1      -1.807   9.832  16.815  0.00  0.00    +0.000 A 
ATOM     22  C   UNL     1      -0.610   9.543  17.491  0.00  0.00    +0.000 A 
ATOM     23  C   UNL     1      -0.338  10.078  18.758  0.00  0.00    +0.000 A 
ATOM     24  H   UNL     1       0.063  11.481  22.254  0.00  0.00    +0.000 HD
ENDBRANCH   2  13
BRANCH  10  25
ATOM     25  C   UNL     1       4.337   4.925  16.775  0.00  0.00    +0.000 C 
ATOM     26  F   UNL     1       4.392   4.174  15.637  0.00  0.00    +0.000 F 
ATOM     27  F   UNL     1       4.061   6.191  16.364  0.00  0.00    +0.000 F 
ATOM     28  F   UNL     1       5.610   4.948  17.259  0.00  0.00    +0.000 F 
ENDBRANCH  10  25
TORSDOF 2
ENDMDL
MODEL 4
REMARK VINA RESULT:      -8.2      1.738      2.965
REMARK  Name = 
REMARK  2 active torsions:
REMARK  status: ('A' for Active; 'I' for Inactive)
REMARK    1  A    between atoms: C_2  and  C_3
REMARK    2  A    between atoms: C_21  and  C_22
REMARK                            x       y       z     vdW  Elec       q    Type
REMARK                         _______ _______ _______ _____ _____    ______ ____
ROOT
ATOM      1  O   UNL     1       2.332   9.825  17.872  0.00  0.00    +0.000 OA
ATOM      2  C   UNL     1       1.541   9.551  18.775  0.00  0.00    +0.000 C 
ATOM      3  N   UNL     1       1.711   8.370  19.526  0.00  0.00    +0.000 N 
ATOM      4  C   UNL     1       0.796   7.904  20.567  0.00  0.00    +0.000 C 
ATOM      5  C   UNL     1       1.224   6.695  21.377  0.00  0.00    +0.000 C 
ATOM      6  C   UNL     1       1.659   5.624  20.418  0.00  0.00    +0.000 A 
ATOM      7  C   UNL     1       1.240   4.302  20.586  0.00  0.00    +0.000 A 
ATOM      8  C   UNL     1       1.674   3.324  19.700  0.00  0.00    +0.000 A 
ATOM      9  C   UNL     1       2.537   3.666  18.662  0.00  0.00    +0.000 A 
ATOM     10  C   UNL     1       2.962   4.998  18.464  0.00  0.00    +0.000 A 
ATOM     11  C   UNL     1       2.491   6.000  19.339  0.00  0.00    +0.000 A 
ATOM     12  C   UNL     1       2.855   7.480  19.219  0.00  0.00    +0.000 C 
ENDROOT
BRANCH   2  13
ATOM     13  C   UNL     1       0.400  10.535  19.097  0.00  0.00    +0.000 A 
ATOM     14  C   UNL     1       0.462  11.354  20.164  0.00  0.00    +0.000 A 
ATOM     15  N   UNL     1      -0.457  12.322  20.456  0.00  0.00    +0.000 N 
ATOM     16  C   UNL     1      -1.624  12.505  19.773  0.00  0.00    +0.000 A 
ATOM     17  O   UNL     1      -2.396  13.416  20.060  0.00  0.00    +0.000 OA
ATOM     18  C   UNL     1      -1.894  11.524  18.707  0.00  0.00    +0.000 A 
ATOM     19  C   UNL     1      -3.162  11.555  18.107  0.00  0.00    +0.000 A 
ATOM     20  C   UNL     1      -3.479  10.631  17.124  0.00  0.00    +0.000 A 
ATOM     21  C   UNL     1      -2.525   9.694  16.737  0.00  0.00    +0.000 A 
ATOM     22  C   UNL     1      -1.254   9.668  17.337  0.00  0.00    +0.000 A 
ATOM     23  C   UNL     1      -0.907  10.571  18.351  0.00  0.00    +0.000 A 
ATOM     24  H   UNL     1      -0.289  12.979  21.209  0.00  0.00    +0.000 HD
ENDBRANCH   2  13
BRANCH  10  25
ATOM     25  C   UNL     1       3.908   5.296  17.324  0.00  0.00    +0.000 C 
ATOM     26  F   UNL     1       3.869   4.363  16.328  0.00  0.00    +0.000 F 
ATOM     27  F   UNL     1       3.650   6.486  16.720  0.00  0.00    +0.000 F 
ATOM     28  F   UNL     1       5.208   5.345  17.728  0.00  0.00    +0.000 F 
ENDBRANCH  10  25
TORSDOF 2
ENDMDL
MODEL 5
REMARK VINA RESULT:      -8.2      1.975      3.452
REMARK  Name = 
REMARK  2 active torsions:
REMARK  status: ('A' for Active; 'I' for Inactive)
REMARK    1  A    between atoms: C_2  and  C_3
REMARK    2  A    between atoms: C_21  and  C_22
REMARK                            x       y       z     vdW  Elec       q    Type
REMARK                         _______ _______ _______ _____ _____    ______ ____
ROOT
ATOM      1  O   UNL     1       1.830  10.447  18.030  0.00  0.00    +0.000 OA
ATOM      2  C   UNL     1       1.062  10.036  18.901  0.00  0.00    +0.000 C 
ATOM      3  N   UNL     1       1.375   8.866  19.622  0.00  0.00    +0.000 N 
ATOM      4  C   UNL     1       0.507   8.244  20.621  0.00  0.00    +0.000 C 
ATOM      5  C   UNL     1       1.078   7.079  21.408  0.00  0.00    +0.000 C 
ATOM      6  C   UNL     1       1.681   6.110  20.431  0.00  0.00    +0.000 A 
ATOM      7  C   UNL     1       1.445   4.739  20.548  0.00  0.00    +0.000 A 
ATOM      8  C   UNL     1       2.032   3.859  19.647  0.00  0.00    +0.000 A 
ATOM      9  C   UNL     1       2.865   4.352  18.645  0.00  0.00    +0.000 A 
ATOM     10  C   UNL     1       3.106   5.735  18.498  0.00  0.00    +0.000 A 
ATOM     11  C   UNL     1       2.479   6.633  19.388  0.00  0.00    +0.000 A 
ATOM     12  C   UNL     1       2.638   8.152  19.322  0.00  0.00    +0.000 C 
ENDROOT
BRANCH   2  13
ATOM     13  C   UNL     1      -0.212  10.843  19.218  0.00  0.00    +0.000 A 
ATOM     14  C   UNL     1      -0.320  11.564  20.351  0.00  0.00    +0.000 A 
ATOM     15  N   UNL     1      -1.371  12.385  20.653  0.00  0.00    +0.000 N 
ATOM     16  C   UNL     1      -2.507  12.486  19.903  0.00  0.00    +0.000 A 
ATOM     17  O   UNL     1      -3.404  13.268  20.207  0.00  0.00    +0.000 OA
ATOM     18  C   UNL     1      -2.584  11.580  18.744  0.00  0.00    +0.000 A 
ATOM     19  C   UNL     1      -3.806  11.512  18.058  0.00  0.00    +0.000 A 
ATOM     20  C   UNL     1      -3.941  10.648  16.982  0.00  0.00    +0.000 A 
ATOM     21  C   UNL     1      -2.854   9.872  16.590  0.00  0.00    +0.000 A 
ATOM     22  C   UNL     1      -1.631   9.945  17.277  0.00  0.00    +0.000 A 
ATOM     23  C   UNL     1      -1.464  10.788  18.384  0.00  0.00    +0.000 A 
ATOM     24  H   UNL     1      -1.334  12.986  21.467  0.00  0.00    +0.000 HD
ENDBRANCH   2  13
BRANCH  10  25
ATOM     25  C   UNL     1       4.031   6.198  17.396  0.00  0.00    +0.000 C 
ATOM     26  F   UNL     1       5.257   6.593  17.847  0.00  0.00    +0.000 F 
ATOM     27  F   UNL     1       4.275   5.233  16.471  0.00  0.00    +0.000 F 
ATOM     28  F   UNL     1       3.531   7.266  16.714  0.00  0.00    +0.000 F 
ENDBRANCH  10  25
TORSDOF 2
ENDMDL
MODEL 6
REMARK VINA RESULT:      -8.1      3.623      7.659
REMARK  Name = 
REMARK  2 active torsions:
REMARK  status: ('A' for Active; 'I' for Inactive)
REMARK    1  A    between atoms: C_2  and  C_3
REMARK    2  A    between atoms: C_21  and  C_22
REMARK                            x       y       z     vdW  Elec       q    Type
REMARK                         _______ _______ _______ _____ _____    ______ ____
ROOT
ATOM      1  O   UNL     1       2.505   8.828  16.935  0.00  0.00    +0.000 OA
ATOM      2  C   UNL     1       2.544   8.105  17.931  0.00  0.00    +0.000 C 
ATOM      3  N   UNL     1       1.598   8.275  18.962  0.00  0.00    +0.000 N 
ATOM      4  C   UNL     1       1.592   7.530  20.221  0.00  0.00    +0.000 C 
ATOM      5  C   UNL     1       0.405   7.736  21.143  0.00  0.00    +0.000 C 
ATOM      6  C   UNL     1       0.194   9.215  21.305  0.00  0.00    +0.000 A 
ATOM      7  C   UNL     1      -0.039   9.768  22.566  0.00  0.00    +0.000 A 
ATOM      8  C   UNL     1      -0.255  11.136  22.689  0.00  0.00    +0.000 A 
ATOM      9  C   UNL     1      -0.253  11.939  21.551  0.00  0.00    +0.000 A 
ATOM     10  C   UNL     1      -0.005  11.404  20.269  0.00  0.00    +0.000 A 
ATOM     11  C   UNL     1       0.254  10.022  20.146  0.00  0.00    +0.000 A 
ATOM     12  C   UNL     1       0.561   9.324  18.822  0.00  0.00    +0.000 C 
ENDROOT
BRANCH   2  13
ATOM     13  C   UNL     1       3.605   6.990  18.008  0.00  0.00    +0.000 A 
ATOM     14  C   UNL     1       4.920   7.270  17.937  0.00  0.00    +0.000 A 
ATOM     15  N   UNL     1       5.921   6.353  18.102  0.00  0.00    +0.000 N 
ATOM     16  C   UNL     1       5.717   5.010  18.237  0.00  0.00    +0.000 A 
ATOM     17  O   UNL     1       6.655   4.238  18.417  0.00  0.00    +0.000 OA
ATOM     18  C   UNL     1       4.317   4.567  18.120  0.00  0.00    +0.000 A 
ATOM     19  C   UNL     1       4.081   3.185  18.062  0.00  0.00    +0.000 A 
ATOM     20  C   UNL     1       2.784   2.716  17.916  0.00  0.00    +0.000 A 
ATOM     21  C   UNL     1       1.734   3.627  17.845  0.00  0.00    +0.000 A 
ATOM     22  C   UNL     1       1.974   5.011  17.908  0.00  0.00    +0.000 A 
ATOM     23  C   UNL     1       3.273   5.522  18.030  0.00  0.00    +0.000 A 
ATOM     24  H   UNL     1       6.887   6.652  18.151  0.00  0.00    +0.000 HD
ENDBRANCH   2  13
BRANCH  10  25
ATOM     25  C   UNL     1      -0.030  12.333  19.077  0.00  0.00    +0.000 C 
ATOM     26  F   UNL     1      -0.298  13.630  19.405  0.00  0.00    +0.000 F 
ATOM     27  F   UNL     1       1.151  12.363  18.405  0.00  0.00    +0.000 F 
ATOM     28  F   UNL     1      -0.980  11.983  18.166  0.00  0.00    +0.000 F 
ENDBRANCH  10  25
TORSDOF 2
ENDMDL
MODEL 7
REMARK VINA RESULT:      -7.9      3.928      7.858
REMARK  Name = 
REMARK  2 active torsions:
REMARK  status: ('A' for Active; 'I' for Inactive)
REMARK    1  A    between atoms: C_2  and  C_3
REMARK    2  A    between atoms: C_21  and  C_22
REMARK                            x       y       z     vdW  Elec       q    Type
REMARK                         _______ _______ _______ _____ _____    ______ ____
ROOT
ATOM      1  O   UNL     1       2.146   6.726  21.309  0.00  0.00    +0.000 OA
ATOM      2  C   UNL     1       2.207   7.072  20.129  0.00  0.00    +0.000 C 
ATOM      3  N   UNL     1       1.859   8.389  19.763  0.00  0.00    +0.000 N 
ATOM      4  C   UNL     1       1.819   8.889  18.389  0.00  0.00    +0.000 C 
ATOM      5  C   UNL     1       1.577  10.375  18.199  0.00  0.00    +0.000 C 
ATOM      6  C   UNL     1       0.385  10.761  19.028  0.00  0.00    +0.000 A 
ATOM      7  C   UNL     1      -0.618  11.576  18.499  0.00  0.00    +0.000 A 
ATOM      8  C   UNL     1      -1.700  11.939  19.291  0.00  0.00    +0.000 A 
ATOM      9  C   UNL     1      -1.766  11.501  20.611  0.00  0.00    +0.000 A 
ATOM     10  C   UNL     1      -0.772  10.664  21.163  0.00  0.00    +0.000 A 
ATOM     11  C   UNL     1       0.307  10.261  20.348  0.00  0.00    +0.000 A 
ATOM     12  C   UNL     1       1.434   9.340  20.815  0.00  0.00    +0.000 C 
ENDROOT
BRANCH   2  13
ATOM     13  C   UNL     1       2.709   6.065  19.076  0.00  0.00    +0.000 A 
ATOM     14  C   UNL     1       3.549   6.441  18.093  0.00  0.00    +0.000 A 
ATOM     15  N   UNL     1       4.118   5.590  17.188  0.00  0.00    +0.000 N 
ATOM     16  C   UNL     1       3.814   4.263  17.085  0.00  0.00    +0.000 A 
ATOM     17  O   UNL     1       4.385   3.539  16.274  0.00  0.00    +0.000 OA
ATOM     18  C   UNL     1       2.747   3.786  17.982  0.00  0.00    +0.000 A 
ATOM     19  C   UNL     1       2.269   2.483  17.781  0.00  0.00    +0.000 A 
ATOM     20  C   UNL     1       1.241   1.998  18.575  0.00  0.00    +0.000 A 
ATOM     21  C   UNL     1       0.708   2.812  19.571  0.00  0.00    +0.000 A 
ATOM     22  C   UNL     1       1.192   4.116  19.773  0.00  0.00    +0.000 A 
ATOM     23  C   UNL     1       2.214   4.648  18.974  0.00  0.00    +0.000 A 
ATOM     24  H   UNL     1       4.830   5.921  16.549  0.00  0.00    +0.000 HD
ENDBRANCH   2  13
BRANCH  10  25
ATOM     25  C   UNL     1      -0.902  10.236  22.606  0.00  0.00    +0.000 C 
ATOM     26  F   UNL     1       0.227  10.455  23.340  0.00  0.00    +0.000 F 
ATOM     27  F   UNL     1      -1.897  10.888  23.263  0.00  0.00    +0.000 F 
ATOM     28  F   UNL     1      -1.166   8.905  22.731  0.00  0.00    +0.000 F 
ENDBRANCH  10  25
TORSDOF 2
ENDMDL
MODEL 8
REMARK VINA RESULT:      -7.9      4.078      8.002
REMARK  Name = 
REMARK  2 active torsions:
REMARK  status: ('A' for Active; 'I' for Inactive)
REMARK    1  A    between atoms: C_2  and  C_3
REMARK    2  A    between atoms: C_21  and  C_22
REMARK                            x       y       z     vdW  Elec       q    Type
REMARK                         _______ _______ _______ _____ _____    ______ ____
ROOT
ATOM      1  O   UNL     1       1.783   7.565  21.571  0.00  0.00    +0.000 OA
ATOM      2  C   UNL     1       1.830   7.812  20.366  0.00  0.00    +0.000 C 
ATOM      3  N   UNL     1       1.446   9.082  19.891  0.00  0.00    +0.000 N 
ATOM      4  C   UNL     1       1.387   9.464  18.481  0.00  0.00    +0.000 C 
ATOM      5  C   UNL     1       1.104  10.921  18.168  0.00  0.00    +0.000 C 
ATOM      6  C   UNL     1      -0.095  11.343  18.967  0.00  0.00    +0.000 A 
ATOM      7  C   UNL     1      -1.122  12.083  18.377  0.00  0.00    +0.000 A 
ATOM      8  C   UNL     1      -2.211  12.483  19.142  0.00  0.00    +0.000 A 
ATOM      9  C   UNL     1      -2.261  12.156  20.495  0.00  0.00    +0.000 A 
ATOM     10  C   UNL     1      -1.243  11.396  21.109  0.00  0.00    +0.000 A 
ATOM     11  C   UNL     1      -0.155  10.955  20.325  0.00  0.00    +0.000 A 
ATOM     12  C   UNL     1       0.998  10.108  20.862  0.00  0.00    +0.000 C 
ENDROOT
BRANCH   2  13
ATOM     13  C   UNL     1       2.356   6.733  19.399  0.00  0.00    +0.000 A 
ATOM     14  C   UNL     1       3.045   7.064  18.290  0.00  0.00    +0.000 A 
ATOM     15  N   UNL     1       3.632   6.166  17.442  0.00  0.00    +0.000 N 
ATOM     16  C   UNL     1       3.491   4.812  17.541  0.00  0.00    +0.000 A 
ATOM     17  O   UNL     1       4.072   4.052  16.769  0.00  0.00    +0.000 OA
ATOM     18  C   UNL     1       2.583   4.344  18.602  0.00  0.00    +0.000 A 
ATOM     19  C   UNL     1       2.259   2.979  18.620  0.00  0.00    +0.000 A 
ATOM     20  C   UNL     1       1.380   2.495  19.576  0.00  0.00    +0.000 A 
ATOM     21  C   UNL     1       0.843   3.372  20.515  0.00  0.00    +0.000 A 
ATOM     22  C   UNL     1       1.173   4.738  20.497  0.00  0.00    +0.000 A 
ATOM     23  C   UNL     1       2.039   5.268  19.530  0.00  0.00    +0.000 A 
ATOM     24  H   UNL     1       4.233   6.486  16.693  0.00  0.00    +0.000 HD
ENDBRANCH   2  13
BRANCH  10  25
ATOM     25  C   UNL     1      -1.356  11.088  22.585  0.00  0.00    +0.000 C 
ATOM     26  F   UNL     1      -1.163   9.770  22.880  0.00  0.00    +0.000 F 
ATOM     27  F   UNL     1      -0.451  11.767  23.337  0.00  0.00    +0.000 F 
ATOM     28  F   UNL     1      -2.583  11.399  23.087  0.00  0.00    +0.000 F 
ENDBRANCH  10  25
TORSDOF 2
ENDMDL
MODEL 9
REMARK VINA RESULT:      -7.9      5.342      8.169
REMARK  Name = 
REMARK  2 active torsions:
REMARK  status: ('A' for Active; 'I' for Inactive)
REMARK    1  A    between atoms: C_2  and  C_3
REMARK    2  A    between atoms: C_21  and  C_22
REMARK                            x       y       z     vdW  Elec       q    Type
REMARK                         _______ _______ _______ _____ _____    ______ ____
ROOT
ATOM      1  O   UNL     1      -2.533  14.449  21.275  0.00  0.00    +0.000 OA
ATOM      2  C   UNL     1      -2.808  13.462  21.958  0.00  0.00    +0.000 C 
ATOM      3  N   UNL     1      -1.831  12.473  22.192  0.00  0.00    +0.000 N 
ATOM      4  C   UNL     1      -2.063  11.226  22.918  0.00  0.00    +0.000 C 
ATOM      5  C   UNL     1      -0.854  10.356  23.208  0.00  0.00    +0.000 C 
ATOM      6  C   UNL     1      -0.087  10.186  21.928  0.00  0.00    +0.000 A 
ATOM      7  C   UNL     1       0.389   8.931  21.543  0.00  0.00    +0.000 A 
ATOM      8  C   UNL     1       1.117   8.802  20.366  0.00  0.00    +0.000 A 
ATOM      9  C   UNL     1       1.380   9.928  19.590  0.00  0.00    +0.000 A 
ATOM     10  C   UNL     1       0.897  11.204  19.952  0.00  0.00    +0.000 A 
ATOM     11  C   UNL     1       0.124  11.331  21.126  0.00  0.00    +0.000 A 
ATOM     12  C   UNL     1      -0.477  12.648  21.616  0.00  0.00    +0.000 C 
ENDROOT
BRANCH   2  13
ATOM     13  C   UNL     1      -4.212  13.349  22.583  0.00  0.00    +0.000 A 
ATOM     14  C   UNL     1      -4.431  13.672  23.873  0.00  0.00    +0.000 A 
ATOM     15  N   UNL     1      -5.660  13.699  24.470  0.00  0.00    +0.000 N 
ATOM     16  C   UNL     1      -6.814  13.281  23.871  0.00  0.00    +0.000 A 
ATOM     17  O   UNL     1      -7.896  13.362  24.446  0.00  0.00    +0.000 OA
ATOM     18  C   UNL     1      -6.657  12.710  22.522  0.00  0.00    +0.000 A 
ATOM     19  C   UNL     1      -7.780  12.097  21.947  0.00  0.00    +0.000 A 
ATOM     20  C   UNL     1      -7.676  11.512  20.694  0.00  0.00    +0.000 A 
ATOM     21  C   UNL     1      -6.459  11.557  20.020  0.00  0.00    +0.000 A 
ATOM     22  C   UNL     1      -5.337  12.176  20.597  0.00  0.00    +0.000 A 
ATOM     23  C   UNL     1      -5.398  12.756  21.872  0.00  0.00    +0.000 A 
ATOM     24  H   UNL     1      -5.767  14.062  25.409  0.00  0.00    +0.000 HD
ENDBRANCH   2  13
BRANCH  10  25
ATOM     25  C   UNL     1       1.231  12.385  19.070  0.00  0.00    +0.000 C 
ATOM     26  F   UNL     1       0.139  12.930  18.458  0.00  0.00    +0.000 F 
ATOM     27  F   UNL     1       1.816  13.405  19.751  0.00  0.00    +0.000 F 
ATOM     28  F   UNL     1       2.087  12.055  18.063  0.00  0.00    +0.000 F 
ENDBRANCH  10  25
TORSDOF 2
ENDMDL
