MODEL 1
REMARK VINA RESULT:      -8.4      0.000      0.000
REMARK  Name = 
REMARK  3 active torsions:
REMARK  status: ('A' for Active; 'I' for Inactive)
REMARK    1  A    between atoms: C_2  and  C_3
REMARK    2  A    between atoms: C_15  and  C_17
REMARK    3  A    between atoms: C_22  and  C_23
REMARK                            x       y       z     vdW  Elec       q    Type
REMARK                         _______ _______ _______ _____ _____    ______ ____
ROOT
ATOM      1  O   UNL     1       3.286   7.377  17.373  0.00  0.00    +0.000 OA
ATOM      2  C   UNL     1       2.530   7.286  18.346  0.00  0.00    +0.000 C 
ATOM      3  N   UNL     1       1.910   8.437  18.891  0.00  0.00    +0.000 N 
ATOM      4  C   UNL     1       2.065   9.641  18.073  0.00  0.00    +0.000 C 
ATOM      5  C   UNL     1       1.600  10.939  18.700  0.00  0.00    +0.000 C 
ATOM      6  C   UNL     1       0.311  10.863  19.523  0.00  0.00    +0.000 C 
ATOM      7  F   UNL     1       0.380  12.004  20.280  0.00  0.00    +0.000 F 
ATOM      8  C   UNL     1       0.447   9.704  20.516  0.00  0.00    +0.000 C 
ATOM      9  C   UNL     1       0.829   8.372  19.882  0.00  0.00    +0.000 C 
ENDROOT
BRANCH   2  10
ATOM     10  C   UNL     1       2.325   5.905  18.906  0.00  0.00    +0.000 A 
ATOM     11  C   UNL     1       1.869   4.918  18.016  0.00  0.00    +0.000 A 
ATOM     12  C   UNL     1       1.600   3.627  18.466  0.00  0.00    +0.000 A 
ATOM     13  C   UNL     1       1.819   3.438  19.824  0.00  0.00    +0.000 A 
ATOM     14  N   UNL     1       1.682   2.381  20.674  0.00  0.00    +0.000 N 
ATOM     15  N   UNL     1       2.025   2.704  21.933  0.00  0.00    +0.000 NA
ATOM     16  N   UNL     1       2.379   3.985  21.933  0.00  0.00    +0.000 NA
ATOM     17  C   UNL     1       2.256   4.458  20.656  0.00  0.00    +0.000 A 
ATOM     18  N   UNL     1       2.515   5.716  20.233  0.00  0.00    +0.000 NA
ATOM     19  H   UNL     1       1.371   1.435  20.480  0.00  0.00    +0.000 HD
ENDBRANCH   2  10
BRANCH   6  20
ATOM     20  C   UNL     1      -0.999  10.835  18.709  0.00  0.00    +0.000 A 
ATOM     21  C   UNL     1      -1.058  10.033  17.543  0.00  0.00    +0.000 A 
ATOM     22  C   UNL     1      -2.173   9.978  16.703  0.00  0.00    +0.000 A 
ATOM     23  C   UNL     1      -3.290  10.728  17.000  0.00  0.00    +0.000 A 
ATOM     24  C   UNL     1      -3.290  11.503  18.152  0.00  0.00    +0.000 A 
ATOM     25  C   UNL     1      -2.176  11.564  19.041  0.00  0.00    +0.000 A 
BRANCH  25  26
ATOM     26  C   UNL     1      -2.447  12.454  20.249  0.00  0.00    +0.000 C 
ATOM     27  F   UNL     1      -2.136  11.992  21.482  0.00  0.00    +0.000 F 
ATOM     28  F   UNL     1      -1.832  13.666  20.127  0.00  0.00    +0.000 F 
ATOM     29  F   UNL     1      -3.783  12.749  20.339  0.00  0.00    +0.000 F 
ENDBRANCH  25  26
ENDBRANCH   6  20
TORSDOF 3
ENDMDL
MODEL 2
REMARK VINA RESULT:      -8.0      0.992      1.425
REMARK  Name = 
REMARK  3 active torsions:
REMARK  status: ('A' for Active; 'I' for Inactive)
REMARK    1  A    between atoms: C_2  and  C_3
REMARK    2  A    between atoms: C_15  and  C_17
REMARK    3  A    between atoms: C_22  and  C_23
REMARK                            x       y       z     vdW  Elec       q    Type
REMARK                         _______ _______ _______ _____ _____    ______ ____
ROOT
ATOM      1  O   UNL     1       3.472   7.766  17.022  0.00  0.00    +0.000 OA
ATOM      2  C   UNL     1       2.783   7.582  18.030  0.00  0.00    +0.000 C 
ATOM      3  N   UNL     1       2.116   8.663  18.658  0.00  0.00    +0.000 N 
ATOM      4  C   UNL     1       2.137   9.906  17.884  0.00  0.00    +0.000 C 
ATOM      5  C   UNL     1       1.619  11.141  18.590  0.00  0.00    +0.000 C 
ATOM      6  C   UNL     1       0.390  10.940  19.481  0.00  0.00    +0.000 C 
ATOM      7  F   UNL     1       0.422  12.053  20.280  0.00  0.00    +0.000 F 
ATOM      8  C   UNL     1       0.666   9.757  20.414  0.00  0.00    +0.000 C 
ATOM      9  C   UNL     1       1.102   8.481  19.704  0.00  0.00    +0.000 C 
ENDROOT
BRANCH   2  10
ATOM     10  C   UNL     1       2.709   6.169  18.542  0.00  0.00    +0.000 A 
ATOM     11  C   UNL     1       3.653   5.795  19.513  0.00  0.00    +0.000 A 
ATOM     12  C   UNL     1       3.691   4.489  19.999  0.00  0.00    +0.000 A 
ATOM     13  C   UNL     1       2.740   3.644  19.441  0.00  0.00    +0.000 A 
ATOM     14  N   UNL     1       2.425   2.327  19.598  0.00  0.00    +0.000 N 
ATOM     15  N   UNL     1       1.400   1.961  18.809  0.00  0.00    +0.000 NA
ATOM     16  N   UNL     1       1.034   3.029  18.108  0.00  0.00    +0.000 NA
ATOM     17  C   UNL     1       1.843   4.071  18.472  0.00  0.00    +0.000 A 
ATOM     18  N   UNL     1       1.800   5.333  17.989  0.00  0.00    +0.000 NA
ATOM     19  H   UNL     1       2.847   1.632  20.204  0.00  0.00    +0.000 HD
ENDBRANCH   2  10
BRANCH   6  20
ATOM     20  C   UNL     1      -0.961  10.847  18.741  0.00  0.00    +0.000 A 
ATOM     21  C   UNL     1      -1.047  10.040  17.580  0.00  0.00    +0.000 A 
ATOM     22  C   UNL     1      -2.202   9.929  16.804  0.00  0.00    +0.000 A 
ATOM     23  C   UNL     1      -3.336  10.626  17.162  0.00  0.00    +0.000 A 
ATOM     24  C   UNL     1      -3.308  11.404  18.313  0.00  0.00    +0.000 A 
ATOM     25  C   UNL     1      -2.151  11.520  19.137  0.00  0.00    +0.000 A 
BRANCH  25  26
ATOM     26  C   UNL     1      -2.397  12.399  20.359  0.00  0.00    +0.000 C 
ATOM     27  F   UNL     1      -2.025  11.943  21.577  0.00  0.00    +0.000 F 
ATOM     28  F   UNL     1      -1.819  13.628  20.216  0.00  0.00    +0.000 F 
ATOM     29  F   UNL     1      -3.735  12.660  20.503  0.00  0.00    +0.000 F 
ENDBRANCH  25  26
ENDBRANCH   6  20
TORSDOF 3
ENDMDL
MODEL 3
REMARK VINA RESULT:      -7.7      1.231      1.286
REMARK  Name = 
REMARK  3 active torsions:
REMARK  status: ('A' for Active; 'I' for Inactive)
REMARK    1  A    between atoms: C_2  and  C_3
REMARK    2  A    between atoms: C_15  and  C_17
REMARK    3  A    between atoms: C_22  and  C_23
REMARK                            x       y       z     vdW  Elec       q    Type
REMARK                         _______ _______ _______ _____ _____    ______ ____
ROOT
ATOM      1  O   UNL     1       3.692   7.975  16.782  0.00  0.00    +0.000 OA
ATOM      2  C   UNL     1       3.037   7.695  17.792  0.00  0.00    +0.000 C 
ATOM      3  N   UNL     1       2.334   8.700  18.500  0.00  0.00    +0.000 N 
ATOM      4  C   UNL     1       2.274   9.987  17.806  0.00  0.00    +0.000 C 
ATOM      5  C   UNL     1       1.714  11.149  18.600  0.00  0.00    +0.000 C 
ATOM      6  C   UNL     1       0.519  10.830  19.502  0.00  0.00    +0.000 C 
ATOM      7  F   UNL     1       0.516  11.893  20.369  0.00  0.00    +0.000 F 
ATOM      8  C   UNL     1       0.876   9.608  20.353  0.00  0.00    +0.000 C 
ATOM      9  C   UNL     1       1.357   8.402  19.555  0.00  0.00    +0.000 C 
ENDROOT
BRANCH   2  10
ATOM     10  C   UNL     1       3.047   6.251  18.215  0.00  0.00    +0.000 A 
ATOM     11  C   UNL     1       1.825   5.561  18.150  0.00  0.00    +0.000 A 
ATOM     12  C   UNL     1       1.734   4.237  18.577  0.00  0.00    +0.000 A 
ATOM     13  C   UNL     1       2.927   3.707  19.052  0.00  0.00    +0.000 A 
ATOM     14  N   UNL     1       3.296   2.500  19.566  0.00  0.00    +0.000 N 
ATOM     15  N   UNL     1       4.598   2.474  19.896  0.00  0.00    +0.000 NA
ATOM     16  N   UNL     1       5.104   3.672  19.618  0.00  0.00    +0.000 NA
ATOM     17  C   UNL     1       4.100   4.446  19.105  0.00  0.00    +0.000 A 
ATOM     18  N   UNL     1       4.199   5.732  18.699  0.00  0.00    +0.000 NA
ATOM     19  H   UNL     1       2.737   1.668  19.720  0.00  0.00    +0.000 HD
ENDBRANCH   2  10
BRANCH   6  20
ATOM     20  C   UNL     1      -0.844  10.715  18.788  0.00  0.00    +0.000 A 
ATOM     21  C   UNL     1      -0.944   9.884  17.644  0.00  0.00    +0.000 A 
ATOM     22  C   UNL     1      -2.112   9.752  16.890  0.00  0.00    +0.000 A 
ATOM     23  C   UNL     1      -3.244  10.449  17.254  0.00  0.00    +0.000 A 
ATOM     24  C   UNL     1      -3.202  11.250  18.388  0.00  0.00    +0.000 A 
ATOM     25  C   UNL     1      -2.032  11.389  19.191  0.00  0.00    +0.000 A 
BRANCH  25  26
ATOM     26  C   UNL     1      -2.261  12.291  20.399  0.00  0.00    +0.000 C 
ATOM     27  F   UNL     1      -1.898  11.846  21.623  0.00  0.00    +0.000 F 
ATOM     28  F   UNL     1      -1.662  13.507  20.238  0.00  0.00    +0.000 F 
ATOM     29  F   UNL     1      -3.595  12.578  20.538  0.00  0.00    +0.000 F 
ENDBRANCH  25  26
ENDBRANCH   6  20
TORSDOF 3
ENDMDL
MODEL 4
REMARK VINA RESULT:      -7.6      1.048      1.424
REMARK  Name = 
REMARK  3 active torsions:
REMARK  status: ('A' for Active; 'I' for Inactive)
REMARK    1  A    between atoms: C_2  and  C_3
REMARK    2  A    between atoms: C_15  and  C_17
REMARK    3  A    between atoms: C_22  and  C_23
REMARK                            x       y       z     vdW  Elec       q    Type
REMARK                         _______ _______ _______ _____ _____    ______ ____
ROOT
ATOM      1  O   UNL     1       3.455   7.527  17.243  0.00  0.00    +0.000 OA
ATOM      2  C   UNL     1       2.824   7.500  18.305  0.00  0.00    +0.000 C 
ATOM      3  N   UNL     1       2.184   8.665  18.795  0.00  0.00    +0.000 N 
ATOM      4  C   UNL     1       2.150   9.774  17.839  0.00  0.00    +0.000 C 
ATOM      5  C   UNL     1       1.661  11.103  18.375  0.00  0.00    +0.000 C 
ATOM      6  C   UNL     1       0.485  11.040  19.353  0.00  0.00    +0.000 C 
ATOM      7  F   UNL     1       0.551  12.264  19.968  0.00  0.00    +0.000 F 
ATOM      8  C   UNL     1       0.822  10.016  20.440  0.00  0.00    +0.000 C 
ATOM      9  C   UNL     1       1.230   8.646  19.911  0.00  0.00    +0.000 C 
ENDROOT
BRANCH   2  10
ATOM     10  C   UNL     1       2.792   6.184  19.031  0.00  0.00    +0.000 A 
ATOM     11  C   UNL     1       1.717   5.967  19.909  0.00  0.00    +0.000 A 
ATOM     12  C   UNL     1       1.641   4.797  20.664  0.00  0.00    +0.000 A 
ATOM     13  C   UNL     1       2.696   3.917  20.460  0.00  0.00    +0.000 A 
ATOM     14  N   UNL     1       3.035   2.700  20.973  0.00  0.00    +0.000 N 
ATOM     15  N   UNL     1       4.185   2.241  20.450  0.00  0.00    +0.000 NA
ATOM     16  N   UNL     1       4.630   3.157  19.596  0.00  0.00    +0.000 NA
ATOM     17  C   UNL     1       3.739   4.195  19.589  0.00  0.00    +0.000 A 
ATOM     18  N   UNL     1       3.826   5.329  18.856  0.00  0.00    +0.000 NA
ATOM     19  H   UNL     1       2.551   2.134  21.660  0.00  0.00    +0.000 HD
ENDBRANCH   2  10
BRANCH   6  20
ATOM     20  C   UNL     1      -0.904  10.835  18.713  0.00  0.00    +0.000 A 
ATOM     21  C   UNL     1      -1.017   9.966  17.599  0.00  0.00    +0.000 A 
ATOM     22  C   UNL     1      -2.213   9.752  16.910  0.00  0.00    +0.000 A 
ATOM     23  C   UNL     1      -3.360  10.400  17.313  0.00  0.00    +0.000 A 
ATOM     24  C   UNL     1      -3.304  11.235  18.421  0.00  0.00    +0.000 A 
ATOM     25  C   UNL     1      -2.104  11.458  19.158  0.00  0.00    +0.000 A 
BRANCH  25  26
ATOM     26  C   UNL     1      -2.320  12.383  20.351  0.00  0.00    +0.000 C 
ATOM     27  F   UNL     1      -1.750  13.609  20.338  0.00  0.00    +0.000 F 
ATOM     28  F   UNL     1      -3.648  12.580  20.599  0.00  0.00    +0.000 F 
ATOM     29  F   UNL     1      -1.834  11.810  21.499  0.00  0.00    +0.000 F 
ENDBRANCH  25  26
ENDBRANCH   6  20
TORSDOF 3
ENDMDL
MODEL 5
REMARK VINA RESULT:      -7.6      2.959      4.290
REMARK  Name = 
REMARK  3 active torsions:
REMARK  status: ('A' for Active; 'I' for Inactive)
REMARK    1  A    between atoms: C_2  and  C_3
REMARK    2  A    between atoms: C_15  and  C_17
REMARK    3  A    between atoms: C_22  and  C_23
REMARK                            x       y       z     vdW  Elec       q    Type
REMARK                         _______ _______ _______ _____ _____    ______ ____
ROOT
ATOM      1  O   UNL     1       3.161   6.228  20.404  0.00  0.00    +0.000 OA
ATOM      2  C   UNL     1       2.983   6.708  19.280  0.00  0.00    +0.000 C 
ATOM      3  N   UNL     1       1.990   7.695  19.064  0.00  0.00    +0.000 N 
ATOM      4  C   UNL     1       1.400   8.227  20.293  0.00  0.00    +0.000 C 
ATOM      5  C   UNL     1       0.198   9.132  20.120  0.00  0.00    +0.000 C 
ATOM      6  C   UNL     1       0.258  10.109  18.943  0.00  0.00    +0.000 C 
ATOM      7  F   UNL     1      -1.059  10.455  18.784  0.00  0.00    +0.000 F 
ATOM      8  C   UNL     1       0.628   9.317  17.685  0.00  0.00    +0.000 C 
ATOM      9  C   UNL     1       1.888   8.470  17.820  0.00  0.00    +0.000 C 
ENDROOT
BRANCH   2  10
ATOM     10  C   UNL     1       3.862   6.179  18.180  0.00  0.00    +0.000 A 
ATOM     11  C   UNL     1       3.452   4.990  17.554  0.00  0.00    +0.000 A 
ATOM     12  C   UNL     1       4.238   4.401  16.565  0.00  0.00    +0.000 A 
ATOM     13  C   UNL     1       5.413   5.089  16.284  0.00  0.00    +0.000 A 
ATOM     14  N   UNL     1       6.456   4.884  15.430  0.00  0.00    +0.000 N 
ATOM     15  N   UNL     1       7.383   5.852  15.534  0.00  0.00    +0.000 NA
ATOM     16  N   UNL     1       6.970   6.701  16.471  0.00  0.00    +0.000 NA
ATOM     17  C   UNL     1       5.770   6.252  16.949  0.00  0.00    +0.000 A 
ATOM     18  N   UNL     1       5.019   6.829  17.914  0.00  0.00    +0.000 NA
ATOM     19  H   UNL     1       6.606   4.135  14.765  0.00  0.00    +0.000 HD
ENDBRANCH   2  10
BRANCH   6  20
ATOM     20  C   UNL     1       1.122  11.367  19.163  0.00  0.00    +0.000 A 
ATOM     21  C   UNL     1       2.093  11.705  18.189  0.00  0.00    +0.000 A 
ATOM     22  C   UNL     1       2.966  12.788  18.315  0.00  0.00    +0.000 A 
ATOM     23  C   UNL     1       2.901  13.591  19.433  0.00  0.00    +0.000 A 
ATOM     24  C   UNL     1       1.941  13.318  20.399  0.00  0.00    +0.000 A 
ATOM     25  C   UNL     1       1.023  12.233  20.289  0.00  0.00    +0.000 A 
BRANCH  25  26
ATOM     26  C   UNL     1       0.049  12.177  21.461  0.00  0.00    +0.000 C 
ATOM     27  F   UNL     1       0.100  11.119  22.301  0.00  0.00    +0.000 F 
ATOM     28  F   UNL     1       0.140  13.293  22.242  0.00  0.00    +0.000 F 
ATOM     29  F   UNL     1      -1.247  12.174  21.010  0.00  0.00    +0.000 F 
ENDBRANCH  25  26
ENDBRANCH   6  20
TORSDOF 3
ENDMDL
MODEL 6
REMARK VINA RESULT:      -7.2      2.735      4.152
REMARK  Name = 
REMARK  3 active torsions:
REMARK  status: ('A' for Active; 'I' for Inactive)
REMARK    1  A    between atoms: C_2  and  C_3
REMARK    2  A    between atoms: C_15  and  C_17
REMARK    3  A    between atoms: C_22  and  C_23
REMARK                            x       y       z     vdW  Elec       q    Type
REMARK                         _______ _______ _______ _____ _____    ______ ____
ROOT
ATOM      1  O   UNL     1       2.378   6.710  20.730  0.00  0.00    +0.000 OA
ATOM      2  C   UNL     1       2.245   7.169  19.591  0.00  0.00    +0.000 C 
ATOM      3  N   UNL     1       1.382   8.265  19.349  0.00  0.00    +0.000 N 
ATOM      4  C   UNL     1       0.883   8.911  20.564  0.00  0.00    +0.000 C 
ATOM      5  C   UNL     1      -0.197   9.955  20.371  0.00  0.00    +0.000 C 
ATOM      6  C   UNL     1      -0.033  10.873  19.157  0.00  0.00    +0.000 C 
ATOM      7  F   UNL     1      -1.298  11.378  19.000  0.00  0.00    +0.000 F 
ATOM      8  C   UNL     1       0.215   9.997  17.925  0.00  0.00    +0.000 C 
ATOM      9  C   UNL     1       1.360   9.002  18.079  0.00  0.00    +0.000 C 
ENDROOT
BRANCH   2  10
ATOM     10  C   UNL     1       3.033   6.493  18.502  0.00  0.00    +0.000 A 
ATOM     11  C   UNL     1       2.718   5.152  18.227  0.00  0.00    +0.000 A 
ATOM     12  C   UNL     1       3.439   4.435  17.272  0.00  0.00    +0.000 A 
ATOM     13  C   UNL     1       4.452   5.161  16.658  0.00  0.00    +0.000 A 
ATOM     14  N   UNL     1       5.387   4.876  15.708  0.00  0.00    +0.000 N 
ATOM     15  N   UNL     1       6.169   5.936  15.443  0.00  0.00    +0.000 NA
ATOM     16  N   UNL     1       5.770   6.932  16.228  0.00  0.00    +0.000 NA
ATOM     17  C   UNL     1       4.724   6.481  16.985  0.00  0.00    +0.000 A 
ATOM     18  N   UNL     1       4.037   7.185  17.913  0.00  0.00    +0.000 NA
ATOM     19  H   UNL     1       5.552   4.011  15.206  0.00  0.00    +0.000 HD
ENDBRANCH   2  10
BRANCH   6  20
ATOM     20  C   UNL     1       0.987  12.019  19.321  0.00  0.00    +0.000 A 
ATOM     21  C   UNL     1       2.010  12.164  18.351  0.00  0.00    +0.000 A 
ATOM     22  C   UNL     1       3.016  13.128  18.433  0.00  0.00    +0.000 A 
ATOM     23  C   UNL     1       3.041  14.003  19.498  0.00  0.00    +0.000 A 
ATOM     24  C   UNL     1       2.038  13.920  20.456  0.00  0.00    +0.000 A 
ATOM     25  C   UNL     1       0.986  12.960  20.389  0.00  0.00    +0.000 A 
BRANCH  25  26
ATOM     26  C   UNL     1      -0.005  13.107  21.539  0.00  0.00    +0.000 C 
ATOM     27  F   UNL     1       0.192  14.088  22.449  0.00  0.00    +0.000 F 
ATOM     28  F   UNL     1      -1.283  13.257  21.083  0.00  0.00    +0.000 F 
ATOM     29  F   UNL     1      -0.038  11.963  22.295  0.00  0.00    +0.000 F 
ENDBRANCH  25  26
ENDBRANCH   6  20
TORSDOF 3
ENDMDL
MODEL 7
REMARK VINA RESULT:      -7.1      5.866      9.283
REMARK  Name = 
REMARK  3 active torsions:
REMARK  status: ('A' for Active; 'I' for Inactive)
REMARK    1  A    between atoms: C_2  and  C_3
REMARK    2  A    between atoms: C_15  and  C_17
REMARK    3  A    between atoms: C_22  and  C_23
REMARK                            x       y       z     vdW  Elec       q    Type
REMARK                         _______ _______ _______ _____ _____    ______ ____
ROOT
ATOM      1  O   UNL     1      -3.627  11.881  24.204  0.00  0.00    +0.000 OA
ATOM      2  C   UNL     1      -3.392  12.781  23.392  0.00  0.00    +0.000 C 
ATOM      3  N   UNL     1      -2.287  12.689  22.510  0.00  0.00    +0.000 N 
ATOM      4  C   UNL     1      -1.638  11.377  22.501  0.00  0.00    +0.000 C 
ATOM      5  C   UNL     1      -0.337  11.280  21.734  0.00  0.00    +0.000 C 
ATOM      6  C   UNL     1      -0.277  12.052  20.413  0.00  0.00    +0.000 C 
ATOM      7  F   UNL     1       1.072  12.137  20.185  0.00  0.00    +0.000 F 
ATOM      8  C   UNL     1      -0.739  13.489  20.679  0.00  0.00    +0.000 C 
ATOM      9  C   UNL     1      -2.091  13.598  21.373  0.00  0.00    +0.000 C 
ENDROOT
BRANCH   2  10
ATOM     10  C   UNL     1      -4.327  13.960  23.410  0.00  0.00    +0.000 A 
ATOM     11  C   UNL     1      -4.009  15.011  24.286  0.00  0.00    +0.000 A 
ATOM     12  C   UNL     1      -4.853  16.114  24.405  0.00  0.00    +0.000 A 
ATOM     13  C   UNL     1      -5.985  16.057  23.603  0.00  0.00    +0.000 A 
ATOM     14  N   UNL     1      -7.058  16.876  23.407  0.00  0.00    +0.000 N 
ATOM     15  N   UNL     1      -7.916  16.368  22.507  0.00  0.00    +0.000 NA
ATOM     16  N   UNL     1      -7.430  15.197  22.107  0.00  0.00    +0.000 NA
ATOM     17  C   UNL     1      -6.252  14.982  22.768  0.00  0.00    +0.000 A 
ATOM     18  N   UNL     1      -5.444  13.904  22.648  0.00  0.00    +0.000 NA
ATOM     19  H   UNL     1      -7.271  17.770  23.834  0.00  0.00    +0.000 HD
ENDBRANCH   2  10
BRANCH   6  20
ATOM     20  C   UNL     1      -0.984  11.383  19.217  0.00  0.00    +0.000 A 
ATOM     21  C   UNL     1      -2.304  11.786  18.894  0.00  0.00    +0.000 A 
ATOM     22  C   UNL     1      -3.056  11.207  17.870  0.00  0.00    +0.000 A 
ATOM     23  C   UNL     1      -2.512  10.193  17.112  0.00  0.00    +0.000 A 
ATOM     24  C   UNL     1      -1.209   9.788  17.370  0.00  0.00    +0.000 A 
ATOM     25  C   UNL     1      -0.409  10.373  18.394  0.00  0.00    +0.000 A 
BRANCH  25  26
ATOM     26  C   UNL     1       0.995   9.779  18.444  0.00  0.00    +0.000 C 
ATOM     27  F   UNL     1       2.050  10.570  18.142  0.00  0.00    +0.000 F 
ATOM     28  F   UNL     1       1.263   9.229  19.664  0.00  0.00    +0.000 F 
ATOM     29  F   UNL     1       1.107   8.735  17.561  0.00  0.00    +0.000 F 
ENDBRANCH  25  26
ENDBRANCH   6  20
TORSDOF 3
ENDMDL
MODEL 8
REMARK VINA RESULT:      -7.1      8.945     11.701
REMARK  Name = 
REMARK  3 active torsions:
REMARK  status: ('A' for Active; 'I' for Inactive)
REMARK    1  A    between atoms: C_2  and  C_3
REMARK    2  A    between atoms: C_15  and  C_17
REMARK    3  A    between atoms: C_22  and  C_23
REMARK                            x       y       z     vdW  Elec       q    Type
REMARK                         _______ _______ _______ _____ _____    ______ ____
ROOT
ATOM      1  O   UNL     1       4.785  13.824  22.729  0.00  0.00    +0.000 OA
ATOM      2  C   UNL     1       5.231  14.447  21.760  0.00  0.00    +0.000 C 
ATOM      3  N   UNL     1       6.626  14.507  21.519  0.00  0.00    +0.000 N 
ATOM      4  C   UNL     1       7.415  13.601  22.355  0.00  0.00    +0.000 C 
ATOM      5  C   UNL     1       8.919  13.766  22.284  0.00  0.00    +0.000 C 
ATOM      6  C   UNL     1       9.498  14.054  20.896  0.00  0.00    +0.000 C 
ATOM      7  F   UNL     1      10.735  14.563  21.195  0.00  0.00    +0.000 F 
ATOM      8  C   UNL     1       8.713  15.218  20.283  0.00  0.00    +0.000 C 
ATOM      9  C   UNL     1       7.202  15.022  20.270  0.00  0.00    +0.000 C 
ENDROOT
BRANCH   2  10
ATOM     10  C   UNL     1       4.220  15.131  20.881  0.00  0.00    +0.000 A 
ATOM     11  C   UNL     1       3.628  14.357  19.870  0.00  0.00    +0.000 A 
ATOM     12  C   UNL     1       2.724  14.928  18.976  0.00  0.00    +0.000 A 
ATOM     13  C   UNL     1       2.488  16.281  19.189  0.00  0.00    +0.000 A 
ATOM     14  N   UNL     1       1.717  17.222  18.574  0.00  0.00    +0.000 N 
ATOM     15  N   UNL     1       1.833  18.425  19.162  0.00  0.00    +0.000 NA
ATOM     16  N   UNL     1       2.697  18.297  20.165  0.00  0.00    +0.000 NA
ATOM     17  C   UNL     1       3.116  16.996  20.198  0.00  0.00    +0.000 A 
ATOM     18  N   UNL     1       4.000  16.454  21.066  0.00  0.00    +0.000 NA
ATOM     19  H   UNL     1       1.101  17.128  17.775  0.00  0.00    +0.000 HD
ENDBRANCH   2  10
BRANCH   6  20
ATOM     20  C   UNL     1       9.629  12.833  19.962  0.00  0.00    +0.000 A 
ATOM     21  C   UNL     1       9.208  11.566  20.436  0.00  0.00    +0.000 A 
ATOM     22  C   UNL     1       9.334  10.387  19.697  0.00  0.00    +0.000 A 
ATOM     23  C   UNL     1       9.889  10.427  18.436  0.00  0.00    +0.000 A 
ATOM     24  C   UNL     1      10.285  11.653  17.917  0.00  0.00    +0.000 A 
ATOM     25  C   UNL     1      10.150  12.875  18.638  0.00  0.00    +0.000 A 
BRANCH  25  26
ATOM     26  C   UNL     1      10.621  14.079  17.829  0.00  0.00    +0.000 C 
ATOM     27  F   UNL     1      11.457  14.969  18.411  0.00  0.00    +0.000 F 
ATOM     28  F   UNL     1      11.218  13.698  16.663  0.00  0.00    +0.000 F 
ATOM     29  F   UNL     1       9.552  14.844  17.437  0.00  0.00    +0.000 F 
ENDBRANCH  25  26
ENDBRANCH   6  20
TORSDOF 3
ENDMDL
MODEL 9
REMARK VINA RESULT:      -7.0      6.027      9.387
REMARK  Name = 
REMARK  3 active torsions:
REMARK  status: ('A' for Active; 'I' for Inactive)
REMARK    1  A    between atoms: C_2  and  C_3
REMARK    2  A    between atoms: C_15  and  C_17
REMARK    3  A    between atoms: C_22  and  C_23
REMARK                            x       y       z     vdW  Elec       q    Type
REMARK                         _______ _______ _______ _____ _____    ______ ____
ROOT
ATOM      1  O   UNL     1      -3.850  11.895  24.266  0.00  0.00    +0.000 OA
ATOM      2  C   UNL     1      -3.705  12.797  23.433  0.00  0.00    +0.000 C 
ATOM      3  N   UNL     1      -2.605  12.786  22.540  0.00  0.00    +0.000 N 
ATOM      4  C   UNL     1      -1.842  11.537  22.549  0.00  0.00    +0.000 C 
ATOM      5  C   UNL     1      -0.544  11.541  21.768  0.00  0.00    +0.000 C 
ATOM      6  C   UNL     1      -0.568  12.289  20.432  0.00  0.00    +0.000 C 
ATOM      7  F   UNL     1       0.766  12.489  20.186  0.00  0.00    +0.000 F 
ATOM      8  C   UNL     1      -1.154  13.683  20.676  0.00  0.00    +0.000 C 
ATOM      9  C   UNL     1      -2.504  13.685  21.383  0.00  0.00    +0.000 C 
ENDROOT
BRANCH   2  10
ATOM     10  C   UNL     1      -4.742  13.886  23.440  0.00  0.00    +0.000 A 
ATOM     11  C   UNL     1      -5.962  13.608  22.801  0.00  0.00    +0.000 A 
ATOM     12  C   UNL     1      -6.955  14.582  22.712  0.00  0.00    +0.000 A 
ATOM     13  C   UNL     1      -6.617  15.796  23.295  0.00  0.00    +0.000 A 
ATOM     14  N   UNL     1      -7.249  16.997  23.432  0.00  0.00    +0.000 N 
ATOM     15  N   UNL     1      -6.488  17.890  24.087  0.00  0.00    +0.000 NA
ATOM     16  N   UNL     1      -5.335  17.295  24.378  0.00  0.00    +0.000 NA
ATOM     17  C   UNL     1      -5.388  16.015  23.899  0.00  0.00    +0.000 A 
ATOM     18  N   UNL     1      -4.414  15.080  23.986  0.00  0.00    +0.000 NA
ATOM     19  H   UNL     1      -8.171  17.278  23.117  0.00  0.00    +0.000 HD
ENDBRANCH   2  10
BRANCH   6  20
ATOM     20  C   UNL     1      -1.225  11.534  19.258  0.00  0.00    +0.000 A 
ATOM     21  C   UNL     1      -2.551  11.870  18.890  0.00  0.00    +0.000 A 
ATOM     22  C   UNL     1      -3.260  11.213  17.882  0.00  0.00    +0.000 A 
ATOM     23  C   UNL     1      -2.663  10.184  17.186  0.00  0.00    +0.000 A 
ATOM     24  C   UNL     1      -1.351   9.843  17.489  0.00  0.00    +0.000 A 
ATOM     25  C   UNL     1      -0.595  10.508  18.498  0.00  0.00    +0.000 A 
BRANCH  25  26
ATOM     26  C   UNL     1       0.829   9.971  18.604  0.00  0.00    +0.000 C 
ATOM     27  F   UNL     1       1.287   9.571  19.812  0.00  0.00    +0.000 F 
ATOM     28  F   UNL     1       1.036   8.927  17.749  0.00  0.00    +0.000 F 
ATOM     29  F   UNL     1       1.733  10.925  18.212  0.00  0.00    +0.000 F 
ENDBRANCH  25  26
ENDBRANCH   6  20
TORSDOF 3
ENDMDL
