MODEL 1
REMARK VINA RESULT:      -8.6      0.000      0.000
REMARK  Name = 
REMARK  5 active torsions:
REMARK  status: ('A' for Active; 'I' for Inactive)
REMARK    1  A    between atoms: C_1  and  C_2
REMARK    2  A    between atoms: C_4  and  N_5
REMARK    3  A    between atoms: C_8  and  N_9
REMARK    4  A    between atoms: C_10  and  C_12
REMARK    5  A    between atoms: C_24  and  C_25
REMARK                            x       y       z     vdW  Elec       q    Type
REMARK                         _______ _______ _______ _____ _____    ______ ____
ROOT
ATOM      1  N   UNL     1       5.930   4.557  16.063  0.00  0.00    +0.000 N 
ATOM      2  C   UNL     1       6.504   5.618  16.897  0.00  0.00    +0.000 C 
ATOM      3  C   UNL     1       6.348   5.215  18.358  0.00  0.00    +0.000 C 
ATOM      4  C   UNL     1       4.880   4.929  18.733  0.00  0.00    +0.000 C 
ATOM      5  C   UNL     1       4.241   3.975  17.719  0.00  0.00    +0.000 C 
ATOM      6  C   UNL     1       4.486   4.388  16.266  0.00  0.00    +0.000 C 
ENDROOT
BRANCH   1  10
ATOM      7  C   UNL     1       5.728   2.503  11.587  0.00  0.00    +0.000 C 
ATOM      8  C   UNL     1       6.268   3.503  12.564  0.00  0.00    +0.000 A 
ATOM      9  C   UNL     1       5.789   3.560  13.858  0.00  0.00    +0.000 A 
ATOM     10  C   UNL     1       6.384   4.450  14.742  0.00  0.00    +0.000 A 
ATOM     11  N   UNL     1       7.363   5.264  14.313  0.00  0.00    +0.000 NA
ATOM     12  C   UNL     1       7.756   5.166  13.028  0.00  0.00    +0.000 A 
ATOM     13  C   UNL     1       8.873   6.050  12.569  0.00  0.00    +0.000 C 
ATOM     14  N   UNL     1       7.254   4.303  12.131  0.00  0.00    +0.000 NA
ENDBRANCH   1  10
BRANCH   4  15
ATOM     15  N   UNL     1       4.113   6.163  18.969  0.00  0.00    +0.000 N 
ATOM     16  C   UNL     1       2.994   6.099  19.778  0.00  0.00    +0.000 C 
ATOM     17  O   UNL     1       2.679   5.046  20.332  0.00  0.00    +0.000 OA
ATOM     18  H   UNL     1       4.224   6.962  18.359  0.00  0.00    +0.000 HD
BRANCH  16  19
ATOM     19  C   UNL     1       2.181   7.279  19.975  0.00  0.00    +0.000 A 
ATOM     20  C   UNL     1       1.746   8.344  19.205  0.00  0.00    +0.000 A 
ATOM     21  C   UNL     1       0.933   9.192  20.037  0.00  0.00    +0.000 A 
ATOM     22  C   UNL     1       0.202  10.384  19.845  0.00  0.00    +0.000 A 
ATOM     23  C   UNL     1      -0.492  10.954  20.927  0.00  0.00    +0.000 A 
ATOM     24  C   UNL     1      -0.452  10.364  22.193  0.00  0.00    +0.000 A 
ATOM     25  C   UNL     1       0.264   9.188  22.407  0.00  0.00    +0.000 A 
ATOM     26  C   UNL     1       0.930   8.629  21.311  0.00  0.00    +0.000 A 
ATOM     27  N   UNL     1       1.672   7.486  21.238  0.00  0.00    +0.000 N 
ATOM     28  H   UNL     1       1.838   6.849  22.004  0.00  0.00    +0.000 HD
ENDBRANCH  16  19
ENDBRANCH   4  15
TORSDOF 3
ENDMDL
MODEL 2
REMARK VINA RESULT:      -8.4      0.733      1.297
REMARK  Name = 
REMARK  5 active torsions:
REMARK  status: ('A' for Active; 'I' for Inactive)
REMARK    1  A    between atoms: C_1  and  C_2
REMARK    2  A    between atoms: C_4  and  N_5
REMARK    3  A    between atoms: C_8  and  N_9
REMARK    4  A    between atoms: C_10  and  C_12
REMARK    5  A    between atoms: C_24  and  C_25
REMARK                            x       y       z     vdW  Elec       q    Type
REMARK                         _______ _______ _______ _____ _____    ______ ____
ROOT
ATOM      1  N   UNL     1       6.020   4.476  16.117  0.00  0.00    +0.000 N 
ATOM      2  C   UNL     1       6.588   5.540  16.950  0.00  0.00    +0.000 C 
ATOM      3  C   UNL     1       6.482   5.112  18.409  0.00  0.00    +0.000 C 
ATOM      4  C   UNL     1       5.033   4.782  18.819  0.00  0.00    +0.000 C 
ATOM      5  C   UNL     1       4.391   3.827  17.807  0.00  0.00    +0.000 C 
ATOM      6  C   UNL     1       4.586   4.267  16.355  0.00  0.00    +0.000 C 
ENDROOT
BRANCH   1  10
ATOM      7  C   UNL     1       5.719   2.513  11.605  0.00  0.00    +0.000 C 
ATOM      8  C   UNL     1       6.276   3.497  12.589  0.00  0.00    +0.000 A 
ATOM      9  C   UNL     1       5.831   3.524  13.896  0.00  0.00    +0.000 A 
ATOM     10  C   UNL     1       6.441   4.400  14.782  0.00  0.00    +0.000 A 
ATOM     11  N   UNL     1       7.402   5.231  14.345  0.00  0.00    +0.000 NA
ATOM     12  C   UNL     1       7.763   5.163  13.049  0.00  0.00    +0.000 A 
ATOM     13  C   UNL     1       8.860   6.065  12.580  0.00  0.00    +0.000 C 
ATOM     14  N   UNL     1       7.244   4.314  12.147  0.00  0.00    +0.000 NA
ENDBRANCH   1  10
BRANCH   4  15
ATOM     15  N   UNL     1       4.241   5.992  19.093  0.00  0.00    +0.000 N 
ATOM     16  C   UNL     1       3.049   5.857  19.779  0.00  0.00    +0.000 C 
ATOM     17  O   UNL     1       2.685   4.758  20.199  0.00  0.00    +0.000 OA
ATOM     18  H   UNL     1       4.407   6.845  18.575  0.00  0.00    +0.000 HD
BRANCH  16  19
ATOM     19  C   UNL     1       2.215   7.017  20.006  0.00  0.00    +0.000 A 
ATOM     20  C   UNL     1       1.373   7.475  21.006  0.00  0.00    +0.000 A 
ATOM     21  C   UNL     1       0.841   8.747  20.592  0.00  0.00    +0.000 A 
ATOM     22  C   UNL     1      -0.027   9.704  21.160  0.00  0.00    +0.000 A 
ATOM     23  C   UNL     1      -0.342  10.869  20.438  0.00  0.00    +0.000 A 
ATOM     24  C   UNL     1       0.180  11.082  19.159  0.00  0.00    +0.000 A 
ATOM     25  C   UNL     1       1.038  10.150  18.578  0.00  0.00    +0.000 A 
ATOM     26  C   UNL     1       1.352   9.009  19.323  0.00  0.00    +0.000 A 
ATOM     27  N   UNL     1       2.174   7.966  19.008  0.00  0.00    +0.000 N 
ATOM     28  H   UNL     1       2.705   7.880  18.152  0.00  0.00    +0.000 HD
ENDBRANCH  16  19
ENDBRANCH   4  15
TORSDOF 3
ENDMDL
MODEL 3
REMARK VINA RESULT:      -7.9      4.091      7.205
REMARK  Name = 
REMARK  5 active torsions:
REMARK  status: ('A' for Active; 'I' for Inactive)
REMARK    1  A    between atoms: C_1  and  C_2
REMARK    2  A    between atoms: C_4  and  N_5
REMARK    3  A    between atoms: C_8  and  N_9
REMARK    4  A    between atoms: C_10  and  C_12
REMARK    5  A    between atoms: C_24  and  C_25
REMARK                            x       y       z     vdW  Elec       q    Type
REMARK                         _______ _______ _______ _____ _____    ______ ____
ROOT
ATOM      1  N   UNL     1       2.118   7.686  19.576  0.00  0.00    +0.000 N 
ATOM      2  C   UNL     1       1.729   8.122  18.232  0.00  0.00    +0.000 C 
ATOM      3  C   UNL     1       1.832   9.641  18.172  0.00  0.00    +0.000 C 
ATOM      4  C   UNL     1       0.983  10.328  19.260  0.00  0.00    +0.000 C 
ATOM      5  C   UNL     1       1.259   9.706  20.633  0.00  0.00    +0.000 C 
ATOM      6  C   UNL     1       1.211   8.177  20.622  0.00  0.00    +0.000 C 
ENDROOT
BRANCH   1  10
ATOM      7  C   UNL     1       1.695   3.159  21.479  0.00  0.00    +0.000 C 
ATOM      8  C   UNL     1       2.364   4.170  20.598  0.00  0.00    +0.000 A 
ATOM      9  C   UNL     1       1.871   5.456  20.492  0.00  0.00    +0.000 A 
ATOM     10  C   UNL     1       2.579   6.372  19.727  0.00  0.00    +0.000 A 
ATOM     11  N   UNL     1       3.685   5.981  19.070  0.00  0.00    +0.000 NA
ATOM     12  C   UNL     1       4.087   4.702  19.203  0.00  0.00    +0.000 A 
ATOM     13  C   UNL     1       5.340   4.286  18.499  0.00  0.00    +0.000 C 
ATOM     14  N   UNL     1       3.474   3.775  19.957  0.00  0.00    +0.000 NA
ENDBRANCH   1  10
BRANCH   4  15
ATOM     15  N   UNL     1      -0.442  10.389  18.900  0.00  0.00    +0.000 N 
ATOM     16  C   UNL     1      -1.120  11.579  19.090  0.00  0.00    +0.000 C 
ATOM     17  O   UNL     1      -0.531  12.580  19.499  0.00  0.00    +0.000 OA
ATOM     18  H   UNL     1      -0.980   9.541  18.780  0.00  0.00    +0.000 HD
BRANCH  16  19
ATOM     19  C   UNL     1      -2.538  11.652  18.810  0.00  0.00    +0.000 A 
ATOM     20  C   UNL     1      -3.408  11.130  17.868  0.00  0.00    +0.000 A 
ATOM     21  C   UNL     1      -4.732  11.606  18.173  0.00  0.00    +0.000 A 
ATOM     22  C   UNL     1      -6.017  11.420  17.621  0.00  0.00    +0.000 A 
ATOM     23  C   UNL     1      -7.121  12.074  18.197  0.00  0.00    +0.000 A 
ATOM     24  C   UNL     1      -6.957  12.919  19.298  0.00  0.00    +0.000 A 
ATOM     25  C   UNL     1      -5.697  13.119  19.859  0.00  0.00    +0.000 A 
ATOM     26  C   UNL     1      -4.618  12.442  19.281  0.00  0.00    +0.000 A 
ATOM     27  N   UNL     1      -3.302  12.440  19.642  0.00  0.00    +0.000 N 
ATOM     28  H   UNL     1      -2.912  12.943  20.427  0.00  0.00    +0.000 HD
ENDBRANCH  16  19
ENDBRANCH   4  15
TORSDOF 3
ENDMDL
MODEL 4
REMARK VINA RESULT:      -7.9      0.567      1.637
REMARK  Name = 
REMARK  5 active torsions:
REMARK  status: ('A' for Active; 'I' for Inactive)
REMARK    1  A    between atoms: C_1  and  C_2
REMARK    2  A    between atoms: C_4  and  N_5
REMARK    3  A    between atoms: C_8  and  N_9
REMARK    4  A    between atoms: C_10  and  C_12
REMARK    5  A    between atoms: C_24  and  C_25
REMARK                            x       y       z     vdW  Elec       q    Type
REMARK                         _______ _______ _______ _____ _____    ______ ____
ROOT
ATOM      1  N   UNL     1       5.700   4.528  16.092  0.00  0.00    +0.000 N 
ATOM      2  C   UNL     1       6.304   5.516  16.991  0.00  0.00    +0.000 C 
ATOM      3  C   UNL     1       6.076   5.059  18.427  0.00  0.00    +0.000 C 
ATOM      4  C   UNL     1       4.582   4.842  18.742  0.00  0.00    +0.000 C 
ATOM      5  C   UNL     1       3.925   3.973  17.664  0.00  0.00    +0.000 C 
ATOM      6  C   UNL     1       4.242   4.434  16.241  0.00  0.00    +0.000 C 
ENDROOT
BRANCH   1  10
ATOM      7  C   UNL     1       8.797   6.012  12.555  0.00  0.00    +0.000 C 
ATOM      8  C   UNL     1       7.710   5.123  13.079  0.00  0.00    +0.000 A 
ATOM      9  C   UNL     1       7.257   5.245  14.378  0.00  0.00    +0.000 A 
ATOM     10  C   UNL     1       6.192   4.452  14.782  0.00  0.00    +0.000 A 
ATOM     11  N   UNL     1       5.666   3.555  13.931  0.00  0.00    +0.000 NA
ATOM     12  C   UNL     1       6.181   3.477  12.689  0.00  0.00    +0.000 A 
ATOM     13  C   UNL     1       5.564   2.503  11.735  0.00  0.00    +0.000 C 
ATOM     14  N   UNL     1       7.182   4.239  12.218  0.00  0.00    +0.000 NA
ENDBRANCH   1  10
BRANCH   4  15
ATOM     15  N   UNL     1       3.879   6.106  19.009  0.00  0.00    +0.000 N 
ATOM     16  C   UNL     1       2.800   6.091  19.874  0.00  0.00    +0.000 C 
ATOM     17  O   UNL     1       2.471   5.053  20.449  0.00  0.00    +0.000 OA
ATOM     18  H   UNL     1       3.991   6.899  18.391  0.00  0.00    +0.000 HD
BRANCH  16  19
ATOM     19  C   UNL     1       2.046   7.303  20.105  0.00  0.00    +0.000 A 
ATOM     20  C   UNL     1       1.676   8.418  19.371  0.00  0.00    +0.000 A 
ATOM     21  C   UNL     1       0.898   9.275  20.225  0.00  0.00    +0.000 A 
ATOM     22  C   UNL     1       0.232  10.510  20.069  0.00  0.00    +0.000 A 
ATOM     23  C   UNL     1      -0.445  11.076  21.164  0.00  0.00    +0.000 A 
ATOM     24  C   UNL     1      -0.452  10.439  22.408  0.00  0.00    +0.000 A 
ATOM     25  C   UNL     1       0.200   9.221  22.586  0.00  0.00    +0.000 A 
ATOM     26  C   UNL     1       0.850   8.668  21.477  0.00  0.00    +0.000 A 
ATOM     27  N   UNL     1       1.533   7.491  21.370  0.00  0.00    +0.000 N 
ATOM     28  H   UNL     1       1.656   6.819  22.114  0.00  0.00    +0.000 HD
ENDBRANCH  16  19
ENDBRANCH   4  15
TORSDOF 3
ENDMDL
MODEL 5
REMARK VINA RESULT:      -7.7      4.717      7.522
REMARK  Name = 
REMARK  5 active torsions:
REMARK  status: ('A' for Active; 'I' for Inactive)
REMARK    1  A    between atoms: C_1  and  C_2
REMARK    2  A    between atoms: C_4  and  N_5
REMARK    3  A    between atoms: C_8  and  N_9
REMARK    4  A    between atoms: C_10  and  C_12
REMARK    5  A    between atoms: C_24  and  C_25
REMARK                            x       y       z     vdW  Elec       q    Type
REMARK                         _______ _______ _______ _____ _____    ______ ____
ROOT
ATOM      1  N   UNL     1       4.596   5.351  18.094  0.00  0.00    +0.000 N 
ATOM      2  C   UNL     1       4.557   6.234  16.925  0.00  0.00    +0.000 C 
ATOM      3  C   UNL     1       5.788   5.953  16.072  0.00  0.00    +0.000 C 
ATOM      4  C   UNL     1       7.100   6.117  16.864  0.00  0.00    +0.000 C 
ATOM      5  C   UNL     1       7.029   5.347  18.188  0.00  0.00    +0.000 C 
ATOM      6  C   UNL     1       5.743   5.613  18.972  0.00  0.00    +0.000 C 
ENDROOT
BRANCH   1  10
ATOM      7  C   UNL     1       0.775   2.358  18.956  0.00  0.00    +0.000 C 
ATOM      8  C   UNL     1       1.557   3.614  19.197  0.00  0.00    +0.000 A 
ATOM      9  C   UNL     1       2.744   3.849  18.533  0.00  0.00    +0.000 A 
ATOM     10  C   UNL     1       3.382   5.065  18.734  0.00  0.00    +0.000 A 
ATOM     11  N   UNL     1       2.868   5.955  19.600  0.00  0.00    +0.000 NA
ATOM     12  C   UNL     1       1.719   5.640  20.230  0.00  0.00    +0.000 A 
ATOM     13  C   UNL     1       1.133   6.652  21.163  0.00  0.00    +0.000 C 
ATOM     14  N   UNL     1       1.029   4.502  20.054  0.00  0.00    +0.000 NA
ENDBRANCH   1  10
BRANCH   4  15
ATOM     15  N   UNL     1       7.495   7.527  17.007  0.00  0.00    +0.000 N 
ATOM     16  C   UNL     1       8.209   7.902  18.129  0.00  0.00    +0.000 C 
ATOM     17  O   UNL     1       8.553   7.065  18.964  0.00  0.00    +0.000 OA
ATOM     18  H   UNL     1       7.040   8.247  16.461  0.00  0.00    +0.000 HD
BRANCH  16  19
ATOM     19  C   UNL     1       8.553   9.292  18.332  0.00  0.00    +0.000 A 
ATOM     20  C   UNL     1       8.374  10.485  17.652  0.00  0.00    +0.000 A 
ATOM     21  C   UNL     1       8.974  11.536  18.431  0.00  0.00    +0.000 A 
ATOM     22  C   UNL     1       9.104  12.935  18.300  0.00  0.00    +0.000 A 
ATOM     23  C   UNL     1       9.788  13.665  19.288  0.00  0.00    +0.000 A 
ATOM     24  C   UNL     1      10.355  13.020  20.390  0.00  0.00    +0.000 A 
ATOM     25  C   UNL     1      10.242  11.639  20.540  0.00  0.00    +0.000 A 
ATOM     26  C   UNL     1       9.540  10.937  19.555  0.00  0.00    +0.000 A 
ATOM     27  N   UNL     1       9.262   9.604  19.471  0.00  0.00    +0.000 N 
ATOM     28  H   UNL     1       9.530   8.908  20.154  0.00  0.00    +0.000 HD
ENDBRANCH  16  19
ENDBRANCH   4  15
TORSDOF 3
ENDMDL
MODEL 6
REMARK VINA RESULT:      -7.7      0.859      2.067
REMARK  Name = 
REMARK  5 active torsions:
REMARK  status: ('A' for Active; 'I' for Inactive)
REMARK    1  A    between atoms: C_1  and  C_2
REMARK    2  A    between atoms: C_4  and  N_5
REMARK    3  A    between atoms: C_8  and  N_9
REMARK    4  A    between atoms: C_10  and  C_12
REMARK    5  A    between atoms: C_24  and  C_25
REMARK                            x       y       z     vdW  Elec       q    Type
REMARK                         _______ _______ _______ _____ _____    ______ ____
ROOT
ATOM      1  N   UNL     1       5.675   4.491  16.128  0.00  0.00    +0.000 N 
ATOM      2  C   UNL     1       6.266   5.482  17.032  0.00  0.00    +0.000 C 
ATOM      3  C   UNL     1       6.045   5.014  18.465  0.00  0.00    +0.000 C 
ATOM      4  C   UNL     1       4.555   4.774  18.780  0.00  0.00    +0.000 C 
ATOM      5  C   UNL     1       3.909   3.902  17.698  0.00  0.00    +0.000 C 
ATOM      6  C   UNL     1       4.219   4.375  16.277  0.00  0.00    +0.000 C 
ENDROOT
BRANCH   1  10
ATOM      7  C   UNL     1       8.802   5.983  12.621  0.00  0.00    +0.000 C 
ATOM      8  C   UNL     1       7.699   5.104  13.128  0.00  0.00    +0.000 A 
ATOM      9  C   UNL     1       7.246   5.211  14.428  0.00  0.00    +0.000 A 
ATOM     10  C   UNL     1       6.168   4.430  14.817  0.00  0.00    +0.000 A 
ATOM     11  N   UNL     1       5.627   3.558  13.949  0.00  0.00    +0.000 NA
ATOM     12  C   UNL     1       6.142   3.493  12.706  0.00  0.00    +0.000 A 
ATOM     13  C   UNL     1       5.509   2.547  11.736  0.00  0.00    +0.000 C 
ATOM     14  N   UNL     1       7.156   4.245  12.251  0.00  0.00    +0.000 NA
ENDBRANCH   1  10
BRANCH   4  15
ATOM     15  N   UNL     1       3.833   6.026  19.055  0.00  0.00    +0.000 N 
ATOM     16  C   UNL     1       2.747   5.988  19.909  0.00  0.00    +0.000 C 
ATOM     17  O   UNL     1       2.425   4.940  20.469  0.00  0.00    +0.000 OA
ATOM     18  H   UNL     1       3.941   6.828  18.446  0.00  0.00    +0.000 HD
BRANCH  16  19
ATOM     19  C   UNL     1       1.976   7.189  20.147  0.00  0.00    +0.000 A 
ATOM     20  C   UNL     1       1.195   7.699  21.170  0.00  0.00    +0.000 A 
ATOM     21  C   UNL     1       0.707   8.988  20.756  0.00  0.00    +0.000 A 
ATOM     22  C   UNL     1      -0.094   9.993  21.339  0.00  0.00    +0.000 A 
ATOM     23  C   UNL     1      -0.384  11.160  20.610  0.00  0.00    +0.000 A 
ATOM     24  C   UNL     1       0.098  11.329  19.309  0.00  0.00    +0.000 A 
ATOM     25  C   UNL     1       0.890  10.350  18.712  0.00  0.00    +0.000 A 
ATOM     26  C   UNL     1       1.180   9.207  19.464  0.00  0.00    +0.000 A 
ATOM     27  N   UNL     1       1.941   8.123  19.136  0.00  0.00    +0.000 N 
ATOM     28  H   UNL     1       2.434   8.000  18.262  0.00  0.00    +0.000 HD
ENDBRANCH  16  19
ENDBRANCH   4  15
TORSDOF 3
ENDMDL
MODEL 7
REMARK VINA RESULT:      -7.7      4.829     10.845
REMARK  Name = 
REMARK  5 active torsions:
REMARK  status: ('A' for Active; 'I' for Inactive)
REMARK    1  A    between atoms: C_1  and  C_2
REMARK    2  A    between atoms: C_4  and  N_5
REMARK    3  A    between atoms: C_8  and  N_9
REMARK    4  A    between atoms: C_10  and  C_12
REMARK    5  A    between atoms: C_24  and  C_25
REMARK                            x       y       z     vdW  Elec       q    Type
REMARK                         _______ _______ _______ _____ _____    ______ ____
ROOT
ATOM      1  N   UNL     1      -1.315  11.829  20.600  0.00  0.00    +0.000 N 
ATOM      2  C   UNL     1      -0.232  11.384  21.482  0.00  0.00    +0.000 C 
ATOM      3  C   UNL     1       1.077  11.454  20.705  0.00  0.00    +0.000 C 
ATOM      4  C   UNL     1       1.030  10.631  19.403  0.00  0.00    +0.000 C 
ATOM      5  C   UNL     1      -0.229  10.967  18.597  0.00  0.00    +0.000 C 
ATOM      6  C   UNL     1      -1.506  10.949  19.440  0.00  0.00    +0.000 C 
ENDROOT
BRANCH   1  10
ATOM      7  C   UNL     1      -4.145  12.568  24.568  0.00  0.00    +0.000 C 
ATOM      8  C   UNL     1      -3.837  12.728  23.110  0.00  0.00    +0.000 A 
ATOM      9  C   UNL     1      -2.674  12.215  22.569  0.00  0.00    +0.000 A 
ATOM     10  C   UNL     1      -2.482  12.321  21.200  0.00  0.00    +0.000 A 
ATOM     11  N   UNL     1      -3.393  12.958  20.444  0.00  0.00    +0.000 NA
ATOM     12  C   UNL     1      -4.489  13.455  21.050  0.00  0.00    +0.000 A 
ATOM     13  C   UNL     1      -5.516  14.129  20.195  0.00  0.00    +0.000 C 
ATOM     14  N   UNL     1      -4.758  13.354  22.361  0.00  0.00    +0.000 NA
ENDBRANCH   1  10
BRANCH   4  15
ATOM     15  N   UNL     1       1.226   9.192  19.644  0.00  0.00    +0.000 N 
ATOM     16  C   UNL     1       2.037   8.483  18.779  0.00  0.00    +0.000 C 
ATOM     17  O   UNL     1       2.627   9.053  17.860  0.00  0.00    +0.000 OA
ATOM     18  H   UNL     1       0.590   8.679  20.241  0.00  0.00    +0.000 HD
BRANCH  16  19
ATOM     19  C   UNL     1       2.196   7.055  18.949  0.00  0.00    +0.000 A 
ATOM     20  C   UNL     1       2.416   5.960  18.131  0.00  0.00    +0.000 A 
ATOM     21  C   UNL     1       2.483   4.788  18.965  0.00  0.00    +0.000 A 
ATOM     22  C   UNL     1       2.703   3.411  18.745  0.00  0.00    +0.000 A 
ATOM     23  C   UNL     1       2.690   2.524  19.836  0.00  0.00    +0.000 A 
ATOM     24  C   UNL     1       2.446   2.987  21.132  0.00  0.00    +0.000 A 
ATOM     25  C   UNL     1       2.225   4.342  21.372  0.00  0.00    +0.000 A 
ATOM     26  C   UNL     1       2.262   5.207  20.274  0.00  0.00    +0.000 A 
ATOM     27  N   UNL     1       2.106   6.562  20.232  0.00  0.00    +0.000 N 
ATOM     28  H   UNL     1       1.948   7.156  21.035  0.00  0.00    +0.000 HD
ENDBRANCH  16  19
ENDBRANCH   4  15
TORSDOF 3
ENDMDL
MODEL 8
REMARK VINA RESULT:      -7.7      4.156      7.529
REMARK  Name = 
REMARK  5 active torsions:
REMARK  status: ('A' for Active; 'I' for Inactive)
REMARK    1  A    between atoms: C_1  and  C_2
REMARK    2  A    between atoms: C_4  and  N_5
REMARK    3  A    between atoms: C_8  and  N_9
REMARK    4  A    between atoms: C_10  and  C_12
REMARK    5  A    between atoms: C_24  and  C_25
REMARK                            x       y       z     vdW  Elec       q    Type
REMARK                         _______ _______ _______ _____ _____    ______ ____
ROOT
ATOM      1  N   UNL     1       1.821   8.238  19.740  0.00  0.00    +0.000 N 
ATOM      2  C   UNL     1       1.314   8.889  18.528  0.00  0.00    +0.000 C 
ATOM      3  C   UNL     1       1.407  10.398  18.721  0.00  0.00    +0.000 C 
ATOM      4  C   UNL     1       0.655  10.875  19.979  0.00  0.00    +0.000 C 
ATOM      5  C   UNL     1       1.052  10.032  21.197  0.00  0.00    +0.000 C 
ATOM      6  C   UNL     1       1.007   8.527  20.928  0.00  0.00    +0.000 C 
ENDROOT
BRANCH   1  10
ATOM      7  C   UNL     1       2.138   3.602  21.385  0.00  0.00    +0.000 C 
ATOM      8  C   UNL     1       2.422   4.674  20.377  0.00  0.00    +0.000 A 
ATOM      9  C   UNL     1       1.934   5.955  20.545  0.00  0.00    +0.000 A 
ATOM     10  C   UNL     1       2.297   6.925  19.623  0.00  0.00    +0.000 A 
ATOM     11  N   UNL     1       3.062   6.593  18.568  0.00  0.00    +0.000 NA
ATOM     12  C   UNL     1       3.476   5.315  18.460  0.00  0.00    +0.000 A 
ATOM     13  C   UNL     1       4.359   4.963  17.304  0.00  0.00    +0.000 C 
ATOM     14  N   UNL     1       3.197   4.336  19.334  0.00  0.00    +0.000 NA
ENDBRANCH   1  10
BRANCH   4  15
ATOM     15  N   UNL     1      -0.797  10.971  19.760  0.00  0.00    +0.000 N 
ATOM     16  C   UNL     1      -1.404  12.205  19.895  0.00  0.00    +0.000 C 
ATOM     17  O   UNL     1      -0.737  13.210  20.140  0.00  0.00    +0.000 OA
ATOM     18  H   UNL     1      -1.377  10.142  19.781  0.00  0.00    +0.000 HD
BRANCH  16  19
ATOM     19  C   UNL     1      -2.839  12.320  19.752  0.00  0.00    +0.000 A 
ATOM     20  C   UNL     1      -3.904  12.710  20.546  0.00  0.00    +0.000 A 
ATOM     21  C   UNL     1      -5.108  12.593  19.766  0.00  0.00    +0.000 A 
ATOM     22  C   UNL     1      -6.477  12.852  19.987  0.00  0.00    +0.000 A 
ATOM     23  C   UNL     1      -7.406  12.601  18.962  0.00  0.00    +0.000 A 
ATOM     24  C   UNL     1      -6.991  12.082  17.732  0.00  0.00    +0.000 A 
ATOM     25  C   UNL     1      -5.645  11.817  17.491  0.00  0.00    +0.000 A 
ATOM     26  C   UNL     1      -4.738  12.093  18.520  0.00  0.00    +0.000 A 
ATOM     27  N   UNL     1      -3.381  11.952  18.540  0.00  0.00    +0.000 N 
ATOM     28  H   UNL     1      -2.817  11.624  17.768  0.00  0.00    +0.000 HD
ENDBRANCH  16  19
ENDBRANCH   4  15
TORSDOF 3
ENDMDL
MODEL 9
REMARK VINA RESULT:      -7.7      4.046      6.990
REMARK  Name = 
REMARK  5 active torsions:
REMARK  status: ('A' for Active; 'I' for Inactive)
REMARK    1  A    between atoms: C_1  and  C_2
REMARK    2  A    between atoms: C_4  and  N_5
REMARK    3  A    between atoms: C_8  and  N_9
REMARK    4  A    between atoms: C_10  and  C_12
REMARK    5  A    between atoms: C_24  and  C_25
REMARK                            x       y       z     vdW  Elec       q    Type
REMARK                         _______ _______ _______ _____ _____    ______ ____
ROOT
ATOM      1  N   UNL     1       2.213   7.600  19.261  0.00  0.00    +0.000 N 
ATOM      2  C   UNL     1       1.681   8.155  18.013  0.00  0.00    +0.000 C 
ATOM      3  C   UNL     1       1.729   9.676  18.108  0.00  0.00    +0.000 C 
ATOM      4  C   UNL     1       0.969  10.211  19.338  0.00  0.00    +0.000 C 
ATOM      5  C   UNL     1       1.398   9.461  20.604  0.00  0.00    +0.000 C 
ATOM      6  C   UNL     1       1.397   7.941  20.434  0.00  0.00    +0.000 C 
ENDROOT
BRANCH   1  10
ATOM      7  C   UNL     1       5.058   4.139  17.203  0.00  0.00    +0.000 C 
ATOM      8  C   UNL     1       4.132   4.630  18.274  0.00  0.00    +0.000 A 
ATOM      9  C   UNL     1       3.647   5.924  18.256  0.00  0.00    +0.000 A 
ATOM     10  C   UNL     1       2.728   6.297  19.226  0.00  0.00    +0.000 A 
ATOM     11  N   UNL     1       2.374   5.422  20.183  0.00  0.00    +0.000 NA
ATOM     12  C   UNL     1       2.912   4.187  20.148  0.00  0.00    +0.000 A 
ATOM     13  C   UNL     1       2.483   3.208  21.195  0.00  0.00    +0.000 C 
ATOM     14  N   UNL     1       3.773   3.746  19.218  0.00  0.00    +0.000 NA
ENDBRANCH   1  10
BRANCH   4  15
ATOM     15  N   UNL     1      -0.486  10.249  19.122  0.00  0.00    +0.000 N 
ATOM     16  C   UNL     1      -1.066  11.446  18.748  0.00  0.00    +0.000 C 
ATOM     17  O   UNL     1      -0.373  12.444  18.545  0.00  0.00    +0.000 OA
ATOM     18  H   UNL     1      -1.081   9.518  19.492  0.00  0.00    +0.000 HD
BRANCH  16  19
ATOM     19  C   UNL     1      -2.502  11.533  18.593  0.00  0.00    +0.000 A 
ATOM     20  C   UNL     1      -3.460  10.995  17.752  0.00  0.00    +0.000 A 
ATOM     21  C   UNL     1      -4.745  11.501  18.158  0.00  0.00    +0.000 A 
ATOM     22  C   UNL     1      -6.077  11.318  17.731  0.00  0.00    +0.000 A 
ATOM     23  C   UNL     1      -7.115  12.008  18.381  0.00  0.00    +0.000 A 
ATOM     24  C   UNL     1      -6.842  12.886  19.434  0.00  0.00    +0.000 A 
ATOM     25  C   UNL     1      -5.534  13.084  19.872  0.00  0.00    +0.000 A 
ATOM     26  C   UNL     1      -4.520  12.371  19.223  0.00  0.00    +0.000 A 
ATOM     27  N   UNL     1      -3.177  12.359  19.464  0.00  0.00    +0.000 N 
ATOM     28  H   UNL     1      -2.711  12.882  20.193  0.00  0.00    +0.000 HD
ENDBRANCH  16  19
ENDBRANCH   4  15
TORSDOF 3
ENDMDL
