MODEL 1
REMARK VINA RESULT:      -8.5      0.000      0.000
REMARK  Name = 
REMARK  6 active torsions:
REMARK  status: ('A' for Active; 'I' for Inactive)
REMARK    1  A    between atoms: N_3  and  C_4
REMARK    2  A    between atoms: C_4  and  C_5
REMARK    3  A    between atoms: N_11  and  C_12
REMARK    4  A    between atoms: C_16  and  C_17
REMARK    5  A    between atoms: N_19  and  C_20
REMARK    6  A    between atoms: C_20  and  C_21
REMARK                            x       y       z     vdW  Elec       q    Type
REMARK                         _______ _______ _______ _____ _____    ______ ____
ROOT
ATOM      1  C   UNL     1       1.027   9.760  18.292  0.00  0.00    +0.000 A 
ATOM      2  C   UNL     1       1.558  10.883  18.934  0.00  0.00    +0.000 A 
ATOM      3  C   UNL     1       0.780  12.014  19.167  0.00  0.00    +0.000 A 
ATOM      4  C   UNL     1      -0.534  12.052  18.721  0.00  0.00    +0.000 A 
ATOM      5  C   UNL     1      -1.083  10.965  18.029  0.00  0.00    +0.000 A 
ATOM      6  C   UNL     1      -0.307   9.805  17.849  0.00  0.00    +0.000 A 
ENDROOT
BRANCH   1  10
ATOM      7  O   UNL     1       1.874   7.636  20.171  0.00  0.00    +0.000 OA
ATOM      8  C   UNL     1       2.166   7.649  18.982  0.00  0.00    +0.000 C 
ATOM      9  N   UNL     1       2.938   6.648  18.428  0.00  0.00    +0.000 N 
ATOM     10  N   UNL     1       1.783   8.587  18.048  0.00  0.00    +0.000 N 
ATOM     11  H   UNL     1       3.486   6.871  17.610  0.00  0.00    +0.000 HD
ATOM     12  H   UNL     1       2.014   8.384  17.088  0.00  0.00    +0.000 HD
BRANCH   9  13
ATOM     13  C   UNL     1       3.471   5.598  19.283  0.00  0.00    +0.000 C 
BRANCH  13  14
ATOM     14  C   UNL     1       2.646   4.353  19.070  0.00  0.00    +0.000 C 
ATOM     15  C   UNL     1       1.319   4.002  19.864  0.00  0.00    +0.000 C 
ATOM     16  C   UNL     1       1.204   3.028  18.639  0.00  0.00    +0.000 C 
ATOM     17  C   UNL     1       2.456   2.143  18.719  0.00  0.00    +0.000 C 
ATOM     18  O   UNL     1       3.448   3.132  19.045  0.00  0.00    +0.000 OA
ATOM     19  C   UNL     1       1.671   4.284  17.825  0.00  0.00    +0.000 C 
ENDBRANCH  13  14
ENDBRANCH   9  13
ENDBRANCH   1  10
BRANCH   5  20
ATOM     20  C   UNL     1      -2.408  11.081  17.447  0.00  0.00    +0.000 A 
ATOM     21  C   UNL     1      -3.542  11.455  18.134  0.00  0.00    +0.000 A 
ATOM     22  N   UNL     1      -4.509  11.511  17.178  0.00  0.00    +0.000 N 
ATOM     23  N   UNL     1      -4.012  11.193  15.966  0.00  0.00    +0.000 NA
ATOM     24  N   UNL     1      -2.717  10.927  16.122  0.00  0.00    +0.000 NA
BRANCH  22  25
ATOM     25  C   UNL     1      -5.858  12.030  17.327  0.00  0.00    +0.000 C 
BRANCH  25  26
ATOM     26  C   UNL     1      -6.531  11.564  18.596  0.00  0.00    +0.000 A 
ATOM     27  C   UNL     1      -6.802  10.203  18.805  0.00  0.00    +0.000 A 
ATOM     28  C   UNL     1      -7.377   9.768  20.002  0.00  0.00    +0.000 A 
ATOM     29  C   UNL     1      -7.683  10.688  21.003  0.00  0.00    +0.000 A 
ATOM     30  C   UNL     1      -7.418  12.041  20.808  0.00  0.00    +0.000 A 
ATOM     31  C   UNL     1      -6.844  12.478  19.614  0.00  0.00    +0.000 A 
ENDBRANCH  25  26
ENDBRANCH  22  25
ENDBRANCH   5  20
TORSDOF 6
ENDMDL
MODEL 2
REMARK VINA RESULT:      -8.0      4.063     11.021
REMARK  Name = 
REMARK  6 active torsions:
REMARK  status: ('A' for Active; 'I' for Inactive)
REMARK    1  A    between atoms: N_3  and  C_4
REMARK    2  A    between atoms: C_4  and  C_5
REMARK    3  A    between atoms: N_11  and  C_12
REMARK    4  A    between atoms: C_16  and  C_17
REMARK    5  A    between atoms: N_19  and  C_20
REMARK    6  A    between atoms: C_20  and  C_21
REMARK                            x       y       z     vdW  Elec       q    Type
REMARK                         _______ _______ _______ _____ _____    ______ ____
ROOT
ATOM      1  C   UNL     1       1.916   5.850  20.481  0.00  0.00    +0.000 A 
ATOM      2  C   UNL     1       1.163   4.672  20.511  0.00  0.00    +0.000 A 
ATOM      3  C   UNL     1       1.668   3.482  19.995  0.00  0.00    +0.000 A 
ATOM      4  C   UNL     1       2.923   3.462  19.402  0.00  0.00    +0.000 A 
ATOM      5  C   UNL     1       3.684   4.635  19.307  0.00  0.00    +0.000 A 
ATOM      6  C   UNL     1       3.189   5.821  19.882  0.00  0.00    +0.000 A 
ENDROOT
BRANCH   1  10
ATOM      7  O   UNL     1       1.734   8.507  19.192  0.00  0.00    +0.000 OA
ATOM      8  C   UNL     1       1.411   8.290  20.353  0.00  0.00    +0.000 C 
ATOM      9  N   UNL     1       0.936   9.304  21.160  0.00  0.00    +0.000 N 
ATOM     10  N   UNL     1       1.443   7.077  21.006  0.00  0.00    +0.000 N 
ATOM     11  H   UNL     1       1.065   9.215  22.158  0.00  0.00    +0.000 HD
ATOM     12  H   UNL     1       1.032   7.053  21.926  0.00  0.00    +0.000 HD
BRANCH   9  13
ATOM     13  C   UNL     1       0.881  10.664  20.645  0.00  0.00    +0.000 C 
BRANCH  13  14
ATOM     14  C   UNL     1      -0.283  11.368  21.297  0.00  0.00    +0.000 C 
ATOM     15  C   UNL     1      -0.818  11.066  22.758  0.00  0.00    +0.000 C 
ATOM     16  C   UNL     1      -1.476  12.463  22.480  0.00  0.00    +0.000 C 
ATOM     17  C   UNL     1      -2.348  12.247  21.235  0.00  0.00    +0.000 C 
ATOM     18  O   UNL     1      -1.460  11.450  20.434  0.00  0.00    +0.000 OA
ATOM     19  C   UNL     1      -0.061  12.814  21.903  0.00  0.00    +0.000 C 
ENDBRANCH  13  14
ENDBRANCH   9  13
ENDBRANCH   1  10
BRANCH   5  20
ATOM     20  C   UNL     1       4.926   4.625  18.557  0.00  0.00    +0.000 A 
ATOM     21  C   UNL     1       5.102   5.196  17.314  0.00  0.00    +0.000 A 
ATOM     22  N   UNL     1       6.426   5.020  17.051  0.00  0.00    +0.000 N 
ATOM     23  N   UNL     1       7.042   4.381  18.066  0.00  0.00    +0.000 NA
ATOM     24  N   UNL     1       6.125   4.134  18.998  0.00  0.00    +0.000 NA
BRANCH  22  25
ATOM     25  C   UNL     1       7.182   5.593  15.950  0.00  0.00    +0.000 C 
BRANCH  25  26
ATOM     26  C   UNL     1       6.868   4.949  14.622  0.00  0.00    +0.000 A 
ATOM     27  C   UNL     1       7.697   5.161  13.509  0.00  0.00    +0.000 A 
ATOM     28  C   UNL     1       7.434   4.522  12.294  0.00  0.00    +0.000 A 
ATOM     29  C   UNL     1       6.343   3.663  12.180  0.00  0.00    +0.000 A 
ATOM     30  C   UNL     1       5.514   3.444  13.277  0.00  0.00    +0.000 A 
ATOM     31  C   UNL     1       5.774   4.080  14.491  0.00  0.00    +0.000 A 
ENDBRANCH  25  26
ENDBRANCH  22  25
ENDBRANCH   5  20
TORSDOF 6
ENDMDL
MODEL 3
REMARK VINA RESULT:      -7.8      4.511     11.151
REMARK  Name = 
REMARK  6 active torsions:
REMARK  status: ('A' for Active; 'I' for Inactive)
REMARK    1  A    between atoms: N_3  and  C_4
REMARK    2  A    between atoms: C_4  and  C_5
REMARK    3  A    between atoms: N_11  and  C_12
REMARK    4  A    between atoms: C_16  and  C_17
REMARK    5  A    between atoms: N_19  and  C_20
REMARK    6  A    between atoms: C_20  and  C_21
REMARK                            x       y       z     vdW  Elec       q    Type
REMARK                         _______ _______ _______ _____ _____    ______ ____
ROOT
ATOM      1  C   UNL     1       2.643   7.565  18.161  0.00  0.00    +0.000 A 
ATOM      2  C   UNL     1       2.506   6.950  19.409  0.00  0.00    +0.000 A 
ATOM      3  C   UNL     1       3.308   5.871  19.771  0.00  0.00    +0.000 A 
ATOM      4  C   UNL     1       4.234   5.364  18.869  0.00  0.00    +0.000 A 
ATOM      5  C   UNL     1       4.361   5.923  17.590  0.00  0.00    +0.000 A 
ATOM      6  C   UNL     1       3.586   7.048  17.254  0.00  0.00    +0.000 A 
ENDROOT
BRANCH   1  10
ATOM      7  O   UNL     1       1.038   9.431  19.804  0.00  0.00    +0.000 OA
ATOM      8  C   UNL     1       1.107   9.486  18.583  0.00  0.00    +0.000 C 
ATOM      9  N   UNL     1       0.413  10.446  17.874  0.00  0.00    +0.000 N 
ATOM     10  N   UNL     1       1.854   8.671  17.760  0.00  0.00    +0.000 N 
ATOM     11  H   UNL     1       0.156  10.237  16.920  0.00  0.00    +0.000 HD
ATOM     12  H   UNL     1       1.888   8.928  16.786  0.00  0.00    +0.000 HD
BRANCH   9  13
ATOM     13  C   UNL     1      -0.468  11.363  18.583  0.00  0.00    +0.000 C 
BRANCH  13  14
ATOM     14  C   UNL     1      -1.872  11.158  18.070  0.00  0.00    +0.000 C 
ATOM     15  C   UNL     1      -2.300  11.255  16.546  0.00  0.00    +0.000 C 
ATOM     16  C   UNL     1      -3.529  10.494  17.157  0.00  0.00    +0.000 C 
ATOM     17  C   UNL     1      -4.093  11.447  18.221  0.00  0.00    +0.000 C 
ATOM     18  O   UNL     1      -2.873  11.904  18.829  0.00  0.00    +0.000 OA
ATOM     19  C   UNL     1      -2.423   9.682  17.914  0.00  0.00    +0.000 C 
ENDBRANCH  13  14
ENDBRANCH   9  13
ENDBRANCH   1  10
BRANCH   5  20
ATOM     20  C   UNL     1       5.228   5.289  16.614  0.00  0.00    +0.000 A 
ATOM     21  C   UNL     1       5.317   5.648  15.286  0.00  0.00    +0.000 A 
ATOM     22  N   UNL     1       6.305   4.853  14.791  0.00  0.00    +0.000 N 
ATOM     23  N   UNL     1       6.805   4.046  15.749  0.00  0.00    +0.000 NA
ATOM     24  N   UNL     1       6.148   4.309  16.876  0.00  0.00    +0.000 NA
BRANCH  22  25
ATOM     25  C   UNL     1       6.928   4.945  13.481  0.00  0.00    +0.000 C 
BRANCH  25  26
ATOM     26  C   UNL     1       6.544   3.808  12.565  0.00  0.00    +0.000 A 
ATOM     27  C   UNL     1       7.529   3.001  11.974  0.00  0.00    +0.000 A 
ATOM     28  C   UNL     1       7.170   1.917  11.168  0.00  0.00    +0.000 A 
ATOM     29  C   UNL     1       5.825   1.627  10.948  0.00  0.00    +0.000 A 
ATOM     30  C   UNL     1       4.839   2.420  11.530  0.00  0.00    +0.000 A 
ATOM     31  C   UNL     1       5.194   3.502  12.335  0.00  0.00    +0.000 A 
ENDBRANCH  25  26
ENDBRANCH  22  25
ENDBRANCH   5  20
TORSDOF 6
ENDMDL
MODEL 4
REMARK VINA RESULT:      -7.7      2.730      9.483
REMARK  Name = 
REMARK  6 active torsions:
REMARK  status: ('A' for Active; 'I' for Inactive)
REMARK    1  A    between atoms: N_3  and  C_4
REMARK    2  A    between atoms: C_4  and  C_5
REMARK    3  A    between atoms: N_11  and  C_12
REMARK    4  A    between atoms: C_16  and  C_17
REMARK    5  A    between atoms: N_19  and  C_20
REMARK    6  A    between atoms: C_20  and  C_21
REMARK                            x       y       z     vdW  Elec       q    Type
REMARK                         _______ _______ _______ _____ _____    ______ ____
ROOT
ATOM      1  C   UNL     1      -0.964  11.044  19.273  0.00  0.00    +0.000 A 
ATOM      2  C   UNL     1      -0.962  11.115  20.669  0.00  0.00    +0.000 A 
ATOM      3  C   UNL     1       0.005  10.455  21.423  0.00  0.00    +0.000 A 
ATOM      4  C   UNL     1       0.964   9.677  20.788  0.00  0.00    +0.000 A 
ATOM      5  C   UNL     1       0.961   9.542  19.393  0.00  0.00    +0.000 A 
ATOM      6  C   UNL     1       0.014  10.258  18.637  0.00  0.00    +0.000 A 
ENDROOT
BRANCH   1  10
ATOM      7  O   UNL     1      -3.605  10.109  18.323  0.00  0.00    +0.000 OA
ATOM      8  C   UNL     1      -3.129  11.201  18.043  0.00  0.00    +0.000 C 
ATOM      9  N   UNL     1      -3.811  12.088  17.235  0.00  0.00    +0.000 N 
ATOM     10  N   UNL     1      -1.923  11.711  18.472  0.00  0.00    +0.000 N 
ATOM     11  H   UNL     1      -3.272  12.756  16.703  0.00  0.00    +0.000 HD
ATOM     12  H   UNL     1      -1.736  12.674  18.241  0.00  0.00    +0.000 HD
BRANCH   9  13
ATOM     13  C   UNL     1      -5.085  11.693  16.652  0.00  0.00    +0.000 C 
BRANCH  13  14
ATOM     14  C   UNL     1      -6.191  12.270  17.500  0.00  0.00    +0.000 C 
ATOM     15  C   UNL     1      -7.145  11.422  18.440  0.00  0.00    +0.000 C 
ATOM     16  C   UNL     1      -7.376  12.868  19.003  0.00  0.00    +0.000 C 
ATOM     17  C   UNL     1      -7.916  13.673  17.812  0.00  0.00    +0.000 C 
ATOM     18  O   UNL     1      -7.050  13.198  16.767  0.00  0.00    +0.000 OA
ATOM     19  C   UNL     1      -5.819  12.977  18.867  0.00  0.00    +0.000 C 
ENDBRANCH  13  14
ENDBRANCH   9  13
ENDBRANCH   1  10
BRANCH   5  20
ATOM     20  C   UNL     1       1.879   8.612  18.761  0.00  0.00    +0.000 A 
ATOM     21  C   UNL     1       2.241   7.386  19.278  0.00  0.00    +0.000 A 
ATOM     22  N   UNL     1       3.033   6.839  18.315  0.00  0.00    +0.000 N 
ATOM     23  N   UNL     1       3.159   7.669  17.261  0.00  0.00    +0.000 NA
ATOM     24  N   UNL     1       2.451   8.764  17.527  0.00  0.00    +0.000 NA
BRANCH  22  25
ATOM     25  C   UNL     1       3.538   5.477  18.269  0.00  0.00    +0.000 C 
BRANCH  25  26
ATOM     26  C   UNL     1       2.727   4.519  19.106  0.00  0.00    +0.000 A 
ATOM     27  C   UNL     1       3.077   4.260  20.441  0.00  0.00    +0.000 A 
ATOM     28  C   UNL     1       2.295   3.413  21.230  0.00  0.00    +0.000 A 
ATOM     29  C   UNL     1       1.153   2.819  20.695  0.00  0.00    +0.000 A 
ATOM     30  C   UNL     1       0.794   3.069  19.373  0.00  0.00    +0.000 A 
ATOM     31  C   UNL     1       1.574   3.914  18.583  0.00  0.00    +0.000 A 
ENDBRANCH  25  26
ENDBRANCH  22  25
ENDBRANCH   5  20
TORSDOF 6
ENDMDL
MODEL 5
REMARK VINA RESULT:      -7.7      3.886      6.122
REMARK  Name = 
REMARK  6 active torsions:
REMARK  status: ('A' for Active; 'I' for Inactive)
REMARK    1  A    between atoms: N_3  and  C_4
REMARK    2  A    between atoms: C_4  and  C_5
REMARK    3  A    between atoms: N_11  and  C_12
REMARK    4  A    between atoms: C_16  and  C_17
REMARK    5  A    between atoms: N_19  and  C_20
REMARK    6  A    between atoms: C_20  and  C_21
REMARK                            x       y       z     vdW  Elec       q    Type
REMARK                         _______ _______ _______ _____ _____    ______ ____
ROOT
ATOM      1  C   UNL     1       1.260   9.596  18.038  0.00  0.00    +0.000 A 
ATOM      2  C   UNL     1      -0.136   9.541  18.105  0.00  0.00    +0.000 A 
ATOM      3  C   UNL     1      -0.887  10.673  18.408  0.00  0.00    +0.000 A 
ATOM      4  C   UNL     1      -0.248  11.873  18.689  0.00  0.00    +0.000 A 
ATOM      5  C   UNL     1       1.151  11.952  18.682  0.00  0.00    +0.000 A 
ATOM      6  C   UNL     1       1.900  10.816  18.320  0.00  0.00    +0.000 A 
ENDROOT
BRANCH   1  10
ATOM      7  O   UNL     1       2.271   7.447  19.802  0.00  0.00    +0.000 OA
ATOM      8  C   UNL     1       2.517   7.517  18.605  0.00  0.00    +0.000 C 
ATOM      9  N   UNL     1       3.312   6.574  17.987  0.00  0.00    +0.000 N 
ATOM     10  N   UNL     1       2.057   8.470  17.722  0.00  0.00    +0.000 N 
ATOM     11  H   UNL     1       3.819   6.851  17.158  0.00  0.00    +0.000 HD
ATOM     12  H   UNL     1       2.262   8.313  16.748  0.00  0.00    +0.000 HD
BRANCH   9  13
ATOM     13  C   UNL     1       3.923   5.519  18.782  0.00  0.00    +0.000 C 
BRANCH  13  14
ATOM     14  C   UNL     1       3.114   4.259  18.596  0.00  0.00    +0.000 C 
ATOM     15  C   UNL     1       1.891   4.111  17.598  0.00  0.00    +0.000 C 
ATOM     16  C   UNL     1       2.229   2.606  17.886  0.00  0.00    +0.000 C 
ATOM     17  C   UNL     1       2.063   2.447  19.404  0.00  0.00    +0.000 C 
ATOM     18  O   UNL     1       2.694   3.657  19.859  0.00  0.00    +0.000 OA
ATOM     19  C   UNL     1       3.709   3.091  17.709  0.00  0.00    +0.000 C 
ENDBRANCH  13  14
ENDBRANCH   9  13
ENDBRANCH   1  10
BRANCH   5  20
ATOM     20  C   UNL     1       1.802  13.173  19.119  0.00  0.00    +0.000 A 
ATOM     21  C   UNL     1       2.060  14.262  18.314  0.00  0.00    +0.000 A 
ATOM     22  N   UNL     1       2.590  15.186  19.162  0.00  0.00    +0.000 N 
ATOM     23  N   UNL     1       2.660  14.707  20.420  0.00  0.00    +0.000 NA
ATOM     24  N   UNL     1       2.175  13.467  20.403  0.00  0.00    +0.000 NA
BRANCH  22  25
ATOM     25  C   UNL     1       2.874  16.581  18.869  0.00  0.00    +0.000 C 
BRANCH  25  26
ATOM     26  C   UNL     1       1.719  17.289  18.203  0.00  0.00    +0.000 A 
ATOM     27  C   UNL     1       1.861  17.844  16.922  0.00  0.00    +0.000 A 
ATOM     28  C   UNL     1       0.776  18.453  16.286  0.00  0.00    +0.000 A 
ATOM     29  C   UNL     1      -0.462  18.511  16.923  0.00  0.00    +0.000 A 
ATOM     30  C   UNL     1      -0.617  17.963  18.193  0.00  0.00    +0.000 A 
ATOM     31  C   UNL     1       0.465  17.354  18.830  0.00  0.00    +0.000 A 
ENDBRANCH  25  26
ENDBRANCH  22  25
ENDBRANCH   5  20
TORSDOF 6
ENDMDL
MODEL 6
REMARK VINA RESULT:      -7.7      5.560      7.572
REMARK  Name = 
REMARK  6 active torsions:
REMARK  status: ('A' for Active; 'I' for Inactive)
REMARK    1  A    between atoms: N_3  and  C_4
REMARK    2  A    between atoms: C_4  and  C_5
REMARK    3  A    between atoms: N_11  and  C_12
REMARK    4  A    between atoms: C_16  and  C_17
REMARK    5  A    between atoms: N_19  and  C_20
REMARK    6  A    between atoms: C_20  and  C_21
REMARK                            x       y       z     vdW  Elec       q    Type
REMARK                         _______ _______ _______ _____ _____    ______ ____
ROOT
ATOM      1  C   UNL     1       4.042  14.952  17.958  0.00  0.00    +0.000 A 
ATOM      2  C   UNL     1       3.556  16.253  17.795  0.00  0.00    +0.000 A 
ATOM      3  C   UNL     1       2.294  16.613  18.258  0.00  0.00    +0.000 A 
ATOM      4  C   UNL     1       1.479  15.661  18.856  0.00  0.00    +0.000 A 
ATOM      5  C   UNL     1       1.913  14.336  18.989  0.00  0.00    +0.000 A 
ATOM      6  C   UNL     1       3.212  13.995  18.569  0.00  0.00    +0.000 A 
ENDROOT
BRANCH   1  10
ATOM      7  O   UNL     1       6.625  14.945  19.401  0.00  0.00    +0.000 OA
ATOM      8  C   UNL     1       6.497  14.599  18.234  0.00  0.00    +0.000 C 
ATOM      9  N   UNL     1       7.583  14.180  17.493  0.00  0.00    +0.000 N 
ATOM     10  N   UNL     1       5.324  14.551  17.511  0.00  0.00    +0.000 N 
ATOM     11  H   UNL     1       7.545  14.295  16.490  0.00  0.00    +0.000 HD
ATOM     12  H   UNL     1       5.379  14.131  16.596  0.00  0.00    +0.000 HD
BRANCH   9  13
ATOM     13  C   UNL     1       8.911  14.214  18.086  0.00  0.00    +0.000 C 
BRANCH  13  14
ATOM     14  C   UNL     1       9.325  12.797  18.397  0.00  0.00    +0.000 C 
ATOM     15  C   UNL     1      10.818  12.263  18.362  0.00  0.00    +0.000 C 
ATOM     16  C   UNL     1      10.114  11.133  19.193  0.00  0.00    +0.000 C 
ATOM     17  C   UNL     1       9.030  10.575  18.259  0.00  0.00    +0.000 C 
ATOM     18  O   UNL     1       8.512  11.798  17.707  0.00  0.00    +0.000 OA
ATOM     19  C   UNL     1       9.419  12.341  19.911  0.00  0.00    +0.000 C 
ENDBRANCH  13  14
ENDBRANCH   9  13
ENDBRANCH   1  10
BRANCH   5  20
ATOM     20  C   UNL     1       0.994  13.327  19.483  0.00  0.00    +0.000 A 
ATOM     21  C   UNL     1       0.328  12.412  18.696  0.00  0.00    +0.000 A 
ATOM     22  N   UNL     1      -0.337  11.626  19.587  0.00  0.00    +0.000 N 
ATOM     23  N   UNL     1      -0.102  12.023  20.854  0.00  0.00    +0.000 NA
ATOM     24  N   UNL     1       0.718  13.070  20.799  0.00  0.00    +0.000 NA
BRANCH  22  25
ATOM     25  C   UNL     1      -1.051  10.393  19.302  0.00  0.00    +0.000 C 
BRANCH  25  26
ATOM     26  C   UNL     1      -2.052  10.537  18.182  0.00  0.00    +0.000 A 
ATOM     27  C   UNL     1      -3.173  11.370  18.326  0.00  0.00    +0.000 A 
ATOM     28  C   UNL     1      -4.071  11.543  17.268  0.00  0.00    +0.000 A 
ATOM     29  C   UNL     1      -3.855  10.889  16.057  0.00  0.00    +0.000 A 
ATOM     30  C   UNL     1      -2.746  10.062  15.901  0.00  0.00    +0.000 A 
ATOM     31  C   UNL     1      -1.848   9.888  16.955  0.00  0.00    +0.000 A 
ENDBRANCH  25  26
ENDBRANCH  22  25
ENDBRANCH   5  20
TORSDOF 6
ENDMDL
MODEL 7
REMARK VINA RESULT:      -7.7      4.662     11.339
REMARK  Name = 
REMARK  6 active torsions:
REMARK  status: ('A' for Active; 'I' for Inactive)
REMARK    1  A    between atoms: N_3  and  C_4
REMARK    2  A    between atoms: C_4  and  C_5
REMARK    3  A    between atoms: N_11  and  C_12
REMARK    4  A    between atoms: C_16  and  C_17
REMARK    5  A    between atoms: N_19  and  C_20
REMARK    6  A    between atoms: C_20  and  C_21
REMARK                            x       y       z     vdW  Elec       q    Type
REMARK                         _______ _______ _______ _____ _____    ______ ____
ROOT
ATOM      1  C   UNL     1       2.623   5.985  18.639  0.00  0.00    +0.000 A 
ATOM      2  C   UNL     1       1.839   4.827  18.629  0.00  0.00    +0.000 A 
ATOM      3  C   UNL     1       2.244   3.689  17.937  0.00  0.00    +0.000 A 
ATOM      4  C   UNL     1       3.425   3.708  17.206  0.00  0.00    +0.000 A 
ATOM      5  C   UNL     1       4.209   4.868  17.151  0.00  0.00    +0.000 A 
ATOM      6  C   UNL     1       3.821   5.994  17.900  0.00  0.00    +0.000 A 
ENDROOT
BRANCH   1  10
ATOM      7  O   UNL     1       1.643   8.575  17.598  0.00  0.00    +0.000 OA
ATOM      8  C   UNL     1       1.826   8.345  18.786  0.00  0.00    +0.000 C 
ATOM      9  N   UNL     1       1.587   9.310  19.742  0.00  0.00    +0.000 N 
ATOM     10  N   UNL     1       2.252   7.157  19.341  0.00  0.00    +0.000 N 
ATOM     11  H   UNL     1       2.105   9.258  20.608  0.00  0.00    +0.000 HD
ATOM     12  H   UNL     1       2.238   7.103  20.347  0.00  0.00    +0.000 HD
BRANCH   9  13
ATOM     13  C   UNL     1       1.177  10.644  19.328  0.00  0.00    +0.000 C 
BRANCH  13  14
ATOM     14  C   UNL     1       0.277  11.214  20.395  0.00  0.00    +0.000 C 
ATOM     15  C   UNL     1       0.197  12.749  20.785  0.00  0.00    +0.000 C 
ATOM     16  C   UNL     1      -1.130  12.207  21.424  0.00  0.00    +0.000 C 
ATOM     17  C   UNL     1      -0.675  11.137  22.428  0.00  0.00    +0.000 C 
ATOM     18  O   UNL     1       0.336  10.470  21.652  0.00  0.00    +0.000 OA
ATOM     19  C   UNL     1      -1.257  11.433  20.067  0.00  0.00    +0.000 C 
ENDBRANCH  13  14
ENDBRANCH   9  13
ENDBRANCH   1  10
BRANCH   5  20
ATOM     20  C   UNL     1       5.361   4.913  16.269  0.00  0.00    +0.000 A 
ATOM     21  C   UNL     1       5.338   4.605  14.925  0.00  0.00    +0.000 A 
ATOM     22  N   UNL     1       6.603   4.873  14.500  0.00  0.00    +0.000 N 
ATOM     23  N   UNL     1       7.371   5.323  15.513  0.00  0.00    +0.000 NA
ATOM     24  N   UNL     1       6.613   5.352  16.606  0.00  0.00    +0.000 NA
BRANCH  22  25
ATOM     25  C   UNL     1       7.078   4.893  13.127  0.00  0.00    +0.000 C 
BRANCH  25  26
ATOM     26  C   UNL     1       6.702   3.651  12.355  0.00  0.00    +0.000 A 
ATOM     27  C   UNL     1       5.355   3.314  12.152  0.00  0.00    +0.000 A 
ATOM     28  C   UNL     1       5.009   2.192  11.393  0.00  0.00    +0.000 A 
ATOM     29  C   UNL     1       6.005   1.399  10.828  0.00  0.00    +0.000 A 
ATOM     30  C   UNL     1       7.346   1.724  11.021  0.00  0.00    +0.000 A 
ATOM     31  C   UNL     1       7.693   2.843  11.778  0.00  0.00    +0.000 A 
ENDBRANCH  25  26
ENDBRANCH  22  25
ENDBRANCH   5  20
TORSDOF 6
ENDMDL
MODEL 8
REMARK VINA RESULT:      -7.7      2.911      3.571
REMARK  Name = 
REMARK  6 active torsions:
REMARK  status: ('A' for Active; 'I' for Inactive)
REMARK    1  A    between atoms: N_3  and  C_4
REMARK    2  A    between atoms: C_4  and  C_5
REMARK    3  A    between atoms: N_11  and  C_12
REMARK    4  A    between atoms: C_16  and  C_17
REMARK    5  A    between atoms: N_19  and  C_20
REMARK    6  A    between atoms: C_20  and  C_21
REMARK                            x       y       z     vdW  Elec       q    Type
REMARK                         _______ _______ _______ _____ _____    ______ ____
ROOT
ATOM      1  C   UNL     1       1.113   8.981  20.096  0.00  0.00    +0.000 A 
ATOM      2  C   UNL     1       1.154   9.526  18.809  0.00  0.00    +0.000 A 
ATOM      3  C   UNL     1       0.521  10.731  18.516  0.00  0.00    +0.000 A 
ATOM      4  C   UNL     1      -0.201  11.389  19.502  0.00  0.00    +0.000 A 
ATOM      5  C   UNL     1      -0.307  10.846  20.789  0.00  0.00    +0.000 A 
ATOM      6  C   UNL     1       0.383   9.657  21.090  0.00  0.00    +0.000 A 
ENDROOT
BRANCH   1  10
ATOM      7  O   UNL     1       2.965   7.315  18.499  0.00  0.00    +0.000 OA
ATOM      8  C   UNL     1       2.588   7.024  19.627  0.00  0.00    +0.000 C 
ATOM      9  N   UNL     1       3.010   5.862  20.240  0.00  0.00    +0.000 N 
ATOM     10  N   UNL     1       1.753   7.764  20.435  0.00  0.00    +0.000 N 
ATOM     11  H   UNL     1       2.410   5.450  20.940  0.00  0.00    +0.000 HD
ATOM     12  H   UNL     1       1.637   7.435  21.381  0.00  0.00    +0.000 HD
BRANCH   9  13
ATOM     13  C   UNL     1       3.861   4.935  19.509  0.00  0.00    +0.000 C 
BRANCH  13  14
ATOM     14  C   UNL     1       2.997   3.812  18.989  0.00  0.00    +0.000 C 
ATOM     15  C   UNL     1       2.074   3.904  17.703  0.00  0.00    +0.000 C 
ATOM     16  C   UNL     1       2.157   2.350  17.903  0.00  0.00    +0.000 C 
ATOM     17  C   UNL     1       1.577   2.101  19.303  0.00  0.00    +0.000 C 
ATOM     18  O   UNL     1       2.193   3.178  20.031  0.00  0.00    +0.000 OA
ATOM     19  C   UNL     1       3.675   2.645  18.161  0.00  0.00    +0.000 C 
ENDBRANCH  13  14
ENDBRANCH   9  13
ENDBRANCH   1  10
BRANCH   5  20
ATOM     20  C   UNL     1      -1.183  11.473  21.762  0.00  0.00    +0.000 A 
ATOM     21  C   UNL     1      -1.917  12.619  21.540  0.00  0.00    +0.000 A 
ATOM     22  N   UNL     1      -2.644  12.776  22.681  0.00  0.00    +0.000 N 
ATOM     23  N   UNL     1      -2.383  11.790  23.562  0.00  0.00    +0.000 NA
ATOM     24  N   UNL     1      -1.484  10.982  23.004  0.00  0.00    +0.000 NA
BRANCH  22  25
ATOM     25  C   UNL     1      -3.719  13.727  22.909  0.00  0.00    +0.000 C 
BRANCH  25  26
ATOM     26  C   UNL     1      -5.090  13.107  22.784  0.00  0.00    +0.000 A 
ATOM     27  C   UNL     1      -5.906  12.942  23.915  0.00  0.00    +0.000 A 
ATOM     28  C   UNL     1      -7.195  12.416  23.790  0.00  0.00    +0.000 A 
ATOM     29  C   UNL     1      -7.683  12.055  22.535  0.00  0.00    +0.000 A 
ATOM     30  C   UNL     1      -6.883  12.216  21.407  0.00  0.00    +0.000 A 
ATOM     31  C   UNL     1      -5.596  12.740  21.528  0.00  0.00    +0.000 A 
ENDBRANCH  25  26
ENDBRANCH  22  25
ENDBRANCH   5  20
TORSDOF 6
ENDMDL
MODEL 9
REMARK VINA RESULT:      -7.6      0.691      1.287
REMARK  Name = 
REMARK  6 active torsions:
REMARK  status: ('A' for Active; 'I' for Inactive)
REMARK    1  A    between atoms: N_3  and  C_4
REMARK    2  A    between atoms: C_4  and  C_5
REMARK    3  A    between atoms: N_11  and  C_12
REMARK    4  A    between atoms: C_16  and  C_17
REMARK    5  A    between atoms: N_19  and  C_20
REMARK    6  A    between atoms: C_20  and  C_21
REMARK                            x       y       z     vdW  Elec       q    Type
REMARK                         _______ _______ _______ _____ _____    ______ ____
ROOT
ATOM      1  C   UNL     1       0.917   9.920  18.271  0.00  0.00    +0.000 A 
ATOM      2  C   UNL     1       1.465  11.126  18.719  0.00  0.00    +0.000 A 
ATOM      3  C   UNL     1       0.671  12.257  18.893  0.00  0.00    +0.000 A 
ATOM      4  C   UNL     1      -0.680  12.208  18.579  0.00  0.00    +0.000 A 
ATOM      5  C   UNL     1      -1.252  11.031  18.077  0.00  0.00    +0.000 A 
ATOM      6  C   UNL     1      -0.454   9.878  17.959  0.00  0.00    +0.000 A 
ENDROOT
BRANCH   1  10
ATOM      7  O   UNL     1       1.727   7.877  20.252  0.00  0.00    +0.000 OA
ATOM      8  C   UNL     1       2.052   7.848  19.072  0.00  0.00    +0.000 C 
ATOM      9  N   UNL     1       2.848   6.834  18.579  0.00  0.00    +0.000 N 
ATOM     10  N   UNL     1       1.689   8.747  18.093  0.00  0.00    +0.000 N 
ATOM     11  H   UNL     1       3.418   7.030  17.769  0.00  0.00    +0.000 HD
ATOM     12  H   UNL     1       1.949   8.510  17.148  0.00  0.00    +0.000 HD
BRANCH   9  13
ATOM     13  C   UNL     1       3.365   5.822  19.488  0.00  0.00    +0.000 C 
BRANCH  13  14
ATOM     14  C   UNL     1       2.577   4.552  19.277  0.00  0.00    +0.000 C 
ATOM     15  C   UNL     1       1.169   4.243  19.937  0.00  0.00    +0.000 C 
ATOM     16  C   UNL     1       1.202   3.179  18.785  0.00  0.00    +0.000 C 
ATOM     17  C   UNL     1       2.441   2.320  19.076  0.00  0.00    +0.000 C 
ATOM     18  O   UNL     1       3.384   3.344  19.438  0.00  0.00    +0.000 OA
ATOM     19  C   UNL     1       1.753   4.376  17.937  0.00  0.00    +0.000 C 
ENDBRANCH  13  14
ENDBRANCH   9  13
ENDBRANCH   1  10
BRANCH   5  20
ATOM     20  C   UNL     1      -2.630  11.042  17.620  0.00  0.00    +0.000 A 
ATOM     21  C   UNL     1      -3.730  10.834  18.423  0.00  0.00    +0.000 A 
ATOM     22  N   UNL     1      -4.791  11.024  17.591  0.00  0.00    +0.000 N 
ATOM     23  N   UNL     1      -4.382  11.332  16.345  0.00  0.00    +0.000 NA
ATOM     24  N   UNL     1      -3.051  11.346  16.353  0.00  0.00    +0.000 NA
BRANCH  22  25
ATOM     25  C   UNL     1      -6.193  11.102  17.966  0.00  0.00    +0.000 C 
BRANCH  25  26
ATOM     26  C   UNL     1      -6.437  12.010  19.148  0.00  0.00    +0.000 A 
ATOM     27  C   UNL     1      -6.287  13.400  19.025  0.00  0.00    +0.000 A 
ATOM     28  C   UNL     1      -6.565  14.243  20.105  0.00  0.00    +0.000 A 
ATOM     29  C   UNL     1      -6.997  13.705  21.316  0.00  0.00    +0.000 A 
ATOM     30  C   UNL     1      -7.151  12.328  21.449  0.00  0.00    +0.000 A 
ATOM     31  C   UNL     1      -6.875  11.485  20.372  0.00  0.00    +0.000 A 
ENDBRANCH  25  26
ENDBRANCH  22  25
ENDBRANCH   5  20
TORSDOF 6
ENDMDL
