MODEL 1
REMARK VINA RESULT:      -7.9      0.000      0.000
REMARK  Name = 
REMARK  4 active torsions:
REMARK  status: ('A' for Active; 'I' for Inactive)
REMARK    1  A    between atoms: C_1  and  O_2
REMARK    2  A    between atoms: O_2  and  C_3
REMARK    3  A    between atoms: N_15  and  C_16
REMARK    4  A    between atoms: C_16  and  C_17
REMARK                            x       y       z     vdW  Elec       q    Type
REMARK                         _______ _______ _______ _____ _____    ______ ____
ROOT
ATOM      1  C   UNL     1       5.646   4.285  13.903  0.00  0.00    +0.000 A 
ATOM      2  C   UNL     1       7.042   4.425  13.878  0.00  0.00    +0.000 A 
ATOM      3  C   UNL     1       7.704   5.119  14.891  0.00  0.00    +0.000 A 
ATOM      4  C   UNL     1       6.957   5.669  15.919  0.00  0.00    +0.000 A 
ATOM      5  C   UNL     1       5.569   5.520  15.976  0.00  0.00    +0.000 A 
ATOM      6  C   UNL     1       4.907   4.829  14.969  0.00  0.00    +0.000 A 
ATOM      7  C   UNL     1       5.006   6.262  17.142  0.00  0.00    +0.000 C 
ATOM      8  C   UNL     1       6.242   6.929  17.805  0.00  0.00    +0.000 C 
ATOM      9  C   UNL     1       7.496   6.478  17.049  0.00  0.00    +0.000 C 
ATOM     10  N   UNL     1       4.011   7.234  16.774  0.00  0.00    +0.000 N 
ATOM     11  C   UNL     1       3.043   7.342  17.747  0.00  0.00    +0.000 C 
ATOM     12  O   UNL     1       2.203   8.222  17.776  0.00  0.00    +0.000 OA
ATOM     13  N   UNL     1       3.215   6.327  18.637  0.00  0.00    +0.000 N 
ATOM     14  C   UNL     1       4.258   5.516  18.251  0.00  0.00    +0.000 C 
ATOM     15  O   UNL     1       4.627   4.494  18.806  0.00  0.00    +0.000 OA
ATOM     16  H   UNL     1       4.117   7.934  16.054  0.00  0.00    +0.000 HD
ENDROOT
BRANCH   1  18
ATOM     17  C   UNL     1       5.625   2.924  11.956  0.00  0.00    +0.000 C 
ATOM     18  O   UNL     1       4.902   3.653  12.942  0.00  0.00    +0.000 OA
ENDBRANCH   1  18
BRANCH  13  19
ATOM     19  C   UNL     1       2.518   6.235  19.903  0.00  0.00    +0.000 C 
BRANCH  19  20
ATOM     20  C   UNL     1       2.057   4.844  20.259  0.00  0.00    +0.000 A 
ATOM     21  C   UNL     1       2.390   4.272  21.486  0.00  0.00    +0.000 A 
ATOM     22  C   UNL     1       1.919   2.996  21.782  0.00  0.00    +0.000 A 
ATOM     23  C   UNL     1       1.150   2.323  20.843  0.00  0.00    +0.000 A 
ATOM     24  C   UNL     1       0.896   2.949  19.636  0.00  0.00    +0.000 A 
ATOM     25  F   UNL     1       0.182   2.292  18.712  0.00  0.00    +0.000 F 
ATOM     26  N   UNL     1       1.331   4.184  19.324  0.00  0.00    +0.000 NA
ENDBRANCH  19  20
ENDBRANCH  13  19
TORSDOF 3
ENDMDL
MODEL 2
REMARK VINA RESULT:      -7.7      3.144      7.357
REMARK  Name = 
REMARK  4 active torsions:
REMARK  status: ('A' for Active; 'I' for Inactive)
REMARK    1  A    between atoms: C_1  and  O_2
REMARK    2  A    between atoms: O_2  and  C_3
REMARK    3  A    between atoms: N_15  and  C_16
REMARK    4  A    between atoms: C_16  and  C_17
REMARK                            x       y       z     vdW  Elec       q    Type
REMARK                         _______ _______ _______ _____ _____    ______ ____
ROOT
ATOM      1  C   UNL     1       1.828   6.096  20.778  0.00  0.00    +0.000 A 
ATOM      2  C   UNL     1       0.896   5.052  20.868  0.00  0.00    +0.000 A 
ATOM      3  C   UNL     1       0.913   4.003  19.949  0.00  0.00    +0.000 A 
ATOM      4  C   UNL     1       1.866   4.014  18.944  0.00  0.00    +0.000 A 
ATOM      5  C   UNL     1       2.820   5.032  18.852  0.00  0.00    +0.000 A 
ATOM      6  C   UNL     1       2.805   6.077  19.766  0.00  0.00    +0.000 A 
ATOM      7  C   UNL     1       3.681   4.841  17.647  0.00  0.00    +0.000 C 
ATOM      8  C   UNL     1       3.114   3.563  16.971  0.00  0.00    +0.000 C 
ATOM      9  C   UNL     1       1.996   3.003  17.856  0.00  0.00    +0.000 C 
ATOM     10  N   UNL     1       3.666   5.967  16.752  0.00  0.00    +0.000 N 
ATOM     11  C   UNL     1       4.889   6.125  16.139  0.00  0.00    +0.000 C 
ATOM     12  O   UNL     1       5.087   6.873  15.200  0.00  0.00    +0.000 OA
ATOM     13  N   UNL     1       5.785   5.305  16.753  0.00  0.00    +0.000 N 
ATOM     14  C   UNL     1       5.190   4.632  17.796  0.00  0.00    +0.000 C 
ATOM     15  O   UNL     1       5.737   3.866  18.572  0.00  0.00    +0.000 OA
ATOM     16  H   UNL     1       2.837   6.424  16.402  0.00  0.00    +0.000 HD
ENDROOT
BRANCH   1  18
ATOM     17  C   UNL     1       1.121   8.323  21.207  0.00  0.00    +0.000 C 
ATOM     18  O   UNL     1       1.873   7.183  21.610  0.00  0.00    +0.000 OA
ENDBRANCH   1  18
BRANCH  13  19
ATOM     19  C   UNL     1       7.118   5.045  16.251  0.00  0.00    +0.000 C 
BRANCH  19  20
ATOM     20  C   UNL     1       7.191   4.834  14.760  0.00  0.00    +0.000 A 
ATOM     21  C   UNL     1       6.456   3.823  14.143  0.00  0.00    +0.000 A 
ATOM     22  C   UNL     1       6.534   3.683  12.761  0.00  0.00    +0.000 A 
ATOM     23  C   UNL     1       7.354   4.540  12.039  0.00  0.00    +0.000 A 
ATOM     24  C   UNL     1       8.077   5.492  12.733  0.00  0.00    +0.000 A 
ATOM     25  F   UNL     1       8.896   6.301  12.046  0.00  0.00    +0.000 F 
ATOM     26  N   UNL     1       8.016   5.656  14.068  0.00  0.00    +0.000 NA
ENDBRANCH  19  20
ENDBRANCH  13  19
TORSDOF 3
ENDMDL
MODEL 3
REMARK VINA RESULT:      -7.2      4.027      6.266
REMARK  Name = 
REMARK  4 active torsions:
REMARK  status: ('A' for Active; 'I' for Inactive)
REMARK    1  A    between atoms: C_1  and  O_2
REMARK    2  A    between atoms: O_2  and  C_3
REMARK    3  A    between atoms: N_15  and  C_16
REMARK    4  A    between atoms: C_16  and  C_17
REMARK                            x       y       z     vdW  Elec       q    Type
REMARK                         _______ _______ _______ _____ _____    ______ ____
ROOT
ATOM      1  C   UNL     1       6.375   5.673  18.005  0.00  0.00    +0.000 A 
ATOM      2  C   UNL     1       6.148   4.477  17.307  0.00  0.00    +0.000 A 
ATOM      3  C   UNL     1       4.849   4.030  17.068  0.00  0.00    +0.000 A 
ATOM      4  C   UNL     1       3.788   4.787  17.536  0.00  0.00    +0.000 A 
ATOM      5  C   UNL     1       3.992   5.994  18.211  0.00  0.00    +0.000 A 
ATOM      6  C   UNL     1       5.284   6.442  18.450  0.00  0.00    +0.000 A 
ATOM      7  C   UNL     1       2.692   6.573  18.662  0.00  0.00    +0.000 C 
ATOM      8  C   UNL     1       1.630   5.538  18.197  0.00  0.00    +0.000 C 
ATOM      9  C   UNL     1       2.345   4.434  17.411  0.00  0.00    +0.000 C 
ATOM     10  N   UNL     1       2.629   6.796  20.082  0.00  0.00    +0.000 N 
ATOM     11  C   UNL     1       1.871   7.907  20.374  0.00  0.00    +0.000 C 
ATOM     12  O   UNL     1       1.499   8.202  21.494  0.00  0.00    +0.000 OA
ATOM     13  N   UNL     1       1.616   8.569  19.212  0.00  0.00    +0.000 N 
ATOM     14  C   UNL     1       2.230   7.941  18.152  0.00  0.00    +0.000 C 
ATOM     15  O   UNL     1       2.239   8.316  16.992  0.00  0.00    +0.000 OA
ATOM     16  H   UNL     1       2.865   6.117  20.791  0.00  0.00    +0.000 HD
ENDROOT
BRANCH   1  18
ATOM     17  C   UNL     1       7.862   7.525  17.931  0.00  0.00    +0.000 C 
ATOM     18  O   UNL     1       7.609   6.178  18.317  0.00  0.00    +0.000 OA
ENDBRANCH   1  18
BRANCH  13  19
ATOM     19  C   UNL     1       0.679   9.666  19.096  0.00  0.00    +0.000 C 
BRANCH  19  20
ATOM     20  C   UNL     1       1.306  11.033  19.198  0.00  0.00    +0.000 A 
ATOM     21  C   UNL     1       2.083  11.544  18.159  0.00  0.00    +0.000 A 
ATOM     22  C   UNL     1       2.619  12.822  18.287  0.00  0.00    +0.000 A 
ATOM     23  C   UNL     1       2.381  13.543  19.449  0.00  0.00    +0.000 A 
ATOM     24  C   UNL     1       1.629  12.948  20.445  0.00  0.00    +0.000 A 
ATOM     25  F   UNL     1       1.422  13.626  21.583  0.00  0.00    +0.000 F 
ATOM     26  N   UNL     1       1.091  11.718  20.348  0.00  0.00    +0.000 NA
ENDBRANCH  19  20
ENDBRANCH  13  19
TORSDOF 3
ENDMDL
MODEL 4
REMARK VINA RESULT:      -7.2      1.015      1.298
REMARK  Name = 
REMARK  4 active torsions:
REMARK  status: ('A' for Active; 'I' for Inactive)
REMARK    1  A    between atoms: C_1  and  O_2
REMARK    2  A    between atoms: O_2  and  C_3
REMARK    3  A    between atoms: N_15  and  C_16
REMARK    4  A    between atoms: C_16  and  C_17
REMARK                            x       y       z     vdW  Elec       q    Type
REMARK                         _______ _______ _______ _____ _____    ______ ____
ROOT
ATOM      1  C   UNL     1       5.730   4.309  13.728  0.00  0.00    +0.000 A 
ATOM      2  C   UNL     1       7.124   4.461  13.687  0.00  0.00    +0.000 A 
ATOM      3  C   UNL     1       7.798   5.106  14.724  0.00  0.00    +0.000 A 
ATOM      4  C   UNL     1       7.065   5.596  15.792  0.00  0.00    +0.000 A 
ATOM      5  C   UNL     1       5.678   5.433  15.863  0.00  0.00    +0.000 A 
ATOM      6  C   UNL     1       5.005   4.790  14.833  0.00  0.00    +0.000 A 
ATOM      7  C   UNL     1       5.130   6.108  17.076  0.00  0.00    +0.000 C 
ATOM      8  C   UNL     1       6.372   6.750  17.752  0.00  0.00    +0.000 C 
ATOM      9  C   UNL     1       7.616   6.349  16.954  0.00  0.00    +0.000 C 
ATOM     10  N   UNL     1       4.122   7.090  16.776  0.00  0.00    +0.000 N 
ATOM     11  C   UNL     1       3.170   7.139  17.768  0.00  0.00    +0.000 C 
ATOM     12  O   UNL     1       2.324   8.010  17.856  0.00  0.00    +0.000 OA
ATOM     13  N   UNL     1       3.364   6.081  18.601  0.00  0.00    +0.000 N 
ATOM     14  C   UNL     1       4.406   5.299  18.156  0.00  0.00    +0.000 C 
ATOM     15  O   UNL     1       4.791   4.253  18.651  0.00  0.00    +0.000 OA
ATOM     16  H   UNL     1       4.211   7.827  16.092  0.00  0.00    +0.000 HD
ENDROOT
BRANCH   1  18
ATOM     17  C   UNL     1       5.659   2.850  11.854  0.00  0.00    +0.000 C 
ATOM     18  O   UNL     1       4.975   3.722  12.747  0.00  0.00    +0.000 OA
ENDBRANCH   1  18
BRANCH  13  19
ATOM     19  C   UNL     1       2.688   5.918  19.871  0.00  0.00    +0.000 C 
BRANCH  19  20
ATOM     20  C   UNL     1       1.973   4.600  20.030  0.00  0.00    +0.000 A 
ATOM     21  C   UNL     1       1.336   3.996  18.947  0.00  0.00    +0.000 A 
ATOM     22  C   UNL     1       0.712   2.766  19.135  0.00  0.00    +0.000 A 
ATOM     23  C   UNL     1       0.725   2.186  20.397  0.00  0.00    +0.000 A 
ATOM     24  C   UNL     1       1.348   2.869  21.424  0.00  0.00    +0.000 A 
ATOM     25  F   UNL     1       1.336   2.331  22.651  0.00  0.00    +0.000 F 
ATOM     26  N   UNL     1       1.966   4.055  21.271  0.00  0.00    +0.000 NA
ENDBRANCH  19  20
ENDBRANCH  13  19
TORSDOF 3
ENDMDL
MODEL 5
REMARK VINA RESULT:      -7.2      4.041      6.168
REMARK  Name = 
REMARK  4 active torsions:
REMARK  status: ('A' for Active; 'I' for Inactive)
REMARK    1  A    between atoms: C_1  and  O_2
REMARK    2  A    between atoms: O_2  and  C_3
REMARK    3  A    between atoms: N_15  and  C_16
REMARK    4  A    between atoms: C_16  and  C_17
REMARK                            x       y       z     vdW  Elec       q    Type
REMARK                         _______ _______ _______ _____ _____    ______ ____
ROOT
ATOM      1  C   UNL     1       6.405   5.878  17.938  0.00  0.00    +0.000 A 
ATOM      2  C   UNL     1       6.215   4.676  17.240  0.00  0.00    +0.000 A 
ATOM      3  C   UNL     1       4.931   4.174  17.028  0.00  0.00    +0.000 A 
ATOM      4  C   UNL     1       3.849   4.882  17.524  0.00  0.00    +0.000 A 
ATOM      5  C   UNL     1       4.016   6.094  18.201  0.00  0.00    +0.000 A 
ATOM      6  C   UNL     1       5.293   6.597  18.412  0.00  0.00    +0.000 A 
ATOM      7  C   UNL     1       2.703   6.613  18.685  0.00  0.00    +0.000 C 
ATOM      8  C   UNL     1       1.677   5.535  18.239  0.00  0.00    +0.000 C 
ATOM      9  C   UNL     1       2.421   4.467  17.430  0.00  0.00    +0.000 C 
ATOM     10  N   UNL     1       2.663   6.827  20.107  0.00  0.00    +0.000 N 
ATOM     11  C   UNL     1       1.865   7.903  20.421  0.00  0.00    +0.000 C 
ATOM     12  O   UNL     1       1.506   8.177  21.552  0.00  0.00    +0.000 OA
ATOM     13  N   UNL     1       1.554   8.558  19.269  0.00  0.00    +0.000 N 
ATOM     14  C   UNL     1       2.170   7.962  18.193  0.00  0.00    +0.000 C 
ATOM     15  O   UNL     1       2.135   8.342  17.034  0.00  0.00    +0.000 OA
ATOM     16  H   UNL     1       2.946   6.156  20.806  0.00  0.00    +0.000 HD
ENDROOT
BRANCH   1  18
ATOM     17  C   UNL     1       7.837   7.767  17.768  0.00  0.00    +0.000 C 
ATOM     18  O   UNL     1       7.623   6.436  18.225  0.00  0.00    +0.000 OA
ENDBRANCH   1  18
BRANCH  13  19
ATOM     19  C   UNL     1       0.567   9.613  19.180  0.00  0.00    +0.000 C 
BRANCH  19  20
ATOM     20  C   UNL     1       1.107  10.994  19.455  0.00  0.00    +0.000 A 
ATOM     21  C   UNL     1       0.815  11.652  20.649  0.00  0.00    +0.000 A 
ATOM     22  C   UNL     1       1.358  12.915  20.871  0.00  0.00    +0.000 A 
ATOM     23  C   UNL     1       2.157  13.490  19.891  0.00  0.00    +0.000 A 
ATOM     24  C   UNL     1       2.366  12.784  18.721  0.00  0.00    +0.000 A 
ATOM     25  F   UNL     1       3.109  13.347  17.758  0.00  0.00    +0.000 F 
ATOM     26  N   UNL     1       1.862  11.559  18.482  0.00  0.00    +0.000 NA
ENDBRANCH  19  20
ENDBRANCH  13  19
TORSDOF 3
ENDMDL
MODEL 6
REMARK VINA RESULT:      -7.1      2.674      7.129
REMARK  Name = 
REMARK  4 active torsions:
REMARK  status: ('A' for Active; 'I' for Inactive)
REMARK    1  A    between atoms: C_1  and  O_2
REMARK    2  A    between atoms: O_2  and  C_3
REMARK    3  A    between atoms: N_15  and  C_16
REMARK    4  A    between atoms: C_16  and  C_17
REMARK                            x       y       z     vdW  Elec       q    Type
REMARK                         _______ _______ _______ _____ _____    ______ ____
ROOT
ATOM      1  C   UNL     1       1.865   5.964  20.697  0.00  0.00    +0.000 A 
ATOM      2  C   UNL     1       0.982   4.879  20.795  0.00  0.00    +0.000 A 
ATOM      3  C   UNL     1       1.034   3.835  19.872  0.00  0.00    +0.000 A 
ATOM      4  C   UNL     1       1.972   3.893  18.854  0.00  0.00    +0.000 A 
ATOM      5  C   UNL     1       2.877   4.953  18.753  0.00  0.00    +0.000 A 
ATOM      6  C   UNL     1       2.827   5.993  19.672  0.00  0.00    +0.000 A 
ATOM      7  C   UNL     1       3.729   4.805  17.536  0.00  0.00    +0.000 C 
ATOM      8  C   UNL     1       3.211   3.505  16.862  0.00  0.00    +0.000 C 
ATOM      9  C   UNL     1       2.132   2.892  17.761  0.00  0.00    +0.000 C 
ATOM     10  N   UNL     1       3.652   5.932  16.645  0.00  0.00    +0.000 N 
ATOM     11  C   UNL     1       4.857   6.148  16.017  0.00  0.00    +0.000 C 
ATOM     12  O   UNL     1       5.009   6.907  15.078  0.00  0.00    +0.000 OA
ATOM     13  N   UNL     1       5.798   5.367  16.615  0.00  0.00    +0.000 N 
ATOM     14  C   UNL     1       5.248   4.664  17.663  0.00  0.00    +0.000 C 
ATOM     15  O   UNL     1       5.840   3.922  18.429  0.00  0.00    +0.000 OA
ATOM     16  H   UNL     1       2.798   6.353  16.309  0.00  0.00    +0.000 HD
ENDROOT
BRANCH   1  18
ATOM     17  C   UNL     1       1.389   8.274  20.988  0.00  0.00    +0.000 C 
ATOM     18  O   UNL     1       1.871   7.050  21.532  0.00  0.00    +0.000 OA
ENDBRANCH   1  18
BRANCH  13  19
ATOM     19  C   UNL     1       7.135   5.170  16.095  0.00  0.00    +0.000 C 
BRANCH  19  20
ATOM     20  C   UNL     1       7.190   4.886  14.615  0.00  0.00    +0.000 A 
ATOM     21  C   UNL     1       8.014   5.632  13.773  0.00  0.00    +0.000 A 
ATOM     22  C   UNL     1       8.052   5.316  12.418  0.00  0.00    +0.000 A 
ATOM     23  C   UNL     1       7.258   4.283  11.941  0.00  0.00    +0.000 A 
ATOM     24  C   UNL     1       6.443   3.618  12.838  0.00  0.00    +0.000 A 
ATOM     25  F   UNL     1       5.648   2.640  12.378  0.00  0.00    +0.000 F 
ATOM     26  N   UNL     1       6.389   3.895  14.154  0.00  0.00    +0.000 NA
ENDBRANCH  19  20
ENDBRANCH  13  19
TORSDOF 3
ENDMDL
MODEL 7
REMARK VINA RESULT:      -7.1      2.749      6.874
REMARK  Name = 
REMARK  4 active torsions:
REMARK  status: ('A' for Active; 'I' for Inactive)
REMARK    1  A    between atoms: C_1  and  O_2
REMARK    2  A    between atoms: O_2  and  C_3
REMARK    3  A    between atoms: N_15  and  C_16
REMARK    4  A    between atoms: C_16  and  C_17
REMARK                            x       y       z     vdW  Elec       q    Type
REMARK                         _______ _______ _______ _____ _____    ______ ____
ROOT
ATOM      1  C   UNL     1       1.455   9.156  18.999  0.00  0.00    +0.000 A 
ATOM      2  C   UNL     1       1.077   9.221  20.348  0.00  0.00    +0.000 A 
ATOM      3  C   UNL     1       1.226   8.112  21.182  0.00  0.00    +0.000 A 
ATOM      4  C   UNL     1       1.750   6.946  20.650  0.00  0.00    +0.000 A 
ATOM      5  C   UNL     1       2.156   6.868  19.315  0.00  0.00    +0.000 A 
ATOM      6  C   UNL     1       2.010   7.970  18.484  0.00  0.00    +0.000 A 
ATOM      7  C   UNL     1       2.620   5.488  18.984  0.00  0.00    +0.000 C 
ATOM      8  C   UNL     1       2.422   4.691  20.303  0.00  0.00    +0.000 C 
ATOM      9  C   UNL     1       1.932   5.660  21.383  0.00  0.00    +0.000 C 
ATOM     10  N   UNL     1       1.901   4.892  17.890  0.00  0.00    +0.000 N 
ATOM     11  C   UNL     1       2.720   4.069  17.152  0.00  0.00    +0.000 C 
ATOM     12  O   UNL     1       2.320   3.299  16.298  0.00  0.00    +0.000 OA
ATOM     13  N   UNL     1       4.004   4.265  17.558  0.00  0.00    +0.000 N 
ATOM     14  C   UNL     1       4.061   5.240  18.529  0.00  0.00    +0.000 C 
ATOM     15  O   UNL     1       5.068   5.682  19.056  0.00  0.00    +0.000 OA
ATOM     16  H   UNL     1       0.895   4.850  17.806  0.00  0.00    +0.000 HD
ENDROOT
BRANCH   1  18
ATOM     17  C   UNL     1       1.407  11.499  18.611  0.00  0.00    +0.000 C 
ATOM     18  O   UNL     1       1.319  10.175  18.095  0.00  0.00    +0.000 OA
ENDBRANCH   1  18
BRANCH  13  19
ATOM     19  C   UNL     1       5.116   3.430  17.156  0.00  0.00    +0.000 C 
BRANCH  19  20
ATOM     20  C   UNL     1       5.856   3.924  15.939  0.00  0.00    +0.000 A 
ATOM     21  C   UNL     1       6.927   4.809  16.062  0.00  0.00    +0.000 A 
ATOM     22  C   UNL     1       7.597   5.216  14.912  0.00  0.00    +0.000 A 
ATOM     23  C   UNL     1       7.170   4.747  13.677  0.00  0.00    +0.000 A 
ATOM     24  C   UNL     1       6.078   3.900  13.642  0.00  0.00    +0.000 A 
ATOM     25  F   UNL     1       5.640   3.469  12.450  0.00  0.00    +0.000 F 
ATOM     26  N   UNL     1       5.414   3.483  14.736  0.00  0.00    +0.000 NA
ENDBRANCH  19  20
ENDBRANCH  13  19
TORSDOF 3
ENDMDL
MODEL 8
REMARK VINA RESULT:      -7.0      3.991      6.095
REMARK  Name = 
REMARK  4 active torsions:
REMARK  status: ('A' for Active; 'I' for Inactive)
REMARK    1  A    between atoms: C_1  and  O_2
REMARK    2  A    between atoms: O_2  and  C_3
REMARK    3  A    between atoms: N_15  and  C_16
REMARK    4  A    between atoms: C_16  and  C_17
REMARK                            x       y       z     vdW  Elec       q    Type
REMARK                         _______ _______ _______ _____ _____    ______ ____
ROOT
ATOM      1  C   UNL     1       5.677   4.822  19.175  0.00  0.00    +0.000 A 
ATOM      2  C   UNL     1       5.267   3.669  18.489  0.00  0.00    +0.000 A 
ATOM      3  C   UNL     1       3.986   3.587  17.941  0.00  0.00    +0.000 A 
ATOM      4  C   UNL     1       3.128   4.663  18.092  0.00  0.00    +0.000 A 
ATOM      5  C   UNL     1       3.526   5.830  18.751  0.00  0.00    +0.000 A 
ATOM      6  C   UNL     1       4.800   5.915  19.296  0.00  0.00    +0.000 A 
ATOM      7  C   UNL     1       2.396   6.802  18.831  0.00  0.00    +0.000 C 
ATOM      8  C   UNL     1       1.209   6.068  18.149  0.00  0.00    +0.000 C 
ATOM      9  C   UNL     1       1.717   4.725  17.614  0.00  0.00    +0.000 C 
ATOM     10  N   UNL     1       2.074   7.193  20.178  0.00  0.00    +0.000 N 
ATOM     11  C   UNL     1       1.644   8.500  20.223  0.00  0.00    +0.000 C 
ATOM     12  O   UNL     1       1.129   9.013  21.199  0.00  0.00    +0.000 OA
ATOM     13  N   UNL     1       1.882   9.072  19.011  0.00  0.00    +0.000 N 
ATOM     14  C   UNL     1       2.505   8.179  18.169  0.00  0.00    +0.000 C 
ATOM     15  O   UNL     1       2.898   8.402  17.036  0.00  0.00    +0.000 OA
ATOM     16  H   UNL     1       1.920   6.559  20.949  0.00  0.00    +0.000 HD
ENDROOT
BRANCH   1  18
ATOM     17  C   UNL     1       7.803   5.883  19.140  0.00  0.00    +0.000 C 
ATOM     18  O   UNL     1       6.898   4.986  19.775  0.00  0.00    +0.000 OA
ENDBRANCH   1  18
BRANCH  13  19
ATOM     19  C   UNL     1       1.377  10.369  18.616  0.00  0.00    +0.000 C 
BRANCH  19  20
ATOM     20  C   UNL     1      -0.115  10.417  18.400  0.00  0.00    +0.000 A 
ATOM     21  C   UNL     1      -0.721   9.636  17.417  0.00  0.00    +0.000 A 
ATOM     22  C   UNL     1      -2.105   9.692  17.273  0.00  0.00    +0.000 A 
ATOM     23  C   UNL     1      -2.838  10.536  18.097  0.00  0.00    +0.000 A 
ATOM     24  C   UNL     1      -2.154  11.302  19.022  0.00  0.00    +0.000 A 
ATOM     25  F   UNL     1      -2.852  12.142  19.799  0.00  0.00    +0.000 F 
ATOM     26  N   UNL     1      -0.819  11.264  19.190  0.00  0.00    +0.000 NA
ENDBRANCH  19  20
ENDBRANCH  13  19
TORSDOF 3
ENDMDL
MODEL 9
REMARK VINA RESULT:      -7.0      3.733      5.836
REMARK  Name = 
REMARK  4 active torsions:
REMARK  status: ('A' for Active; 'I' for Inactive)
REMARK    1  A    between atoms: C_1  and  O_2
REMARK    2  A    between atoms: O_2  and  C_3
REMARK    3  A    between atoms: N_15  and  C_16
REMARK    4  A    between atoms: C_16  and  C_17
REMARK                            x       y       z     vdW  Elec       q    Type
REMARK                         _______ _______ _______ _____ _____    ______ ____
ROOT
ATOM      1  C   UNL     1       5.701   4.749  19.099  0.00  0.00    +0.000 A 
ATOM      2  C   UNL     1       5.290   3.623  18.369  0.00  0.00    +0.000 A 
ATOM      3  C   UNL     1       4.008   3.560  17.823  0.00  0.00    +0.000 A 
ATOM      4  C   UNL     1       3.149   4.629  18.019  0.00  0.00    +0.000 A 
ATOM      5  C   UNL     1       3.547   5.770  18.721  0.00  0.00    +0.000 A 
ATOM      6  C   UNL     1       4.823   5.835  19.265  0.00  0.00    +0.000 A 
ATOM      7  C   UNL     1       2.416   6.736  18.843  0.00  0.00    +0.000 C 
ATOM      8  C   UNL     1       1.228   6.027  18.137  0.00  0.00    +0.000 C 
ATOM      9  C   UNL     1       1.736   4.706  17.549  0.00  0.00    +0.000 C 
ATOM     10  N   UNL     1       2.098   7.074  20.205  0.00  0.00    +0.000 N 
ATOM     11  C   UNL     1       1.667   8.377  20.302  0.00  0.00    +0.000 C 
ATOM     12  O   UNL     1       1.155   8.851  21.299  0.00  0.00    +0.000 OA
ATOM     13  N   UNL     1       1.900   8.996  19.112  0.00  0.00    +0.000 N 
ATOM     14  C   UNL     1       2.521   8.137  18.234  0.00  0.00    +0.000 C 
ATOM     15  O   UNL     1       2.910   8.405  17.109  0.00  0.00    +0.000 OA
ATOM     16  H   UNL     1       1.949   6.410  20.951  0.00  0.00    +0.000 HD
ENDROOT
BRANCH   1  18
ATOM     17  C   UNL     1       7.786   5.888  19.160  0.00  0.00    +0.000 C 
ATOM     18  O   UNL     1       6.924   4.892  19.700  0.00  0.00    +0.000 OA
ENDBRANCH   1  18
BRANCH  13  19
ATOM     19  C   UNL     1       1.391  10.307  18.770  0.00  0.00    +0.000 C 
BRANCH  19  20
ATOM     20  C   UNL     1      -0.096  10.353  18.526  0.00  0.00    +0.000 A 
ATOM     21  C   UNL     1      -0.956  10.942  19.452  0.00  0.00    +0.000 A 
ATOM     22  C   UNL     1      -2.318  10.985  19.171  0.00  0.00    +0.000 A 
ATOM     23  C   UNL     1      -2.784  10.425  17.989  0.00  0.00    +0.000 A 
ATOM     24  C   UNL     1      -1.868   9.829  17.143  0.00  0.00    +0.000 A 
ATOM     25  F   UNL     1      -2.315   9.257  16.016  0.00  0.00    +0.000 F 
ATOM     26  N   UNL     1      -0.544   9.778  17.383  0.00  0.00    +0.000 NA
ENDBRANCH  19  20
ENDBRANCH  13  19
TORSDOF 3
ENDMDL
