MODEL 1
REMARK VINA RESULT:      -7.7      0.000      0.000
REMARK  Name = 
REMARK  7 active torsions:
REMARK  status: ('A' for Active; 'I' for Inactive)
REMARK    1  A    between atoms: C_1  and  C_2
REMARK    2  A    between atoms: C_2  and  C_4
REMARK    3  A    between atoms: C_4  and  C_5
REMARK    4  A    between atoms: C_9  and  N_10
REMARK    5  A    between atoms: C_15  and  C_16
REMARK    6  A    between atoms: N_19  and  C_20
REMARK    7  A    between atoms: C_25  and  C_26
REMARK                            x       y       z     vdW  Elec       q    Type
REMARK                         _______ _______ _______ _____ _____    ______ ____
ROOT
ATOM      1  N   UNL     1      -0.217  11.272  18.459  0.00  0.00    +0.000 N 
ATOM      2  C   UNL     1       0.485  10.529  19.535  0.00  0.00    +0.000 C 
ATOM      3  C   UNL     1       0.045  11.265  20.762  0.00  0.00    +0.000 A 
ATOM      4  C   UNL     1      -0.239  12.578  20.376  0.00  0.00    +0.000 A 
ATOM      5  C   UNL     1      -0.794  13.514  21.228  0.00  0.00    +0.000 A 
ATOM      6  C   UNL     1      -1.105  13.102  22.528  0.00  0.00    +0.000 A 
ATOM      7  C   UNL     1      -0.857  11.757  22.910  0.00  0.00    +0.000 A 
ATOM      8  C   UNL     1      -0.276  10.816  22.037  0.00  0.00    +0.000 A 
ATOM      9  C   UNL     1      -0.264  12.618  18.891  0.00  0.00    +0.000 C 
ATOM     10  O   UNL     1      -0.497  13.627  18.245  0.00  0.00    +0.000 OA
ENDROOT
BRANCH   6  11
ATOM     11  C   UNL     1      -1.786  14.071  23.489  0.00  0.00    +0.000 C 
ATOM     12  C   UNL     1      -2.795  14.935  22.705  0.00  0.00    +0.000 C 
ATOM     13  C   UNL     1      -3.787  15.661  23.612  0.00  0.00    +0.000 C 
ATOM     14  N   UNL     1      -3.337  16.934  24.181  0.00  0.00    +0.000 NA
ATOM     15  C   UNL     1      -4.174  17.311  25.318  0.00  0.00    +0.000 C 
ATOM     16  C   UNL     1      -1.907  17.012  24.503  0.00  0.00    +0.000 C 
ATOM     17  C   UNL     1      -1.287  15.778  25.185  0.00  0.00    +0.000 C 
ATOM     18  N   UNL     1      -0.753  14.806  24.227  0.00  0.00    +0.000 NA
ATOM     19  H   UNL     1      -0.181  14.131  24.734  0.00  0.00    +0.000 HD
ENDBRANCH   6  11
BRANCH   1  24
ATOM     20  C   UNL     1      -3.845  11.262  18.111  0.00  0.00    +0.000 A 
ATOM     21  C   UNL     1      -3.947  10.661  16.850  0.00  0.00    +0.000 A 
ATOM     22  C   UNL     1      -2.881   9.928  16.334  0.00  0.00    +0.000 A 
ATOM     23  C   UNL     1      -1.674   9.877  17.024  0.00  0.00    +0.000 A 
ATOM     24  C   UNL     1      -1.503  10.652  18.181  0.00  0.00    +0.000 A 
ATOM     25  C   UNL     1      -2.628  11.205  18.800  0.00  0.00    +0.000 A 
BRANCH  20  26
ATOM     26  C   UNL     1      -5.013  12.006  18.700  0.00  0.00    +0.000 C 
BRANCH  26  28
ATOM     27  C   UNL     1      -6.732  10.111  19.036  0.00  0.00    +0.000 C 
ATOM     28  C   UNL     1      -6.341  11.384  18.330  0.00  0.00    +0.000 C 
ATOM     29  O   UNL     1      -7.091  11.926  17.519  0.00  0.00    +0.000 OA
ENDBRANCH  26  28
ENDBRANCH  20  26
ENDBRANCH   1  24
BRANCH   8  30
ATOM     30  C   UNL     1      -0.146   9.383  22.486  0.00  0.00    +0.000 C 
ATOM     31  F   UNL     1      -0.440   9.182  23.800  0.00  0.00    +0.000 F 
ATOM     32  F   UNL     1      -0.973   8.549  21.797  0.00  0.00    +0.000 F 
ATOM     33  F   UNL     1       1.112   8.892  22.311  0.00  0.00    +0.000 F 
ENDBRANCH   8  30
TORSDOF 5
ENDMDL
MODEL 2
REMARK VINA RESULT:      -7.7      4.381      6.320
REMARK  Name = 
REMARK  7 active torsions:
REMARK  status: ('A' for Active; 'I' for Inactive)
REMARK    1  A    between atoms: C_1  and  C_2
REMARK    2  A    between atoms: C_2  and  C_4
REMARK    3  A    between atoms: C_4  and  C_5
REMARK    4  A    between atoms: C_9  and  N_10
REMARK    5  A    between atoms: C_15  and  C_16
REMARK    6  A    between atoms: N_19  and  C_20
REMARK    7  A    between atoms: C_25  and  C_26
REMARK                            x       y       z     vdW  Elec       q    Type
REMARK                         _______ _______ _______ _____ _____    ______ ____
ROOT
ATOM      1  N   UNL     1       0.693   8.349  21.169  0.00  0.00    +0.000 N 
ATOM      2  C   UNL     1      -0.570   8.647  20.450  0.00  0.00    +0.000 C 
ATOM      3  C   UNL     1      -0.463  10.123  20.227  0.00  0.00    +0.000 A 
ATOM      4  C   UNL     1       0.333  10.638  21.253  0.00  0.00    +0.000 A 
ATOM      5  C   UNL     1       0.751  11.955  21.298  0.00  0.00    +0.000 A 
ATOM      6  C   UNL     1       0.371  12.792  20.243  0.00  0.00    +0.000 A 
ATOM      7  C   UNL     1      -0.402  12.259  19.177  0.00  0.00    +0.000 A 
ATOM      8  C   UNL     1      -0.835  10.919  19.151  0.00  0.00    +0.000 A 
ATOM      9  C   UNL     1       0.965   9.493  21.955  0.00  0.00    +0.000 C 
ATOM     10  O   UNL     1       1.731   9.614  22.898  0.00  0.00    +0.000 OA
ENDROOT
BRANCH   6  11
ATOM     11  C   UNL     1       0.864  14.235  20.203  0.00  0.00    +0.000 C 
ATOM     12  C   UNL     1      -0.325  15.167  19.895  0.00  0.00    +0.000 C 
ATOM     13  C   UNL     1      -0.027  16.634  20.202  0.00  0.00    +0.000 C 
ATOM     14  N   UNL     1       0.669  17.388  19.157  0.00  0.00    +0.000 NA
ATOM     15  C   UNL     1       1.249  18.611  19.709  0.00  0.00    +0.000 C 
ATOM     16  C   UNL     1       1.645  16.625  18.369  0.00  0.00    +0.000 C 
ATOM     17  C   UNL     1       2.561  15.667  19.152  0.00  0.00    +0.000 C 
ATOM     18  N   UNL     1       2.000  14.319  19.279  0.00  0.00    +0.000 NA
ATOM     19  H   UNL     1       2.732  13.692  19.613  0.00  0.00    +0.000 HD
ENDBRANCH   6  11
BRANCH   1  24
ATOM     20  C   UNL     1       2.503   6.000  19.050  0.00  0.00    +0.000 A 
ATOM     21  C   UNL     1       2.495   6.726  17.852  0.00  0.00    +0.000 A 
ATOM     22  C   UNL     1       2.260   8.099  17.866  0.00  0.00    +0.000 A 
ATOM     23  C   UNL     1       1.929   8.735  19.059  0.00  0.00    +0.000 A 
ATOM     24  C   UNL     1       1.730   7.973  20.219  0.00  0.00    +0.000 A 
ATOM     25  C   UNL     1       2.173   6.647  20.245  0.00  0.00    +0.000 A 
BRANCH  20  26
ATOM     26  C   UNL     1       2.815   4.527  19.048  0.00  0.00    +0.000 C 
BRANCH  26  28
ATOM     27  C   UNL     1       0.874   3.134  20.024  0.00  0.00    +0.000 C 
ATOM     28  C   UNL     1       1.588   3.676  18.811  0.00  0.00    +0.000 C 
ATOM     29  O   UNL     1       1.163   3.476  17.674  0.00  0.00    +0.000 OA
ENDBRANCH  26  28
ENDBRANCH  20  26
ENDBRANCH   1  24
BRANCH   8  30
ATOM     30  C   UNL     1      -1.560  10.408  17.932  0.00  0.00    +0.000 C 
ATOM     31  F   UNL     1      -2.712   9.737  18.210  0.00  0.00    +0.000 F 
ATOM     32  F   UNL     1      -1.918  11.412  17.086  0.00  0.00    +0.000 F 
ATOM     33  F   UNL     1      -0.802   9.548  17.195  0.00  0.00    +0.000 F 
ENDBRANCH   8  30
TORSDOF 5
ENDMDL
MODEL 3
REMARK VINA RESULT:      -7.6      7.495     10.099
REMARK  Name = 
REMARK  7 active torsions:
REMARK  status: ('A' for Active; 'I' for Inactive)
REMARK    1  A    between atoms: C_1  and  C_2
REMARK    2  A    between atoms: C_2  and  C_4
REMARK    3  A    between atoms: C_4  and  C_5
REMARK    4  A    between atoms: C_9  and  N_10
REMARK    5  A    between atoms: C_15  and  C_16
REMARK    6  A    between atoms: N_19  and  C_20
REMARK    7  A    between atoms: C_25  and  C_26
REMARK                            x       y       z     vdW  Elec       q    Type
REMARK                         _______ _______ _______ _____ _____    ______ ____
ROOT
ATOM      1  N   UNL     1       6.036   4.110  18.143  0.00  0.00    +0.000 N 
ATOM      2  C   UNL     1       4.756   3.359  18.187  0.00  0.00    +0.000 C 
ATOM      3  C   UNL     1       3.796   4.404  18.662  0.00  0.00    +0.000 A 
ATOM      4  C   UNL     1       4.527   5.321  19.423  0.00  0.00    +0.000 A 
ATOM      5  C   UNL     1       3.988   6.492  19.920  0.00  0.00    +0.000 A 
ATOM      6  C   UNL     1       2.651   6.771  19.614  0.00  0.00    +0.000 A 
ATOM      7  C   UNL     1       1.919   5.863  18.804  0.00  0.00    +0.000 A 
ATOM      8  C   UNL     1       2.476   4.663  18.317  0.00  0.00    +0.000 A 
ATOM      9  C   UNL     1       5.969   5.041  19.206  0.00  0.00    +0.000 C 
ATOM     10  O   UNL     1       6.869   5.680  19.727  0.00  0.00    +0.000 OA
ENDROOT
BRANCH   6  11
ATOM     11  C   UNL     1       2.025   8.083  20.074  0.00  0.00    +0.000 C 
ATOM     12  C   UNL     1       0.971   7.787  21.161  0.00  0.00    +0.000 C 
ATOM     13  C   UNL     1       0.562   9.031  21.948  0.00  0.00    +0.000 C 
ATOM     14  N   UNL     1      -0.479   9.867  21.347  0.00  0.00    +0.000 NA
ATOM     15  C   UNL     1      -0.487  11.195  21.960  0.00  0.00    +0.000 C 
ATOM     16  C   UNL     1      -0.466   9.940  19.881  0.00  0.00    +0.000 C 
ATOM     17  C   UNL     1       0.913  10.098  19.214  0.00  0.00    +0.000 C 
ATOM     18  N   UNL     1       1.543   8.813  18.897  0.00  0.00    +0.000 NA
ATOM     19  H   UNL     1       2.336   8.984  18.279  0.00  0.00    +0.000 HD
ENDBRANCH   6  11
BRANCH   1  24
ATOM     20  C   UNL     1       5.439   4.352  14.556  0.00  0.00    +0.000 A 
ATOM     21  C   UNL     1       5.197   5.729  14.462  0.00  0.00    +0.000 A 
ATOM     22  C   UNL     1       5.618   6.586  15.476  0.00  0.00    +0.000 A 
ATOM     23  C   UNL     1       6.189   6.065  16.634  0.00  0.00    +0.000 A 
ATOM     24  C   UNL     1       6.238   4.676  16.819  0.00  0.00    +0.000 A 
ATOM     25  C   UNL     1       6.015   3.837  15.722  0.00  0.00    +0.000 A 
BRANCH  20  26
ATOM     26  C   UNL     1       5.039   3.428  13.438  0.00  0.00    +0.000 C 
BRANCH  26  28
ATOM     27  C   UNL     1       6.050   2.069  11.491  0.00  0.00    +0.000 C 
ATOM     28  C   UNL     1       6.129   3.267  12.403  0.00  0.00    +0.000 C 
ATOM     29  O   UNL     1       7.018   4.109  12.281  0.00  0.00    +0.000 OA
ENDBRANCH  26  28
ENDBRANCH  20  26
ENDBRANCH   1  24
BRANCH   8  30
ATOM     30  C   UNL     1       1.664   3.809  17.378  0.00  0.00    +0.000 C 
ATOM     31  F   UNL     1       2.372   3.307  16.328  0.00  0.00    +0.000 F 
ATOM     32  F   UNL     1       1.122   2.727  18.001  0.00  0.00    +0.000 F 
ATOM     33  F   UNL     1       0.618   4.486  16.826  0.00  0.00    +0.000 F 
ENDBRANCH   8  30
TORSDOF 5
ENDMDL
MODEL 4
REMARK VINA RESULT:      -7.6      4.384      6.511
REMARK  Name = 
REMARK  7 active torsions:
REMARK  status: ('A' for Active; 'I' for Inactive)
REMARK    1  A    between atoms: C_1  and  C_2
REMARK    2  A    between atoms: C_2  and  C_4
REMARK    3  A    between atoms: C_4  and  C_5
REMARK    4  A    between atoms: C_9  and  N_10
REMARK    5  A    between atoms: C_15  and  C_16
REMARK    6  A    between atoms: N_19  and  C_20
REMARK    7  A    between atoms: C_25  and  C_26
REMARK                            x       y       z     vdW  Elec       q    Type
REMARK                         _______ _______ _______ _____ _____    ______ ____
ROOT
ATOM      1  N   UNL     1       0.355   8.484  21.314  0.00  0.00    +0.000 N 
ATOM      2  C   UNL     1      -0.829   8.694  20.445  0.00  0.00    +0.000 C 
ATOM      3  C   UNL     1      -0.743  10.158  20.146  0.00  0.00    +0.000 A 
ATOM      4  C   UNL     1      -0.083  10.760  21.221  0.00  0.00    +0.000 A 
ATOM      5  C   UNL     1       0.287  12.091  21.232  0.00  0.00    +0.000 A 
ATOM      6  C   UNL     1       0.001  12.852  20.093  0.00  0.00    +0.000 A 
ATOM      7  C   UNL     1      -0.631  12.233  18.983  0.00  0.00    +0.000 A 
ATOM      8  C   UNL     1      -1.017  10.877  18.990  0.00  0.00    +0.000 A 
ATOM      9  C   UNL     1       0.502   9.680  22.056  0.00  0.00    +0.000 C 
ATOM     10  O   UNL     1       1.153   9.883  23.067  0.00  0.00    +0.000 OA
ENDROOT
BRANCH   6  11
ATOM     11  C   UNL     1       0.451  14.308  20.021  0.00  0.00    +0.000 C 
ATOM     12  C   UNL     1      -0.375  15.039  18.943  0.00  0.00    +0.000 C 
ATOM     13  C   UNL     1      -0.276  16.561  19.047  0.00  0.00    +0.000 C 
ATOM     14  N   UNL     1       0.881  17.183  18.400  0.00  0.00    +0.000 NA
ATOM     15  C   UNL     1       1.082  18.540  18.906  0.00  0.00    +0.000 C 
ATOM     16  C   UNL     1       2.121  16.397  18.429  0.00  0.00    +0.000 C 
ATOM     17  C   UNL     1       2.460  15.697  19.758  0.00  0.00    +0.000 C 
ATOM     18  N   UNL     1       1.907  14.343  19.846  0.00  0.00    +0.000 NA
ATOM     19  H   UNL     1       2.336  13.868  20.639  0.00  0.00    +0.000 HD
ENDBRANCH   6  11
BRANCH   1  24
ATOM     20  C   UNL     1       2.571   6.072  19.715  0.00  0.00    +0.000 A 
ATOM     21  C   UNL     1       2.591   6.610  18.422  0.00  0.00    +0.000 A 
ATOM     22  C   UNL     1       2.216   7.934  18.206  0.00  0.00    +0.000 A 
ATOM     23  C   UNL     1       1.721   8.696  19.261  0.00  0.00    +0.000 A 
ATOM     24  C   UNL     1       1.502   8.094  20.509  0.00  0.00    +0.000 A 
ATOM     25  C   UNL     1       2.074   6.845  20.770  0.00  0.00    +0.000 A 
BRANCH  20  26
ATOM     26  C   UNL     1       3.030   4.660  19.963  0.00  0.00    +0.000 C 
BRANCH  26  28
ATOM     27  C   UNL     1       0.783   3.401  20.112  0.00  0.00    +0.000 C 
ATOM     28  C   UNL     1       2.045   3.869  20.792  0.00  0.00    +0.000 C 
ATOM     29  O   UNL     1       2.289   3.578  21.963  0.00  0.00    +0.000 OA
ENDBRANCH  26  28
ENDBRANCH  20  26
ENDBRANCH   1  24
BRANCH   8  30
ATOM     30  C   UNL     1      -1.586  10.272  17.733  0.00  0.00    +0.000 C 
ATOM     31  F   UNL     1      -0.747   9.402  17.105  0.00  0.00    +0.000 F 
ATOM     32  F   UNL     1      -2.728   9.571  17.968  0.00  0.00    +0.000 F 
ATOM     33  F   UNL     1      -1.907  11.211  16.799  0.00  0.00    +0.000 F 
ENDBRANCH   8  30
TORSDOF 5
ENDMDL
MODEL 5
REMARK VINA RESULT:      -7.6      4.661      7.575
REMARK  Name = 
REMARK  7 active torsions:
REMARK  status: ('A' for Active; 'I' for Inactive)
REMARK    1  A    between atoms: C_1  and  C_2
REMARK    2  A    between atoms: C_2  and  C_4
REMARK    3  A    between atoms: C_4  and  C_5
REMARK    4  A    between atoms: C_9  and  N_10
REMARK    5  A    between atoms: C_15  and  C_16
REMARK    6  A    between atoms: N_19  and  C_20
REMARK    7  A    between atoms: C_25  and  C_26
REMARK                            x       y       z     vdW  Elec       q    Type
REMARK                         _______ _______ _______ _____ _____    ______ ____
ROOT
ATOM      1  N   UNL     1       2.498   7.596  19.400  0.00  0.00    +0.000 N 
ATOM      2  C   UNL     1       2.230   8.338  20.657  0.00  0.00    +0.000 C 
ATOM      3  C   UNL     1       1.090   9.224  20.261  0.00  0.00    +0.000 A 
ATOM      4  C   UNL     1       1.202   9.450  18.886  0.00  0.00    +0.000 A 
ATOM      5  C   UNL     1       0.247  10.125  18.150  0.00  0.00    +0.000 A 
ATOM      6  C   UNL     1      -0.893  10.574  18.826  0.00  0.00    +0.000 A 
ATOM      7  C   UNL     1      -1.029  10.308  20.214  0.00  0.00    +0.000 A 
ATOM      8  C   UNL     1      -0.040   9.632  20.957  0.00  0.00    +0.000 A 
ATOM      9  C   UNL     1       2.214   8.503  18.352  0.00  0.00    +0.000 C 
ATOM     10  O   UNL     1       2.531   8.444  17.176  0.00  0.00    +0.000 OA
ENDROOT
BRANCH   6  11
ATOM     11  C   UNL     1      -2.013  11.261  18.051  0.00  0.00    +0.000 C 
ATOM     12  C   UNL     1      -3.334  11.112  18.833  0.00  0.00    +0.000 C 
ATOM     13  C   UNL     1      -4.423  12.069  18.350  0.00  0.00    +0.000 C 
ATOM     14  N   UNL     1      -5.207  11.630  17.193  0.00  0.00    +0.000 NA
ATOM     15  C   UNL     1      -5.905  12.764  16.588  0.00  0.00    +0.000 C 
ATOM     16  C   UNL     1      -4.476  10.841  16.195  0.00  0.00    +0.000 C 
ATOM     17  C   UNL     1      -3.063  11.333  15.831  0.00  0.00    +0.000 C 
ATOM     18  N   UNL     1      -2.020  10.747  16.678  0.00  0.00    +0.000 NA
ATOM     19  H   UNL     1      -1.112  10.943  16.258  0.00  0.00    +0.000 HD
ENDBRANCH   6  11
BRANCH   1  24
ATOM     20  C   UNL     1       1.912   4.127  18.448  0.00  0.00    +0.000 A 
ATOM     21  C   UNL     1       1.631   3.592  19.712  0.00  0.00    +0.000 A 
ATOM     22  C   UNL     1       1.255   4.429  20.760  0.00  0.00    +0.000 A 
ATOM     23  C   UNL     1       1.257   5.809  20.581  0.00  0.00    +0.000 A 
ATOM     24  C   UNL     1       1.741   6.353  19.383  0.00  0.00    +0.000 A 
ATOM     25  C   UNL     1       1.910   5.515  18.276  0.00  0.00    +0.000 A 
BRANCH  20  26
ATOM     26  C   UNL     1       2.263   3.223  17.296  0.00  0.00    +0.000 C 
BRANCH  26  28
ATOM     27  C   UNL     1       4.799   3.559  16.963  0.00  0.00    +0.000 C 
ATOM     28  C   UNL     1       3.665   2.668  17.402  0.00  0.00    +0.000 C 
ATOM     29  O   UNL     1       3.872   1.551  17.874  0.00  0.00    +0.000 OA
ENDBRANCH  26  28
ENDBRANCH  20  26
ENDBRANCH   1  24
BRANCH   8  30
ATOM     30  C   UNL     1      -0.311   9.297  22.401  0.00  0.00    +0.000 C 
ATOM     31  F   UNL     1      -1.132  10.180  23.033  0.00  0.00    +0.000 F 
ATOM     32  F   UNL     1      -0.905   8.081  22.546  0.00  0.00    +0.000 F 
ATOM     33  F   UNL     1       0.826   9.250  23.149  0.00  0.00    +0.000 F 
ENDBRANCH   8  30
TORSDOF 5
ENDMDL
MODEL 6
REMARK VINA RESULT:      -7.4      4.186      6.172
REMARK  Name = 
REMARK  7 active torsions:
REMARK  status: ('A' for Active; 'I' for Inactive)
REMARK    1  A    between atoms: C_1  and  C_2
REMARK    2  A    between atoms: C_2  and  C_4
REMARK    3  A    between atoms: C_4  and  C_5
REMARK    4  A    between atoms: C_9  and  N_10
REMARK    5  A    between atoms: C_15  and  C_16
REMARK    6  A    between atoms: N_19  and  C_20
REMARK    7  A    between atoms: C_25  and  C_26
REMARK                            x       y       z     vdW  Elec       q    Type
REMARK                         _______ _______ _______ _____ _____    ______ ____
ROOT
ATOM      1  N   UNL     1       0.310   8.892  20.872  0.00  0.00    +0.000 N 
ATOM      2  C   UNL     1      -0.928   8.880  20.053  0.00  0.00    +0.000 C 
ATOM      3  C   UNL     1      -1.037  10.312  19.630  0.00  0.00    +0.000 A 
ATOM      4  C   UNL     1      -0.410  11.081  20.613  0.00  0.00    +0.000 A 
ATOM      5  C   UNL     1      -0.209  12.443  20.494  0.00  0.00    +0.000 A 
ATOM      6  C   UNL     1      -0.636  13.060  19.312  0.00  0.00    +0.000 A 
ATOM      7  C   UNL     1      -1.234  12.273  18.294  0.00  0.00    +0.000 A 
ATOM      8  C   UNL     1      -1.449  10.887  18.434  0.00  0.00    +0.000 A 
ATOM      9  C   UNL     1       0.340  10.158  21.502  0.00  0.00    +0.000 C 
ATOM     10  O   UNL     1       1.005  10.527  22.456  0.00  0.00    +0.000 OA
ENDROOT
BRANCH   6  11
ATOM     11  C   UNL     1      -0.374  14.547  19.095  0.00  0.00    +0.000 C 
ATOM     12  C   UNL     1       1.053  14.884  19.573  0.00  0.00    +0.000 C 
ATOM     13  C   UNL     1       1.548  16.237  19.062  0.00  0.00    +0.000 C 
ATOM     14  N   UNL     1       1.148  17.411  19.840  0.00  0.00    +0.000 NA
ATOM     15  C   UNL     1       1.321  18.630  19.051  0.00  0.00    +0.000 C 
ATOM     16  C   UNL     1      -0.182  17.340  20.456  0.00  0.00    +0.000 C 
ATOM     17  C   UNL     1      -1.313  16.764  19.583  0.00  0.00    +0.000 C 
ATOM     18  N   UNL     1      -1.457  15.312  19.722  0.00  0.00    +0.000 NA
ATOM     19  H   UNL     1      -2.338  15.031  19.293  0.00  0.00    +0.000 HD
ENDBRANCH   6  11
BRANCH   1  24
ATOM     20  C   UNL     1       2.465   6.641  18.981  0.00  0.00    +0.000 A 
ATOM     21  C   UNL     1       2.540   7.359  17.781  0.00  0.00    +0.000 A 
ATOM     22  C   UNL     1       2.226   8.716  17.753  0.00  0.00    +0.000 A 
ATOM     23  C   UNL     1       1.736   9.338  18.898  0.00  0.00    +0.000 A 
ATOM     24  C   UNL     1       1.461   8.573  20.040  0.00  0.00    +0.000 A 
ATOM     25  C   UNL     1       1.974   7.275  20.128  0.00  0.00    +0.000 A 
BRANCH  20  26
ATOM     26  C   UNL     1       2.860   5.189  19.030  0.00  0.00    +0.000 C 
BRANCH  26  28
ATOM     27  C   UNL     1       0.968   3.690  19.942  0.00  0.00    +0.000 C 
ATOM     28  C   UNL     1       1.697   4.264  18.753  0.00  0.00    +0.000 C 
ATOM     29  O   UNL     1       1.332   4.029  17.602  0.00  0.00    +0.000 OA
ENDBRANCH  26  28
ENDBRANCH  20  26
ENDBRANCH   1  24
BRANCH   8  30
ATOM     30  C   UNL     1      -1.991  10.108  17.264  0.00  0.00    +0.000 C 
ATOM     31  F   UNL     1      -3.093   9.362  17.554  0.00  0.00    +0.000 F 
ATOM     32  F   UNL     1      -2.360  10.916  16.233  0.00  0.00    +0.000 F 
ATOM     33  F   UNL     1      -1.081   9.235  16.749  0.00  0.00    +0.000 F 
ENDBRANCH   8  30
TORSDOF 5
ENDMDL
MODEL 7
REMARK VINA RESULT:      -7.4      4.525      6.800
REMARK  Name = 
REMARK  7 active torsions:
REMARK  status: ('A' for Active; 'I' for Inactive)
REMARK    1  A    between atoms: C_1  and  C_2
REMARK    2  A    between atoms: C_2  and  C_4
REMARK    3  A    between atoms: C_4  and  C_5
REMARK    4  A    between atoms: C_9  and  N_10
REMARK    5  A    between atoms: C_15  and  C_16
REMARK    6  A    between atoms: N_19  and  C_20
REMARK    7  A    between atoms: C_25  and  C_26
REMARK                            x       y       z     vdW  Elec       q    Type
REMARK                         _______ _______ _______ _____ _____    ______ ____
ROOT
ATOM      1  N   UNL     1       0.697   8.331  21.134  0.00  0.00    +0.000 N 
ATOM      2  C   UNL     1      -0.579   8.568  20.414  0.00  0.00    +0.000 C 
ATOM      3  C   UNL     1      -0.530  10.044  20.168  0.00  0.00    +0.000 A 
ATOM      4  C   UNL     1       0.247  10.606  21.185  0.00  0.00    +0.000 A 
ATOM      5  C   UNL     1       0.612  11.938  21.209  0.00  0.00    +0.000 A 
ATOM      6  C   UNL     1       0.198  12.743  20.142  0.00  0.00    +0.000 A 
ATOM      7  C   UNL     1      -0.555  12.165  19.086  0.00  0.00    +0.000 A 
ATOM      8  C   UNL     1      -0.935  10.807  19.081  0.00  0.00    +0.000 A 
ATOM      9  C   UNL     1       0.925   9.497  21.903  0.00  0.00    +0.000 C 
ATOM     10  O   UNL     1       1.686   9.663  22.841  0.00  0.00    +0.000 OA
ENDROOT
BRANCH   6  11
ATOM     11  C   UNL     1       0.633  14.204  20.079  0.00  0.00    +0.000 C 
ATOM     12  C   UNL     1      -0.269  14.958  19.080  0.00  0.00    +0.000 C 
ATOM     13  C   UNL     1      -0.172  16.476  19.220  0.00  0.00    +0.000 C 
ATOM     14  N   UNL     1       0.935  17.124  18.512  0.00  0.00    +0.000 NA
ATOM     15  C   UNL     1       1.162  18.468  19.040  0.00  0.00    +0.000 C 
ATOM     16  C   UNL     1       2.178  16.348  18.433  0.00  0.00    +0.000 C 
ATOM     17  C   UNL     1       2.612  15.614  19.716  0.00  0.00    +0.000 C 
ATOM     18  N   UNL     1       2.073  14.254  19.805  0.00  0.00    +0.000 NA
ATOM     19  H   UNL     1       2.559  13.761  20.554  0.00  0.00    +0.000 HD
ENDBRANCH   6  11
BRANCH   1  24
ATOM     20  C   UNL     1       2.572   6.030  19.019  0.00  0.00    +0.000 A 
ATOM     21  C   UNL     1       2.551   6.757  17.823  0.00  0.00    +0.000 A 
ATOM     22  C   UNL     1       2.281   8.124  17.837  0.00  0.00    +0.000 A 
ATOM     23  C   UNL     1       1.931   8.750  19.030  0.00  0.00    +0.000 A 
ATOM     24  C   UNL     1       1.746   7.982  20.188  0.00  0.00    +0.000 A 
ATOM     25  C   UNL     1       2.221   6.667  20.214  0.00  0.00    +0.000 A 
BRANCH  20  26
ATOM     26  C   UNL     1       2.920   4.565  19.017  0.00  0.00    +0.000 C 
BRANCH  26  28
ATOM     27  C   UNL     1       5.476   4.890  19.149  0.00  0.00    +0.000 C 
ATOM     28  C   UNL     1       4.289   4.297  18.434  0.00  0.00    +0.000 C 
ATOM     29  O   UNL     1       4.428   3.582  17.442  0.00  0.00    +0.000 OA
ENDBRANCH  26  28
ENDBRANCH  20  26
ENDBRANCH   1  24
BRANCH   8  30
ATOM     30  C   UNL     1      -1.641  10.250  17.872  0.00  0.00    +0.000 C 
ATOM     31  F   UNL     1      -0.891   9.381  17.140  0.00  0.00    +0.000 F 
ATOM     32  F   UNL     1      -2.770   9.565  18.203  0.00  0.00    +0.000 F 
ATOM     33  F   UNL     1      -2.035  11.221  17.001  0.00  0.00    +0.000 F 
ENDBRANCH   8  30
TORSDOF 5
ENDMDL
MODEL 8
REMARK VINA RESULT:      -7.4      4.257      6.311
REMARK  Name = 
REMARK  7 active torsions:
REMARK  status: ('A' for Active; 'I' for Inactive)
REMARK    1  A    between atoms: C_1  and  C_2
REMARK    2  A    between atoms: C_2  and  C_4
REMARK    3  A    between atoms: C_4  and  C_5
REMARK    4  A    between atoms: C_9  and  N_10
REMARK    5  A    between atoms: C_15  and  C_16
REMARK    6  A    between atoms: N_19  and  C_20
REMARK    7  A    between atoms: C_25  and  C_26
REMARK                            x       y       z     vdW  Elec       q    Type
REMARK                         _______ _______ _______ _____ _____    ______ ____
ROOT
ATOM      1  N   UNL     1       0.365   8.573  21.251  0.00  0.00    +0.000 N 
ATOM      2  C   UNL     1      -0.840   8.744  20.401  0.00  0.00    +0.000 C 
ATOM      3  C   UNL     1      -0.771  10.197  20.048  0.00  0.00    +0.000 A 
ATOM      4  C   UNL     1      -0.092  10.841  21.085  0.00  0.00    +0.000 A 
ATOM      5  C   UNL     1       0.268  12.175  21.040  0.00  0.00    +0.000 A 
ATOM      6  C   UNL     1      -0.048  12.892  19.881  0.00  0.00    +0.000 A 
ATOM      7  C   UNL     1      -0.700  12.228  18.808  0.00  0.00    +0.000 A 
ATOM      8  C   UNL     1      -1.076  10.872  18.873  0.00  0.00    +0.000 A 
ATOM      9  C   UNL     1       0.519   9.796  21.945  0.00  0.00    +0.000 C 
ATOM     10  O   UNL     1       1.191  10.040  22.934  0.00  0.00    +0.000 OA
ENDROOT
BRANCH   6  11
ATOM     11  C   UNL     1       0.389  14.347  19.746  0.00  0.00    +0.000 C 
ATOM     12  C   UNL     1       0.799  14.883  21.133  0.00  0.00    +0.000 C 
ATOM     13  C   UNL     1       1.599  16.182  21.057  0.00  0.00    +0.000 C 
ATOM     14  N   UNL     1       0.821  17.419  20.952  0.00  0.00    +0.000 NA
ATOM     15  C   UNL     1       1.664  18.516  20.482  0.00  0.00    +0.000 C 
ATOM     16  C   UNL     1      -0.427  17.319  20.186  0.00  0.00    +0.000 C 
ATOM     17  C   UNL     1      -0.364  16.517  18.873  0.00  0.00    +0.000 C 
ATOM     18  N   UNL     1      -0.669  15.095  19.059  0.00  0.00    +0.000 NA
ATOM     19  H   UNL     1      -0.816  14.672  18.143  0.00  0.00    +0.000 HD
ENDBRANCH   6  11
BRANCH   1  24
ATOM     20  C   UNL     1       2.562   6.120  19.690  0.00  0.00    +0.000 A 
ATOM     21  C   UNL     1       2.550   6.611  18.379  0.00  0.00    +0.000 A 
ATOM     22  C   UNL     1       2.161   7.924  18.124  0.00  0.00    +0.000 A 
ATOM     23  C   UNL     1       1.684   8.720  19.162  0.00  0.00    +0.000 A 
ATOM     24  C   UNL     1       1.497   8.162  20.435  0.00  0.00    +0.000 A 
ATOM     25  C   UNL     1       2.083   6.927  20.727  0.00  0.00    +0.000 A 
BRANCH  20  26
ATOM     26  C   UNL     1       3.037   4.721  19.978  0.00  0.00    +0.000 C 
BRANCH  26  28
ATOM     27  C   UNL     1       0.784   3.470  20.122  0.00  0.00    +0.000 C 
ATOM     28  C   UNL     1       2.046   3.932  20.805  0.00  0.00    +0.000 C 
ATOM     29  O   UNL     1       2.287   3.640  21.976  0.00  0.00    +0.000 OA
ENDBRANCH  26  28
ENDBRANCH  20  26
ENDBRANCH   1  24
BRANCH   8  30
ATOM     30  C   UNL     1      -1.667  10.217  17.651  0.00  0.00    +0.000 C 
ATOM     31  F   UNL     1      -2.784   9.479  17.899  0.00  0.00    +0.000 F 
ATOM     32  F   UNL     1      -2.034  11.125  16.706  0.00  0.00    +0.000 F 
ATOM     33  F   UNL     1      -0.794   9.370  17.037  0.00  0.00    +0.000 F 
ENDBRANCH   8  30
TORSDOF 5
ENDMDL
MODEL 9
REMARK VINA RESULT:      -7.4      3.527      7.475
REMARK  Name = 
REMARK  7 active torsions:
REMARK  status: ('A' for Active; 'I' for Inactive)
REMARK    1  A    between atoms: C_1  and  C_2
REMARK    2  A    between atoms: C_2  and  C_4
REMARK    3  A    between atoms: C_4  and  C_5
REMARK    4  A    between atoms: C_9  and  N_10
REMARK    5  A    between atoms: C_15  and  C_16
REMARK    6  A    between atoms: N_19  and  C_20
REMARK    7  A    between atoms: C_25  and  C_26
REMARK                            x       y       z     vdW  Elec       q    Type
REMARK                         _______ _______ _______ _____ _____    ______ ____
ROOT
ATOM      1  N   UNL     1       0.246  13.624  20.112  0.00  0.00    +0.000 N 
ATOM      2  C   UNL     1      -0.719  13.328  19.025  0.00  0.00    +0.000 C 
ATOM      3  C   UNL     1      -0.296  11.959  18.593  0.00  0.00    +0.000 A 
ATOM      4  C   UNL     1       1.067  11.841  18.876  0.00  0.00    +0.000 A 
ATOM      5  C   UNL     1       1.772  10.662  18.725  0.00  0.00    +0.000 A 
ATOM      6  C   UNL     1       1.064   9.536  18.291  0.00  0.00    +0.000 A 
ATOM      7  C   UNL     1      -0.330   9.643  18.044  0.00  0.00    +0.000 A 
ATOM      8  C   UNL     1      -1.034  10.855  18.186  0.00  0.00    +0.000 A 
ATOM      9  C   UNL     1       1.453  12.990  19.734  0.00  0.00    +0.000 C 
ATOM     10  O   UNL     1       2.582  13.166  20.163  0.00  0.00    +0.000 OA
ENDROOT
BRANCH   6  11
ATOM     11  C   UNL     1       1.775   8.191  18.176  0.00  0.00    +0.000 C 
ATOM     12  C   UNL     1       2.051   7.642  19.591  0.00  0.00    +0.000 C 
ATOM     13  C   UNL     1       2.408   6.156  19.594  0.00  0.00    +0.000 C 
ATOM     14  N   UNL     1       3.810   5.824  19.331  0.00  0.00    +0.000 NA
ATOM     15  C   UNL     1       3.941   4.417  18.958  0.00  0.00    +0.000 C 
ATOM     16  C   UNL     1       4.504   6.709  18.388  0.00  0.00    +0.000 C 
ATOM     17  C   UNL     1       3.721   7.119  17.127  0.00  0.00    +0.000 C 
ATOM     18  N   UNL     1       2.949   8.351  17.311  0.00  0.00    +0.000 NA
ATOM     19  H   UNL     1       2.632   8.675  16.398  0.00  0.00    +0.000 HD
ENDBRANCH   6  11
BRANCH   1  24
ATOM     20  C   UNL     1      -2.443  13.189  22.533  0.00  0.00    +0.000 A 
ATOM     21  C   UNL     1      -2.231  11.845  22.865  0.00  0.00    +0.000 A 
ATOM     22  C   UNL     1      -1.003  11.243  22.601  0.00  0.00    +0.000 A 
ATOM     23  C   UNL     1      -0.018  11.946  21.912  0.00  0.00    +0.000 A 
ATOM     24  C   UNL     1      -0.307  13.217  21.395  0.00  0.00    +0.000 A 
ATOM     25  C   UNL     1      -1.448  13.889  21.843  0.00  0.00    +0.000 A 
BRANCH  20  26
ATOM     26  C   UNL     1      -3.747  13.862  22.869  0.00  0.00    +0.000 C 
BRANCH  26  28
ATOM     27  C   UNL     1      -5.334  12.700  21.198  0.00  0.00    +0.000 C 
ATOM     28  C   UNL     1      -4.940  12.964  22.629  0.00  0.00    +0.000 C 
ATOM     29  O   UNL     1      -5.534  12.433  23.568  0.00  0.00    +0.000 OA
ENDBRANCH  26  28
ENDBRANCH  20  26
ENDBRANCH   1  24
BRANCH   8  30
ATOM     30  C   UNL     1      -2.530  10.858  18.007  0.00  0.00    +0.000 C 
ATOM     31  F   UNL     1      -3.215  11.405  19.049  0.00  0.00    +0.000 F 
ATOM     32  F   UNL     1      -2.917  11.560  16.908  0.00  0.00    +0.000 F 
ATOM     33  F   UNL     1      -3.040   9.604  17.850  0.00  0.00    +0.000 F 
ENDBRANCH   8  30
TORSDOF 5
ENDMDL
