MODEL 1
REMARK VINA RESULT:      -8.7      0.000      0.000
REMARK  Name = 
REMARK  3 active torsions:
REMARK  status: ('A' for Active; 'I' for Inactive)
REMARK    1  A    between atoms: C_2  and  C_14
REMARK    2  A    between atoms: C_17  and  C_18
REMARK    3  A    between atoms: C_18  and  N_19
REMARK                            x       y       z     vdW  Elec       q    Type
REMARK                         _______ _______ _______ _____ _____    ______ ____
ROOT
ATOM      1  O   UNL     1       1.513   5.445  20.613  0.00  0.00    +0.000 OA
ATOM      2  C   UNL     1       2.111   5.870  19.629  0.00  0.00    +0.000 C 
ATOM      3  N   UNL     1       2.104   7.193  19.228  0.00  0.00    +0.000 N 
ATOM      4  C   UNL     1       1.466   8.131  20.004  0.00  0.00    +0.000 A 
ATOM      5  N   UNL     1       1.052   7.996  21.236  0.00  0.00    +0.000 NA
ATOM      6  C   UNL     1       0.412   9.141  21.659  0.00  0.00    +0.000 A 
ATOM      7  C   UNL     1      -0.169   9.335  22.930  0.00  0.00    +0.000 A 
ATOM      8  C   UNL     1      -0.812  10.540  23.224  0.00  0.00    +0.000 A 
ATOM      9  C   UNL     1      -0.877  11.536  22.261  0.00  0.00    +0.000 A 
ATOM     10  F   UNL     1      -1.505  12.682  22.556  0.00  0.00    +0.000 F 
ATOM     11  C   UNL     1      -0.304  11.382  20.997  0.00  0.00    +0.000 A 
ATOM     12  C   UNL     1       0.349  10.169  20.714  0.00  0.00    +0.000 A 
ATOM     13  S   UNL     1       1.179   9.650  19.281  0.00  0.00    +0.000 S 
ATOM     14  H   UNL     1       2.462   7.455  18.323  0.00  0.00    +0.000 HD
ENDROOT
BRANCH   2  15
ATOM     15  C   UNL     1       2.836   4.939  18.777  0.00  0.00    +0.000 A 
ATOM     16  C   UNL     1       2.520   3.613  18.534  0.00  0.00    +0.000 A 
ATOM     17  C   UNL     1       3.546   3.078  17.741  0.00  0.00    +0.000 A 
ATOM     18  C   UNL     1       4.446   4.100  17.525  0.00  0.00    +0.000 A 
ATOM     19  O   UNL     1       4.011   5.257  18.133  0.00  0.00    +0.000 OA
BRANCH  18  20
ATOM     20  C   UNL     1       5.746   4.107  16.790  0.00  0.00    +0.000 C 
BRANCH  20  21
ATOM     21  N   UNL     1       6.603   5.161  17.322  0.00  0.00    +0.000 N 
ATOM     22  C   UNL     1       7.367   4.906  18.448  0.00  0.00    +0.000 A 
ATOM     23  C   UNL     1       8.097   5.869  19.024  0.00  0.00    +0.000 A 
ATOM     24  C   UNL     1       8.081   7.203  18.482  0.00  0.00    +0.000 A 
ATOM     25  C   UNL     1       7.373   7.483  17.380  0.00  0.00    +0.000 A 
ATOM     26  C   UNL     1       6.573   6.417  16.713  0.00  0.00    +0.000 A 
ATOM     27  O   UNL     1       5.936   6.693  15.699  0.00  0.00    +0.000 OA
ENDBRANCH  20  21
ENDBRANCH  18  20
ENDBRANCH   2  15
TORSDOF 3
ENDMDL
MODEL 2
REMARK VINA RESULT:      -8.7      2.318      4.149
REMARK  Name = 
REMARK  3 active torsions:
REMARK  status: ('A' for Active; 'I' for Inactive)
REMARK    1  A    between atoms: C_2  and  C_14
REMARK    2  A    between atoms: C_17  and  C_18
REMARK    3  A    between atoms: C_18  and  N_19
REMARK                            x       y       z     vdW  Elec       q    Type
REMARK                         _______ _______ _______ _____ _____    ______ ____
ROOT
ATOM      1  O   UNL     1       2.210   9.100  17.542  0.00  0.00    +0.000 OA
ATOM      2  C   UNL     1       2.371   8.153  18.306  0.00  0.00    +0.000 C 
ATOM      3  N   UNL     1       1.877   8.103  19.596  0.00  0.00    +0.000 N 
ATOM      4  C   UNL     1       1.081   9.126  20.054  0.00  0.00    +0.000 A 
ATOM      5  N   UNL     1       0.501  10.060  19.349  0.00  0.00    +0.000 NA
ATOM      6  C   UNL     1      -0.173  10.937  20.171  0.00  0.00    +0.000 A 
ATOM      7  C   UNL     1      -0.898  12.069  19.743  0.00  0.00    +0.000 A 
ATOM      8  C   UNL     1      -1.519  12.893  20.685  0.00  0.00    +0.000 A 
ATOM      9  C   UNL     1      -1.414  12.594  22.035  0.00  0.00    +0.000 A 
ATOM     10  F   UNL     1      -2.007  13.400  22.926  0.00  0.00    +0.000 F 
ATOM     11  C   UNL     1      -0.713  11.475  22.492  0.00  0.00    +0.000 A 
ATOM     12  C   UNL     1      -0.100  10.647  21.536  0.00  0.00    +0.000 A 
ATOM     13  S   UNL     1       0.816   9.187  21.739  0.00  0.00    +0.000 S 
ATOM     14  H   UNL     1       2.185   7.386  20.234  0.00  0.00    +0.000 HD
ENDROOT
BRANCH   2  15
ATOM     15  C   UNL     1       3.177   7.018  17.877  0.00  0.00    +0.000 A 
ATOM     16  C   UNL     1       4.292   7.052  17.058  0.00  0.00    +0.000 A 
ATOM     17  C   UNL     1       4.682   5.724  16.828  0.00  0.00    +0.000 A 
ATOM     18  C   UNL     1       3.792   4.931  17.522  0.00  0.00    +0.000 A 
ATOM     19  O   UNL     1       2.877   5.712  18.193  0.00  0.00    +0.000 OA
BRANCH  18  20
ATOM     20  C   UNL     1       3.688   3.445  17.615  0.00  0.00    +0.000 C 
BRANCH  20  21
ATOM     21  N   UNL     1       2.945   3.080  18.816  0.00  0.00    +0.000 N 
ATOM     22  C   UNL     1       1.561   3.106  18.789  0.00  0.00    +0.000 A 
ATOM     23  C   UNL     1       0.841   2.869  19.892  0.00  0.00    +0.000 A 
ATOM     24  C   UNL     1       1.507   2.598  21.140  0.00  0.00    +0.000 A 
ATOM     25  C   UNL     1       2.843   2.541  21.201  0.00  0.00    +0.000 A 
ATOM     26  C   UNL     1       3.660   2.780  19.978  0.00  0.00    +0.000 A 
ATOM     27  O   UNL     1       4.885   2.716  20.054  0.00  0.00    +0.000 OA
ENDBRANCH  20  21
ENDBRANCH  18  20
ENDBRANCH   2  15
TORSDOF 3
ENDMDL
MODEL 3
REMARK VINA RESULT:      -8.3      2.358      4.211
REMARK  Name = 
REMARK  3 active torsions:
REMARK  status: ('A' for Active; 'I' for Inactive)
REMARK    1  A    between atoms: C_2  and  C_14
REMARK    2  A    between atoms: C_17  and  C_18
REMARK    3  A    between atoms: C_18  and  N_19
REMARK                            x       y       z     vdW  Elec       q    Type
REMARK                         _______ _______ _______ _____ _____    ______ ____
ROOT
ATOM      1  O   UNL     1       1.991   9.333  17.455  0.00  0.00    +0.000 OA
ATOM      2  C   UNL     1       2.210   8.452  18.281  0.00  0.00    +0.000 C 
ATOM      3  N   UNL     1       1.725   8.463  19.575  0.00  0.00    +0.000 N 
ATOM      4  C   UNL     1       0.872   9.467  19.968  0.00  0.00    +0.000 A 
ATOM      5  N   UNL     1       0.235  10.315  19.205  0.00  0.00    +0.000 NA
ATOM      6  C   UNL     1      -0.487  11.206  19.970  0.00  0.00    +0.000 A 
ATOM      7  C   UNL     1      -1.279  12.261  19.472  0.00  0.00    +0.000 A 
ATOM      8  C   UNL     1      -1.943  13.111  20.360  0.00  0.00    +0.000 A 
ATOM      9  C   UNL     1      -1.815  12.912  21.726  0.00  0.00    +0.000 A 
ATOM     10  F   UNL     1      -2.451  13.742  22.564  0.00  0.00    +0.000 F 
ATOM     11  C   UNL     1      -1.047  11.871  22.253  0.00  0.00    +0.000 A 
ATOM     12  C   UNL     1      -0.391  11.015  21.352  0.00  0.00    +0.000 A 
ATOM     13  S   UNL     1       0.610   9.629  21.647  0.00  0.00    +0.000 S 
ATOM     14  H   UNL     1       2.077   7.811  20.259  0.00  0.00    +0.000 HD
ENDROOT
BRANCH   2  15
ATOM     15  C   UNL     1       3.080   7.340  17.924  0.00  0.00    +0.000 A 
ATOM     16  C   UNL     1       4.225   7.394  17.149  0.00  0.00    +0.000 A 
ATOM     17  C   UNL     1       4.679   6.077  16.982  0.00  0.00    +0.000 A 
ATOM     18  C   UNL     1       3.795   5.270  17.668  0.00  0.00    +0.000 A 
ATOM     19  O   UNL     1       2.822   6.034  18.274  0.00  0.00    +0.000 OA
BRANCH  18  20
ATOM     20  C   UNL     1       3.749   3.785  17.809  0.00  0.00    +0.000 C 
BRANCH  20  21
ATOM     21  N   UNL     1       2.919   3.427  18.954  0.00  0.00    +0.000 N 
ATOM     22  C   UNL     1       3.516   3.234  20.188  0.00  0.00    +0.000 A 
ATOM     23  C   UNL     1       2.807   2.816  21.243  0.00  0.00    +0.000 A 
ATOM     24  C   UNL     1       1.400   2.542  21.101  0.00  0.00    +0.000 A 
ATOM     25  C   UNL     1       0.783   2.740  19.929  0.00  0.00    +0.000 A 
ATOM     26  C   UNL     1       1.552   3.227  18.750  0.00  0.00    +0.000 A 
ATOM     27  O   UNL     1       0.965   3.409  17.686  0.00  0.00    +0.000 OA
ENDBRANCH  20  21
ENDBRANCH  18  20
ENDBRANCH   2  15
TORSDOF 3
ENDMDL
MODEL 4
REMARK VINA RESULT:      -8.3      1.768      2.680
REMARK  Name = 
REMARK  3 active torsions:
REMARK  status: ('A' for Active; 'I' for Inactive)
REMARK    1  A    between atoms: C_2  and  C_14
REMARK    2  A    between atoms: C_17  and  C_18
REMARK    3  A    between atoms: C_18  and  N_19
REMARK                            x       y       z     vdW  Elec       q    Type
REMARK                         _______ _______ _______ _____ _____    ______ ____
ROOT
ATOM      1  O   UNL     1       2.029   8.297  19.289  0.00  0.00    +0.000 OA
ATOM      2  C   UNL     1       1.723   7.497  20.168  0.00  0.00    +0.000 C 
ATOM      3  N   UNL     1       0.948   7.811  21.269  0.00  0.00    +0.000 N 
ATOM      4  C   UNL     1       0.399   9.067  21.373  0.00  0.00    +0.000 A 
ATOM      5  N   UNL     1       0.298   9.971  20.435  0.00  0.00    +0.000 NA
ATOM      6  C   UNL     1      -0.265  11.125  20.936  0.00  0.00    +0.000 A 
ATOM      7  C   UNL     1      -0.508  12.305  20.202  0.00  0.00    +0.000 A 
ATOM      8  C   UNL     1      -1.065  13.417  20.838  0.00  0.00    +0.000 A 
ATOM      9  C   UNL     1      -1.371  13.353  22.189  0.00  0.00    +0.000 A 
ATOM     10  F   UNL     1      -1.896  14.432  22.786  0.00  0.00    +0.000 F 
ATOM     11  C   UNL     1      -1.153  12.198  22.943  0.00  0.00    +0.000 A 
ATOM     12  C   UNL     1      -0.602  11.082  22.292  0.00  0.00    +0.000 A 
ATOM     13  S   UNL     1      -0.224   9.501  22.901  0.00  0.00    +0.000 S 
ATOM     14  H   UNL     1       0.875   7.169  22.042  0.00  0.00    +0.000 HD
ENDROOT
BRANCH   2  15
ATOM     15  C   UNL     1       2.242   6.137  20.107  0.00  0.00    +0.000 A 
ATOM     16  C   UNL     1       1.673   5.004  20.661  0.00  0.00    +0.000 A 
ATOM     17  C   UNL     1       2.564   3.942  20.446  0.00  0.00    +0.000 A 
ATOM     18  C   UNL     1       3.640   4.468  19.761  0.00  0.00    +0.000 A 
ATOM     19  O   UNL     1       3.445   5.811  19.523  0.00  0.00    +0.000 OA
BRANCH  18  20
ATOM     20  C   UNL     1       4.904   3.822  19.300  0.00  0.00    +0.000 C 
BRANCH  20  21
ATOM     21  N   UNL     1       5.619   4.727  18.408  0.00  0.00    +0.000 N 
ATOM     22  C   UNL     1       5.221   4.828  17.086  0.00  0.00    +0.000 A 
ATOM     23  C   UNL     1       5.905   5.575  16.211  0.00  0.00    +0.000 A 
ATOM     24  C   UNL     1       7.088   6.279  16.636  0.00  0.00    +0.000 A 
ATOM     25  C   UNL     1       7.490   6.224  17.913  0.00  0.00    +0.000 A 
ATOM     26  C   UNL     1       6.728   5.415  18.905  0.00  0.00    +0.000 A 
ATOM     27  O   UNL     1       7.111   5.385  20.072  0.00  0.00    +0.000 OA
ENDBRANCH  20  21
ENDBRANCH  18  20
ENDBRANCH   2  15
TORSDOF 3
ENDMDL
MODEL 5
REMARK VINA RESULT:      -8.2      1.631      2.396
REMARK  Name = 
REMARK  3 active torsions:
REMARK  status: ('A' for Active; 'I' for Inactive)
REMARK    1  A    between atoms: C_2  and  C_14
REMARK    2  A    between atoms: C_17  and  C_18
REMARK    3  A    between atoms: C_18  and  N_19
REMARK                            x       y       z     vdW  Elec       q    Type
REMARK                         _______ _______ _______ _____ _____    ______ ____
ROOT
ATOM      1  O   UNL     1       1.680   9.001  19.050  0.00  0.00    +0.000 OA
ATOM      2  C   UNL     1       1.559   8.108  19.883  0.00  0.00    +0.000 C 
ATOM      3  N   UNL     1       0.867   8.244  21.072  0.00  0.00    +0.000 N 
ATOM      4  C   UNL     1       0.190   9.413  21.330  0.00  0.00    +0.000 A 
ATOM      5  N   UNL     1      -0.109  10.363  20.485  0.00  0.00    +0.000 NA
ATOM      6  C   UNL     1      -0.748  11.399  21.129  0.00  0.00    +0.000 A 
ATOM      7  C   UNL     1      -1.198  12.590  20.521  0.00  0.00    +0.000 A 
ATOM      8  C   UNL     1      -1.814  13.576  21.296  0.00  0.00    +0.000 A 
ATOM      9  C   UNL     1      -1.973  13.378  22.659  0.00  0.00    +0.000 A 
ATOM     10  F   UNL     1      -2.556  14.339  23.390  0.00  0.00    +0.000 F 
ATOM     11  C   UNL     1      -1.548  12.208  23.292  0.00  0.00    +0.000 A 
ATOM     12  C   UNL     1      -0.939  11.217  22.502  0.00  0.00    +0.000 A 
ATOM     13  S   UNL     1      -0.322   9.656  22.940  0.00  0.00    +0.000 S 
ATOM     14  H   UNL     1       0.947   7.544  21.793  0.00  0.00    +0.000 HD
ENDROOT
BRANCH   2  15
ATOM     15  C   UNL     1       2.223   6.831  19.662  0.00  0.00    +0.000 A 
ATOM     16  C   UNL     1       2.166   5.712  20.474  0.00  0.00    +0.000 A 
ATOM     17  C   UNL     1       3.036   4.756  19.929  0.00  0.00    +0.000 A 
ATOM     18  C   UNL     1       3.586   5.327  18.800  0.00  0.00    +0.000 A 
ATOM     19  O   UNL     1       3.076   6.592  18.608  0.00  0.00    +0.000 OA
BRANCH  18  20
ATOM     20  C   UNL     1       4.603   4.798  17.845  0.00  0.00    +0.000 C 
BRANCH  20  21
ATOM     21  N   UNL     1       5.855   5.529  18.008  0.00  0.00    +0.000 N 
ATOM     22  C   UNL     1       6.656   5.262  19.105  0.00  0.00    +0.000 A 
ATOM     23  C   UNL     1       7.765   5.971  19.343  0.00  0.00    +0.000 A 
ATOM     24  C   UNL     1       8.134   7.047  18.459  0.00  0.00    +0.000 A 
ATOM     25  C   UNL     1       7.397   7.320  17.374  0.00  0.00    +0.000 A 
ATOM     26  C   UNL     1       6.171   6.525  17.081  0.00  0.00    +0.000 A 
ATOM     27  O   UNL     1       5.514   6.787  16.077  0.00  0.00    +0.000 OA
ENDBRANCH  20  21
ENDBRANCH  18  20
ENDBRANCH   2  15
TORSDOF 3
ENDMDL
MODEL 6
REMARK VINA RESULT:      -8.2      2.852      4.785
REMARK  Name = 
REMARK  3 active torsions:
REMARK  status: ('A' for Active; 'I' for Inactive)
REMARK    1  A    between atoms: C_2  and  C_14
REMARK    2  A    between atoms: C_17  and  C_18
REMARK    3  A    between atoms: C_18  and  N_19
REMARK                            x       y       z     vdW  Elec       q    Type
REMARK                         _______ _______ _______ _____ _____    ______ ____
ROOT
ATOM      1  O   UNL     1       0.652  10.575  18.596  0.00  0.00    +0.000 OA
ATOM      2  C   UNL     1       0.915   9.672  19.384  0.00  0.00    +0.000 C 
ATOM      3  N   UNL     1       0.426   9.601  20.676  0.00  0.00    +0.000 N 
ATOM      4  C   UNL     1      -0.480  10.541  21.107  0.00  0.00    +0.000 A 
ATOM      5  N   UNL     1      -1.159  11.386  20.378  0.00  0.00    +0.000 NA
ATOM      6  C   UNL     1      -1.928  12.204  21.177  0.00  0.00    +0.000 A 
ATOM      7  C   UNL     1      -2.773  13.237  20.720  0.00  0.00    +0.000 A 
ATOM      8  C   UNL     1      -3.484  14.011  21.641  0.00  0.00    +0.000 A 
ATOM      9  C   UNL     1      -3.349  13.760  22.998  0.00  0.00    +0.000 A 
ATOM     10  F   UNL     1      -4.030  14.519  23.868  0.00  0.00    +0.000 F 
ATOM     11  C   UNL     1      -2.529  12.739  23.484  0.00  0.00    +0.000 A 
ATOM     12  C   UNL     1      -1.826  11.959  22.549  0.00  0.00    +0.000 A 
ATOM     13  S   UNL     1      -0.754  10.616  22.790  0.00  0.00    +0.000 S 
ATOM     14  H   UNL     1       0.810   8.940  21.332  0.00  0.00    +0.000 HD
ENDROOT
BRANCH   2  15
ATOM     15  C   UNL     1       1.843   8.623  18.984  0.00  0.00    +0.000 A 
ATOM     16  C   UNL     1       2.422   8.454  17.739  0.00  0.00    +0.000 A 
ATOM     17  C   UNL     1       3.160   7.262  17.779  0.00  0.00    +0.000 A 
ATOM     18  C   UNL     1       3.007   6.752  19.052  0.00  0.00    +0.000 A 
ATOM     19  O   UNL     1       2.222   7.591  19.812  0.00  0.00    +0.000 OA
BRANCH  18  20
ATOM     20  C   UNL     1       3.527   5.491  19.659  0.00  0.00    +0.000 C 
BRANCH  20  21
ATOM     21  N   UNL     1       2.659   4.377  19.292  0.00  0.00    +0.000 N 
ATOM     22  C   UNL     1       1.502   4.155  20.020  0.00  0.00    +0.000 A 
ATOM     23  C   UNL     1       0.725   3.093  19.777  0.00  0.00    +0.000 A 
ATOM     24  C   UNL     1       1.097   2.147  18.757  0.00  0.00    +0.000 A 
ATOM     25  C   UNL     1       2.196   2.341  18.017  0.00  0.00    +0.000 A 
ATOM     26  C   UNL     1       3.061   3.531  18.257  0.00  0.00    +0.000 A 
ATOM     27  O   UNL     1       4.061   3.694  17.562  0.00  0.00    +0.000 OA
ENDBRANCH  20  21
ENDBRANCH  18  20
ENDBRANCH   2  15
TORSDOF 3
ENDMDL
MODEL 7
REMARK VINA RESULT:      -8.1      4.215      9.748
REMARK  Name = 
REMARK  3 active torsions:
REMARK  status: ('A' for Active; 'I' for Inactive)
REMARK    1  A    between atoms: C_2  and  C_14
REMARK    2  A    between atoms: C_17  and  C_18
REMARK    3  A    between atoms: C_18  and  N_19
REMARK                            x       y       z     vdW  Elec       q    Type
REMARK                         _______ _______ _______ _____ _____    ______ ____
ROOT
ATOM      1  O   UNL     1       1.549   9.369  19.098  0.00  0.00    +0.000 OA
ATOM      2  C   UNL     1       1.398   8.795  20.173  0.00  0.00    +0.000 C 
ATOM      3  N   UNL     1       1.884   7.531  20.452  0.00  0.00    +0.000 N 
ATOM      4  C   UNL     1       2.660   6.884  19.520  0.00  0.00    +0.000 A 
ATOM      5  N   UNL     1       3.230   7.399  18.463  0.00  0.00    +0.000 NA
ATOM      6  C   UNL     1       3.884   6.423  17.743  0.00  0.00    +0.000 A 
ATOM      7  C   UNL     1       4.593   6.627  16.541  0.00  0.00    +0.000 A 
ATOM      8  C   UNL     1       5.193   5.543  15.896  0.00  0.00    +0.000 A 
ATOM      9  C   UNL     1       5.084   4.273  16.441  0.00  0.00    +0.000 A 
ATOM     10  F   UNL     1       5.657   3.242  15.804  0.00  0.00    +0.000 F 
ATOM     11  C   UNL     1       4.398   4.037  17.635  0.00  0.00    +0.000 A 
ATOM     12  C   UNL     1       3.806   5.135  18.281  0.00  0.00    +0.000 A 
ATOM     13  S   UNL     1       2.913   5.214  19.767  0.00  0.00    +0.000 S 
ATOM     14  H   UNL     1       1.584   7.040  21.279  0.00  0.00    +0.000 HD
ENDROOT
BRANCH   2  15
ATOM     15  C   UNL     1       0.614   9.434  21.220  0.00  0.00    +0.000 A 
ATOM     16  C   UNL     1       0.001   8.815  22.295  0.00  0.00    +0.000 A 
ATOM     17  C   UNL     1      -0.727   9.798  22.983  0.00  0.00    +0.000 A 
ATOM     18  C   UNL     1      -0.523  10.981  22.303  0.00  0.00    +0.000 A 
ATOM     19  O   UNL     1       0.319  10.779  21.233  0.00  0.00    +0.000 OA
BRANCH  18  20
ATOM     20  C   UNL     1      -1.076  12.346  22.548  0.00  0.00    +0.000 C 
BRANCH  20  21
ATOM     21  N   UNL     1      -2.412  12.444  21.969  0.00  0.00    +0.000 N 
ATOM     22  C   UNL     1      -2.548  12.536  20.595  0.00  0.00    +0.000 A 
ATOM     23  C   UNL     1      -3.745  12.719  20.028  0.00  0.00    +0.000 A 
ATOM     24  C   UNL     1      -4.920  12.844  20.852  0.00  0.00    +0.000 A 
ATOM     25  C   UNL     1      -4.831  12.738  22.184  0.00  0.00    +0.000 A 
ATOM     26  C   UNL     1      -3.508  12.510  22.831  0.00  0.00    +0.000 A 
ATOM     27  O   UNL     1      -3.451  12.408  24.054  0.00  0.00    +0.000 OA
ENDBRANCH  20  21
ENDBRANCH  18  20
ENDBRANCH   2  15
TORSDOF 3
ENDMDL
MODEL 8
REMARK VINA RESULT:      -8.0      2.313      3.089
REMARK  Name = 
REMARK  3 active torsions:
REMARK  status: ('A' for Active; 'I' for Inactive)
REMARK    1  A    between atoms: C_2  and  C_14
REMARK    2  A    between atoms: C_17  and  C_18
REMARK    3  A    between atoms: C_18  and  N_19
REMARK                            x       y       z     vdW  Elec       q    Type
REMARK                         _______ _______ _______ _____ _____    ______ ____
ROOT
ATOM      1  O   UNL     1       2.754   5.637  19.692  0.00  0.00    +0.000 OA
ATOM      2  C   UNL     1       3.155   6.152  18.653  0.00  0.00    +0.000 C 
ATOM      3  N   UNL     1       2.799   7.418  18.225  0.00  0.00    +0.000 N 
ATOM      4  C   UNL     1       2.015   8.208  19.032  0.00  0.00    +0.000 A 
ATOM      5  N   UNL     1       1.741   8.029  20.297  0.00  0.00    +0.000 NA
ATOM      6  C   UNL     1       0.879   9.005  20.747  0.00  0.00    +0.000 A 
ATOM      7  C   UNL     1       0.367   9.107  22.058  0.00  0.00    +0.000 A 
ATOM      8  C   UNL     1      -0.522  10.136  22.379  0.00  0.00    +0.000 A 
ATOM      9  C   UNL     1      -0.898  11.048  21.404  0.00  0.00    +0.000 A 
ATOM     10  F   UNL     1      -1.759  12.023  21.726  0.00  0.00    +0.000 F 
ATOM     11  C   UNL     1      -0.402  10.983  20.099  0.00  0.00    +0.000 A 
ATOM     12  C   UNL     1       0.499   9.950  19.789  0.00  0.00    +0.000 A 
ATOM     13  S   UNL     1       1.318   9.584  18.303  0.00  0.00    +0.000 S 
ATOM     14  H   UNL     1       3.014   7.720  17.288  0.00  0.00    +0.000 HD
ENDROOT
BRANCH   2  15
ATOM     15  C   UNL     1       4.016   5.386  17.763  0.00  0.00    +0.000 A 
ATOM     16  C   UNL     1       3.963   4.024  17.522  0.00  0.00    +0.000 A 
ATOM     17  C   UNL     1       5.041   3.706  16.683  0.00  0.00    +0.000 A 
ATOM     18  C   UNL     1       5.706   4.889  16.438  0.00  0.00    +0.000 A 
ATOM     19  O   UNL     1       5.074   5.934  17.073  0.00  0.00    +0.000 OA
BRANCH  18  20
ATOM     20  C   UNL     1       6.945   5.158  15.649  0.00  0.00    +0.000 C 
BRANCH  20  21
ATOM     21  N   UNL     1       6.751   4.723  14.270  0.00  0.00    +0.000 N 
ATOM     22  C   UNL     1       5.702   3.870  13.971  0.00  0.00    +0.000 A 
ATOM     23  C   UNL     1       5.541   3.375  12.739  0.00  0.00    +0.000 A 
ATOM     24  C   UNL     1       6.480   3.712  11.700  0.00  0.00    +0.000 A 
ATOM     25  C   UNL     1       7.493   4.553  11.945  0.00  0.00    +0.000 A 
ATOM     26  C   UNL     1       7.674   5.133  13.305  0.00  0.00    +0.000 A 
ATOM     27  O   UNL     1       8.606   5.907  13.506  0.00  0.00    +0.000 OA
ENDBRANCH  20  21
ENDBRANCH  18  20
ENDBRANCH   2  15
TORSDOF 3
ENDMDL
MODEL 9
REMARK VINA RESULT:      -8.0      3.023      4.573
REMARK  Name = 
REMARK  3 active torsions:
REMARK  status: ('A' for Active; 'I' for Inactive)
REMARK    1  A    between atoms: C_2  and  C_14
REMARK    2  A    between atoms: C_17  and  C_18
REMARK    3  A    between atoms: C_18  and  N_19
REMARK                            x       y       z     vdW  Elec       q    Type
REMARK                         _______ _______ _______ _____ _____    ______ ____
ROOT
ATOM      1  O   UNL     1       0.819   8.814  21.186  0.00  0.00    +0.000 OA
ATOM      2  C   UNL     1       0.968   9.153  20.016  0.00  0.00    +0.000 C 
ATOM      3  N   UNL     1       0.288  10.199  19.418  0.00  0.00    +0.000 N 
ATOM      4  C   UNL     1      -0.551  10.980  20.177  0.00  0.00    +0.000 A 
ATOM      5  N   UNL     1      -0.625  11.036  21.480  0.00  0.00    +0.000 NA
ATOM      6  C   UNL     1      -1.624  11.901  21.870  0.00  0.00    +0.000 A 
ATOM      7  C   UNL     1      -1.986  12.189  23.203  0.00  0.00    +0.000 A 
ATOM      8  C   UNL     1      -3.038  13.071  23.462  0.00  0.00    +0.000 A 
ATOM      9  C   UNL     1      -3.723  13.652  22.406  0.00  0.00    +0.000 A 
ATOM     10  F   UNL     1      -4.736  14.488  22.672  0.00  0.00    +0.000 F 
ATOM     11  C   UNL     1      -3.385  13.397  21.075  0.00  0.00    +0.000 A 
ATOM     12  C   UNL     1      -2.318  12.517  20.824  0.00  0.00    +0.000 A 
ATOM     13  S   UNL     1      -1.622  11.998  19.322  0.00  0.00    +0.000 S 
ATOM     14  H   UNL     1       0.316  10.322  18.419  0.00  0.00    +0.000 HD
ENDROOT
BRANCH   2  15
ATOM     15  C   UNL     1       1.866   8.391  19.160  0.00  0.00    +0.000 A 
ATOM     16  C   UNL     1       2.381   8.782  17.937  0.00  0.00    +0.000 A 
ATOM     17  C   UNL     1       3.110   7.698  17.425  0.00  0.00    +0.000 A 
ATOM     18  C   UNL     1       3.016   6.688  18.360  0.00  0.00    +0.000 A 
ATOM     19  O   UNL     1       2.277   7.108  19.444  0.00  0.00    +0.000 OA
BRANCH  18  20
ATOM     20  C   UNL     1       3.555   5.296  18.340  0.00  0.00    +0.000 C 
BRANCH  20  21
ATOM     21  N   UNL     1       2.708   4.432  19.155  0.00  0.00    +0.000 N 
ATOM     22  C   UNL     1       3.062   4.183  20.470  0.00  0.00    +0.000 A 
ATOM     23  C   UNL     1       2.366   3.325  21.225  0.00  0.00    +0.000 A 
ATOM     24  C   UNL     1       1.236   2.629  20.667  0.00  0.00    +0.000 A 
ATOM     25  C   UNL     1       0.849   2.861  19.406  0.00  0.00    +0.000 A 
ATOM     26  C   UNL     1       1.598   3.830  18.558  0.00  0.00    +0.000 A 
ATOM     27  O   UNL     1       1.221   4.034  17.406  0.00  0.00    +0.000 OA
ENDBRANCH  20  21
ENDBRANCH  18  20
ENDBRANCH   2  15
TORSDOF 3
ENDMDL
