MODEL 1
REMARK VINA RESULT:      -8.5      0.000      0.000
REMARK  Name = 
REMARK  8 active torsions:
REMARK  status: ('A' for Active; 'I' for Inactive)
REMARK    1  A    between atoms: C_2  and  C_3
REMARK    2  A    between atoms: N_5  and  C_6
REMARK    3  A    between atoms: C_13  and  C_14
REMARK    4  A    between atoms: N_20  and  C_21
REMARK    5  A    between atoms: N_20  and  C_24
REMARK    6  A    between atoms: C_21  and  C_22
REMARK    7  A    between atoms: C_22  and  O_23
REMARK    8  A    between atoms: C_24  and  C_25
REMARK                            x       y       z     vdW  Elec       q    Type
REMARK                         _______ _______ _______ _____ _____    ______ ____
ROOT
ATOM      1  C   UNL     1       3.763   6.596  17.555  0.00  0.00    +0.000 A 
ATOM      2  C   UNL     1       3.302   7.844  17.945  0.00  0.00    +0.000 A 
ATOM      3  N   UNL     1       2.340   7.659  18.908  0.00  0.00    +0.000 N 
ATOM      4  N   UNL     1       2.127   6.347  19.132  0.00  0.00    +0.000 NA
ATOM      5  C   UNL     1       3.023   5.693  18.382  0.00  0.00    +0.000 A 
ENDROOT
BRANCH   3   6
ATOM      6  C   UNL     1       1.603   8.646  19.628  0.00  0.00    +0.000 A 
ATOM      7  C   UNL     1       1.141   9.812  19.001  0.00  0.00    +0.000 A 
ATOM      8  C   UNL     1       0.420  10.756  19.736  0.00  0.00    +0.000 A 
ATOM      9  C   UNL     1       0.158  10.546  21.089  0.00  0.00    +0.000 A 
ATOM     10  C   UNL     1       0.618   9.391  21.717  0.00  0.00    +0.000 A 
ATOM     11  C   UNL     1       1.337   8.441  20.991  0.00  0.00    +0.000 A 
ENDBRANCH   3   6
BRANCH   5  12
ATOM     12  C   UNL     1       3.078   4.236  18.492  0.00  0.00    +0.000 A 
ATOM     13  C   UNL     1       2.778   3.434  17.382  0.00  0.00    +0.000 A 
ATOM     14  C   UNL     1       2.945   2.054  17.453  0.00  0.00    +0.000 A 
ATOM     15  C   UNL     1       3.417   1.516  18.638  0.00  0.00    +0.000 A 
ATOM     16  N   UNL     1       3.708   2.251  19.734  0.00  0.00    +0.000 NA
ATOM     17  C   UNL     1       3.508   3.590  19.644  0.00  0.00    +0.000 A 
ENDBRANCH   5  12
BRANCH   1  19
ATOM     18  O   UNL     1       4.685   6.918  15.468  0.00  0.00    +0.000 OA
ATOM     19  C   UNL     1       4.856   6.451  16.595  0.00  0.00    +0.000 C 
ATOM     20  N   UNL     1       6.052   5.793  16.926  0.00  0.00    +0.000 N 
BRANCH  20  21
ATOM     21  C   UNL     1       6.378   5.196  18.229  0.00  0.00    +0.000 C 
BRANCH  21  22
ATOM     22  C   UNL     1       7.764   5.448  18.809  0.00  0.00    +0.000 C 
BRANCH  22  23
ATOM     23  O   UNL     1       7.737   5.449  20.232  0.00  0.00    +0.000 OA
ATOM     24  H   UNL     1       7.364   6.298  20.525  0.00  0.00    +0.000 HD
ENDBRANCH  22  23
ENDBRANCH  21  22
ENDBRANCH  20  21
BRANCH  20  25
ATOM     25  C   UNL     1       7.145   5.901  15.952  0.00  0.00    +0.000 C 
BRANCH  25  26
ATOM     26  C   UNL     1       7.005   5.067  14.698  0.00  0.00    +0.000 A 
ATOM     27  C   UNL     1       6.028   4.067  14.590  0.00  0.00    +0.000 A 
ATOM     28  C   UNL     1       5.823   3.393  13.381  0.00  0.00    +0.000 A 
ATOM     29  C   UNL     1       6.593   3.709  12.265  0.00  0.00    +0.000 A 
ATOM     30  C   UNL     1       7.577   4.691  12.359  0.00  0.00    +0.000 A 
ATOM     31  C   UNL     1       7.779   5.366  13.565  0.00  0.00    +0.000 A 
ENDBRANCH  25  26
ENDBRANCH  20  25
ENDBRANCH   1  19
TORSDOF 8
ENDMDL
MODEL 2
REMARK VINA RESULT:      -8.3      0.563      1.046
REMARK  Name = 
REMARK  8 active torsions:
REMARK  status: ('A' for Active; 'I' for Inactive)
REMARK    1  A    between atoms: C_2  and  C_3
REMARK    2  A    between atoms: N_5  and  C_6
REMARK    3  A    between atoms: C_13  and  C_14
REMARK    4  A    between atoms: N_20  and  C_21
REMARK    5  A    between atoms: N_20  and  C_24
REMARK    6  A    between atoms: C_21  and  C_22
REMARK    7  A    between atoms: C_22  and  O_23
REMARK    8  A    between atoms: C_24  and  C_25
REMARK                            x       y       z     vdW  Elec       q    Type
REMARK                         _______ _______ _______ _____ _____    ______ ____
ROOT
ATOM      1  C   UNL     1       3.754   6.636  17.432  0.00  0.00    +0.000 A 
ATOM      2  C   UNL     1       3.288   7.886  17.811  0.00  0.00    +0.000 A 
ATOM      3  N   UNL     1       2.342   7.707  18.791  0.00  0.00    +0.000 N 
ATOM      4  N   UNL     1       2.144   6.397  19.037  0.00  0.00    +0.000 NA
ATOM      5  C   UNL     1       3.034   5.739  18.284  0.00  0.00    +0.000 A 
ENDROOT
BRANCH   3   6
ATOM      6  C   UNL     1       1.608   8.699  19.506  0.00  0.00    +0.000 A 
ATOM      7  C   UNL     1       1.254   8.516  20.850  0.00  0.00    +0.000 A 
ATOM      8  C   UNL     1       0.536   9.509  21.522  0.00  0.00    +0.000 A 
ATOM      9  C   UNL     1       0.170  10.681  20.862  0.00  0.00    +0.000 A 
ATOM     10  C   UNL     1       0.517  10.866  19.526  0.00  0.00    +0.000 A 
ATOM     11  C   UNL     1       1.235   9.881  18.848  0.00  0.00    +0.000 A 
ENDBRANCH   3   6
BRANCH   5  12
ATOM     12  C   UNL     1       3.104   4.284  18.414  0.00  0.00    +0.000 A 
ATOM     13  C   UNL     1       2.874   3.465  17.300  0.00  0.00    +0.000 A 
ATOM     14  C   UNL     1       3.056   2.089  17.397  0.00  0.00    +0.000 A 
ATOM     15  C   UNL     1       3.473   1.571  18.611  0.00  0.00    +0.000 A 
ATOM     16  N   UNL     1       3.695   2.323  19.712  0.00  0.00    +0.000 NA
ATOM     17  C   UNL     1       3.482   3.658  19.595  0.00  0.00    +0.000 A 
ENDBRANCH   5  12
BRANCH   1  19
ATOM     18  O   UNL     1       4.682   7.017  15.358  0.00  0.00    +0.000 OA
ATOM     19  C   UNL     1       4.835   6.486  16.459  0.00  0.00    +0.000 C 
ATOM     20  N   UNL     1       5.998   5.755  16.748  0.00  0.00    +0.000 N 
BRANCH  20  21
ATOM     21  C   UNL     1       6.300   5.078  18.017  0.00  0.00    +0.000 C 
BRANCH  21  22
ATOM     22  C   UNL     1       7.752   5.024  18.477  0.00  0.00    +0.000 C 
BRANCH  22  23
ATOM     23  O   UNL     1       8.452   3.951  17.858  0.00  0.00    +0.000 OA
ATOM     24  H   UNL     1       8.163   3.898  16.931  0.00  0.00    +0.000 HD
ENDBRANCH  22  23
ENDBRANCH  21  22
ENDBRANCH  20  21
BRANCH  20  25
ATOM     25  C   UNL     1       7.091   5.857  15.774  0.00  0.00    +0.000 C 
BRANCH  25  26
ATOM     26  C   UNL     1       6.955   5.010  14.528  0.00  0.00    +0.000 A 
ATOM     27  C   UNL     1       6.009   3.978  14.445  0.00  0.00    +0.000 A 
ATOM     28  C   UNL     1       5.804   3.289  13.245  0.00  0.00    +0.000 A 
ATOM     29  C   UNL     1       6.542   3.621  12.113  0.00  0.00    +0.000 A 
ATOM     30  C   UNL     1       7.495   4.635  12.181  0.00  0.00    +0.000 A 
ATOM     31  C   UNL     1       7.698   5.326  13.378  0.00  0.00    +0.000 A 
ENDBRANCH  25  26
ENDBRANCH  20  25
ENDBRANCH   1  19
TORSDOF 8
ENDMDL
MODEL 3
REMARK VINA RESULT:      -8.3      0.578      1.280
REMARK  Name = 
REMARK  8 active torsions:
REMARK  status: ('A' for Active; 'I' for Inactive)
REMARK    1  A    between atoms: C_2  and  C_3
REMARK    2  A    between atoms: N_5  and  C_6
REMARK    3  A    between atoms: C_13  and  C_14
REMARK    4  A    between atoms: N_20  and  C_21
REMARK    5  A    between atoms: N_20  and  C_24
REMARK    6  A    between atoms: C_21  and  C_22
REMARK    7  A    between atoms: C_22  and  O_23
REMARK    8  A    between atoms: C_24  and  C_25
REMARK                            x       y       z     vdW  Elec       q    Type
REMARK                         _______ _______ _______ _____ _____    ______ ____
ROOT
ATOM      1  C   UNL     1       3.881   6.618  17.377  0.00  0.00    +0.000 A 
ATOM      2  C   UNL     1       3.405   7.886  17.674  0.00  0.00    +0.000 A 
ATOM      3  N   UNL     1       2.426   7.759  18.628  0.00  0.00    +0.000 N 
ATOM      4  N   UNL     1       2.217   6.464  18.936  0.00  0.00    +0.000 NA
ATOM      5  C   UNL     1       3.130   5.767  18.249  0.00  0.00    +0.000 A 
ENDROOT
BRANCH   3   6
ATOM      6  C   UNL     1       1.670   8.787  19.266  0.00  0.00    +0.000 A 
ATOM      7  C   UNL     1       1.243   8.661  20.595  0.00  0.00    +0.000 A 
ATOM      8  C   UNL     1       0.506   9.689  21.189  0.00  0.00    +0.000 A 
ATOM      9  C   UNL     1       0.194  10.840  20.467  0.00  0.00    +0.000 A 
ATOM     10  C   UNL     1       0.615  10.969  19.146  0.00  0.00    +0.000 A 
ATOM     11  C   UNL     1       1.352   9.949  18.544  0.00  0.00    +0.000 A 
ENDBRANCH   3   6
BRANCH   5  12
ATOM     12  C   UNL     1       3.191   4.321  18.458  0.00  0.00    +0.000 A 
ATOM     13  C   UNL     1       3.387   3.803  19.745  0.00  0.00    +0.000 A 
ATOM     14  C   UNL     1       3.327   2.429  19.961  0.00  0.00    +0.000 A 
ATOM     15  C   UNL     1       3.064   1.611  18.876  0.00  0.00    +0.000 A 
ATOM     16  N   UNL     1       2.881   2.068  17.617  0.00  0.00    +0.000 NA
ATOM     17  C   UNL     1       2.973   3.409  17.433  0.00  0.00    +0.000 A 
ENDBRANCH   5  12
BRANCH   1  19
ATOM     18  O   UNL     1       4.858   6.843  15.302  0.00  0.00    +0.000 OA
ATOM     19  C   UNL     1       4.993   6.416  16.449  0.00  0.00    +0.000 C 
ATOM     20  N   UNL     1       6.168   5.749  16.834  0.00  0.00    +0.000 N 
BRANCH  20  21
ATOM     21  C   UNL     1       6.452   5.196  18.166  0.00  0.00    +0.000 C 
BRANCH  21  22
ATOM     22  C   UNL     1       7.719   5.650  18.879  0.00  0.00    +0.000 C 
BRANCH  22  23
ATOM     23  O   UNL     1       7.636   5.421  20.281  0.00  0.00    +0.000 OA
ATOM     24  H   UNL     1       8.189   4.651  20.494  0.00  0.00    +0.000 HD
ENDBRANCH  22  23
ENDBRANCH  21  22
ENDBRANCH  20  21
BRANCH  20  25
ATOM     25  C   UNL     1       7.285   5.799  15.884  0.00  0.00    +0.000 C 
BRANCH  25  26
ATOM     26  C   UNL     1       7.110   5.008  14.607  0.00  0.00    +0.000 A 
ATOM     27  C   UNL     1       6.214   3.932  14.529  0.00  0.00    +0.000 A 
ATOM     28  C   UNL     1       5.965   3.293  13.310  0.00  0.00    +0.000 A 
ATOM     29  C   UNL     1       6.610   3.720  12.152  0.00  0.00    +0.000 A 
ATOM     30  C   UNL     1       7.513   4.778  12.214  0.00  0.00    +0.000 A 
ATOM     31  C   UNL     1       7.760   5.419  13.430  0.00  0.00    +0.000 A 
ENDBRANCH  25  26
ENDBRANCH  20  25
ENDBRANCH   1  19
TORSDOF 8
ENDMDL
MODEL 4
REMARK VINA RESULT:      -8.3      0.258      1.271
REMARK  Name = 
REMARK  8 active torsions:
REMARK  status: ('A' for Active; 'I' for Inactive)
REMARK    1  A    between atoms: C_2  and  C_3
REMARK    2  A    between atoms: N_5  and  C_6
REMARK    3  A    between atoms: C_13  and  C_14
REMARK    4  A    between atoms: N_20  and  C_21
REMARK    5  A    between atoms: N_20  and  C_24
REMARK    6  A    between atoms: C_21  and  C_22
REMARK    7  A    between atoms: C_22  and  O_23
REMARK    8  A    between atoms: C_24  and  C_25
REMARK                            x       y       z     vdW  Elec       q    Type
REMARK                         _______ _______ _______ _____ _____    ______ ____
ROOT
ATOM      1  C   UNL     1       3.887   6.507  17.451  0.00  0.00    +0.000 A 
ATOM      2  C   UNL     1       3.411   7.762  17.803  0.00  0.00    +0.000 A 
ATOM      3  N   UNL     1       2.474   7.597  18.794  0.00  0.00    +0.000 N 
ATOM      4  N   UNL     1       2.292   6.291  19.074  0.00  0.00    +0.000 NA
ATOM      5  C   UNL     1       3.183   5.624  18.330  0.00  0.00    +0.000 A 
ENDROOT
BRANCH   3   6
ATOM      6  C   UNL     1       1.735   8.599  19.491  0.00  0.00    +0.000 A 
ATOM      7  C   UNL     1       1.382   8.439  20.838  0.00  0.00    +0.000 A 
ATOM      8  C   UNL     1       0.660   9.442  21.491  0.00  0.00    +0.000 A 
ATOM      9  C   UNL     1       0.289  10.600  20.809  0.00  0.00    +0.000 A 
ATOM     10  C   UNL     1       0.635  10.761  19.470  0.00  0.00    +0.000 A 
ATOM     11  C   UNL     1       1.357   9.767  18.810  0.00  0.00    +0.000 A 
ENDBRANCH   3   6
BRANCH   5  12
ATOM     12  C   UNL     1       3.268   4.174  18.496  0.00  0.00    +0.000 A 
ATOM     13  C   UNL     1       3.008   3.324  17.412  0.00  0.00    +0.000 A 
ATOM     14  C   UNL     1       3.204   1.953  17.538  0.00  0.00    +0.000 A 
ATOM     15  C   UNL     1       3.665   1.470  18.750  0.00  0.00    +0.000 A 
ATOM     16  N   UNL     1       3.918   2.252  19.824  0.00  0.00    +0.000 NA
ATOM     17  C   UNL     1       3.690   3.582  19.679  0.00  0.00    +0.000 A 
ENDBRANCH   5  12
BRANCH   1  19
ATOM     18  O   UNL     1       4.782   6.821  15.351  0.00  0.00    +0.000 OA
ATOM     19  C   UNL     1       4.961   6.344  16.473  0.00  0.00    +0.000 C 
ATOM     20  N   UNL     1       6.147   5.659  16.781  0.00  0.00    +0.000 N 
BRANCH  20  21
ATOM     21  C   UNL     1       6.481   5.048  18.075  0.00  0.00    +0.000 C 
BRANCH  21  22
ATOM     22  C   UNL     1       7.389   5.821  19.024  0.00  0.00    +0.000 C 
BRANCH  22  23
ATOM     23  O   UNL     1       7.507   5.162  20.279  0.00  0.00    +0.000 OA
ATOM     24  H   UNL     1       8.083   4.387  20.160  0.00  0.00    +0.000 HD
ENDBRANCH  22  23
ENDBRANCH  21  22
ENDBRANCH  20  21
BRANCH  20  25
ATOM     25  C   UNL     1       7.226   5.748  15.790  0.00  0.00    +0.000 C 
BRANCH  25  26
ATOM     26  C   UNL     1       6.978   5.055  14.469  0.00  0.00    +0.000 A 
ATOM     27  C   UNL     1       7.699   5.397  13.316  0.00  0.00    +0.000 A 
ATOM     28  C   UNL     1       7.553   4.662  12.135  0.00  0.00    +0.000 A 
ATOM     29  C   UNL     1       6.683   3.576  12.090  0.00  0.00    +0.000 A 
ATOM     30  C   UNL     1       5.949   3.230  13.223  0.00  0.00    +0.000 A 
ATOM     31  C   UNL     1       6.097   3.962  14.403  0.00  0.00    +0.000 A 
ENDBRANCH  25  26
ENDBRANCH  20  25
ENDBRANCH   1  19
TORSDOF 8
ENDMDL
MODEL 5
REMARK VINA RESULT:      -8.1      4.292      7.739
REMARK  Name = 
REMARK  8 active torsions:
REMARK  status: ('A' for Active; 'I' for Inactive)
REMARK    1  A    between atoms: C_2  and  C_3
REMARK    2  A    between atoms: N_5  and  C_6
REMARK    3  A    between atoms: C_13  and  C_14
REMARK    4  A    between atoms: N_20  and  C_21
REMARK    5  A    between atoms: N_20  and  C_24
REMARK    6  A    between atoms: C_21  and  C_22
REMARK    7  A    between atoms: C_22  and  O_23
REMARK    8  A    between atoms: C_24  and  C_25
REMARK                            x       y       z     vdW  Elec       q    Type
REMARK                         _______ _______ _______ _____ _____    ______ ____
ROOT
ATOM      1  C   UNL     1       0.279  10.363  18.778  0.00  0.00    +0.000 A 
ATOM      2  C   UNL     1      -1.076  10.175  18.551  0.00  0.00    +0.000 A 
ATOM      3  N   UNL     1      -1.696  11.397  18.649  0.00  0.00    +0.000 N 
ATOM      4  N   UNL     1      -0.811  12.363  18.969  0.00  0.00    +0.000 NA
ATOM      5  C   UNL     1       0.392  11.776  18.980  0.00  0.00    +0.000 A 
ENDROOT
BRANCH   3   6
ATOM      6  C   UNL     1      -3.075  11.709  18.465  0.00  0.00    +0.000 A 
ATOM      7  C   UNL     1      -3.840  12.273  19.496  0.00  0.00    +0.000 A 
ATOM      8  C   UNL     1      -5.188  12.569  19.279  0.00  0.00    +0.000 A 
ATOM      9  C   UNL     1      -5.777  12.306  18.043  0.00  0.00    +0.000 A 
ATOM     10  C   UNL     1      -5.022  11.744  17.017  0.00  0.00    +0.000 A 
ATOM     11  C   UNL     1      -3.675  11.447  17.223  0.00  0.00    +0.000 A 
ENDBRANCH   3   6
BRANCH   5  12
ATOM     12  C   UNL     1       1.564  12.616  19.218  0.00  0.00    +0.000 A 
ATOM     13  C   UNL     1       2.320  13.093  18.138  0.00  0.00    +0.000 A 
ATOM     14  C   UNL     1       3.364  13.987  18.358  0.00  0.00    +0.000 A 
ATOM     15  C   UNL     1       3.617  14.384  19.659  0.00  0.00    +0.000 A 
ATOM     16  N   UNL     1       2.920  13.940  20.730  0.00  0.00    +0.000 NA
ATOM     17  C   UNL     1       1.927  13.048  20.487  0.00  0.00    +0.000 A 
ENDBRANCH   5  12
BRANCH   1  19
ATOM     18  O   UNL     1       1.843   9.148  17.600  0.00  0.00    +0.000 OA
ATOM     19  C   UNL     1       1.233   9.261  18.664  0.00  0.00    +0.000 C 
ATOM     20  N   UNL     1       1.445   8.352  19.713  0.00  0.00    +0.000 N 
BRANCH  20  21
ATOM     21  C   UNL     1       0.786   8.377  21.026  0.00  0.00    +0.000 C 
BRANCH  21  22
ATOM     22  C   UNL     1       1.399   9.240  22.123  0.00  0.00    +0.000 C 
BRANCH  22  23
ATOM     23  O   UNL     1       0.585  10.372  22.406  0.00  0.00    +0.000 OA
ATOM     24  H   UNL     1      -0.338  10.072  22.470  0.00  0.00    +0.000 HD
ENDBRANCH  22  23
ENDBRANCH  21  22
ENDBRANCH  20  21
BRANCH  20  25
ATOM     25  C   UNL     1       2.574   7.427  19.555  0.00  0.00    +0.000 C 
BRANCH  25  26
ATOM     26  C   UNL     1       2.220   5.971  19.350  0.00  0.00    +0.000 A 
ATOM     27  C   UNL     1       1.789   5.166  20.415  0.00  0.00    +0.000 A 
ATOM     28  C   UNL     1       1.340   3.861  20.190  0.00  0.00    +0.000 A 
ATOM     29  C   UNL     1       1.318   3.341  18.899  0.00  0.00    +0.000 A 
ATOM     30  C   UNL     1       1.754   4.123  17.831  0.00  0.00    +0.000 A 
ATOM     31  C   UNL     1       2.200   5.427  18.054  0.00  0.00    +0.000 A 
ENDBRANCH  25  26
ENDBRANCH  20  25
ENDBRANCH   1  19
TORSDOF 8
ENDMDL
MODEL 6
REMARK VINA RESULT:      -7.9      1.769      2.654
REMARK  Name = 
REMARK  8 active torsions:
REMARK  status: ('A' for Active; 'I' for Inactive)
REMARK    1  A    between atoms: C_2  and  C_3
REMARK    2  A    between atoms: N_5  and  C_6
REMARK    3  A    between atoms: C_13  and  C_14
REMARK    4  A    between atoms: N_20  and  C_21
REMARK    5  A    between atoms: N_20  and  C_24
REMARK    6  A    between atoms: C_21  and  C_22
REMARK    7  A    between atoms: C_22  and  O_23
REMARK    8  A    between atoms: C_24  and  C_25
REMARK                            x       y       z     vdW  Elec       q    Type
REMARK                         _______ _______ _______ _____ _____    ______ ____
ROOT
ATOM      1  C   UNL     1       3.468   6.508  18.200  0.00  0.00    +0.000 A 
ATOM      2  C   UNL     1       3.165   7.837  17.942  0.00  0.00    +0.000 A 
ATOM      3  N   UNL     1       2.137   8.206  18.775  0.00  0.00    +0.000 N 
ATOM      4  N   UNL     1       1.733   7.168  19.534  0.00  0.00    +0.000 NA
ATOM      5  C   UNL     1       2.567   6.158  19.256  0.00  0.00    +0.000 A 
ENDROOT
BRANCH   3   6
ATOM      6  C   UNL     1       1.507   9.481  18.896  0.00  0.00    +0.000 A 
ATOM      7  C   UNL     1       2.004  10.606  18.223  0.00  0.00    +0.000 A 
ATOM      8  C   UNL     1       1.360  11.839  18.362  0.00  0.00    +0.000 A 
ATOM      9  C   UNL     1       0.227  11.955  19.166  0.00  0.00    +0.000 A 
ATOM     10  C   UNL     1      -0.268  10.840  19.839  0.00  0.00    +0.000 A 
ATOM     11  C   UNL     1       0.367   9.605  19.705  0.00  0.00    +0.000 A 
ENDBRANCH   3   6
BRANCH   5  12
ATOM     12  C   UNL     1       2.414   4.913  20.006  0.00  0.00    +0.000 A 
ATOM     13  C   UNL     1       1.136   4.387  20.244  0.00  0.00    +0.000 A 
ATOM     14  C   UNL     1       0.997   3.144  20.854  0.00  0.00    +0.000 A 
ATOM     15  C   UNL     1       2.147   2.457  21.203  0.00  0.00    +0.000 A 
ATOM     16  N   UNL     1       3.396   2.933  21.003  0.00  0.00    +0.000 NA
ATOM     17  C   UNL     1       3.500   4.159  20.432  0.00  0.00    +0.000 A 
ENDBRANCH   5  12
BRANCH   1  19
ATOM     18  O   UNL     1       5.669   6.408  17.526  0.00  0.00    +0.000 OA
ATOM     19  C   UNL     1       4.579   5.834  17.531  0.00  0.00    +0.000 C 
ATOM     20  N   UNL     1       4.421   4.589  16.901  0.00  0.00    +0.000 N 
BRANCH  20  21
ATOM     21  C   UNL     1       3.180   3.804  16.837  0.00  0.00    +0.000 C 
BRANCH  21  22
ATOM     22  C   UNL     1       3.188   2.396  17.420  0.00  0.00    +0.000 C 
BRANCH  22  23
ATOM     23  O   UNL     1       1.866   1.926  17.656  0.00  0.00    +0.000 OA
ATOM     24  H   UNL     1       1.292   2.699  17.794  0.00  0.00    +0.000 HD
ENDBRANCH  22  23
ENDBRANCH  21  22
ENDBRANCH  20  21
BRANCH  20  25
ATOM     25  C   UNL     1       5.651   3.924  16.455  0.00  0.00    +0.000 C 
BRANCH  25  26
ATOM     26  C   UNL     1       6.053   4.161  15.017  0.00  0.00    +0.000 A 
ATOM     27  C   UNL     1       7.143   4.981  14.687  0.00  0.00    +0.000 A 
ATOM     28  C   UNL     1       7.584   5.087  13.364  0.00  0.00    +0.000 A 
ATOM     29  C   UNL     1       6.942   4.377  12.353  0.00  0.00    +0.000 A 
ATOM     30  C   UNL     1       5.851   3.569  12.661  0.00  0.00    +0.000 A 
ATOM     31  C   UNL     1       5.411   3.459  13.982  0.00  0.00    +0.000 A 
ENDBRANCH  25  26
ENDBRANCH  20  25
ENDBRANCH   1  19
TORSDOF 8
ENDMDL
MODEL 7
REMARK VINA RESULT:      -7.9      0.795      1.385
REMARK  Name = 
REMARK  8 active torsions:
REMARK  status: ('A' for Active; 'I' for Inactive)
REMARK    1  A    between atoms: C_2  and  C_3
REMARK    2  A    between atoms: N_5  and  C_6
REMARK    3  A    between atoms: C_13  and  C_14
REMARK    4  A    between atoms: N_20  and  C_21
REMARK    5  A    between atoms: N_20  and  C_24
REMARK    6  A    between atoms: C_21  and  C_22
REMARK    7  A    between atoms: C_22  and  O_23
REMARK    8  A    between atoms: C_24  and  C_25
REMARK                            x       y       z     vdW  Elec       q    Type
REMARK                         _______ _______ _______ _____ _____    ______ ____
ROOT
ATOM      1  C   UNL     1       3.768   6.665  17.354  0.00  0.00    +0.000 A 
ATOM      2  C   UNL     1       3.297   7.923  17.700  0.00  0.00    +0.000 A 
ATOM      3  N   UNL     1       2.353   7.766  18.685  0.00  0.00    +0.000 N 
ATOM      4  N   UNL     1       2.162   6.461  18.967  0.00  0.00    +0.000 NA
ATOM      5  C   UNL     1       3.054   5.788  18.230  0.00  0.00    +0.000 A 
ENDROOT
BRANCH   3   6
ATOM      6  C   UNL     1       1.615   8.772  19.375  0.00  0.00    +0.000 A 
ATOM      7  C   UNL     1       1.230   9.960  18.738  0.00  0.00    +0.000 A 
ATOM      8  C   UNL     1       0.505  10.924  19.444  0.00  0.00    +0.000 A 
ATOM      9  C   UNL     1       0.163  10.710  20.779  0.00  0.00    +0.000 A 
ATOM     10  C   UNL     1       0.547   9.533  21.417  0.00  0.00    +0.000 A 
ATOM     11  C   UNL     1       1.269   8.564  20.720  0.00  0.00    +0.000 A 
ENDBRANCH   3   6
BRANCH   5  12
ATOM     12  C   UNL     1       3.131   4.338  18.399  0.00  0.00    +0.000 A 
ATOM     13  C   UNL     1       3.412   3.789  19.659  0.00  0.00    +0.000 A 
ATOM     14  C   UNL     1       3.368   2.411  19.845  0.00  0.00    +0.000 A 
ATOM     15  C   UNL     1       3.035   1.618  18.760  0.00  0.00    +0.000 A 
ATOM     16  N   UNL     1       2.769   2.105  17.527  0.00  0.00    +0.000 NA
ATOM     17  C   UNL     1       2.847   3.450  17.370  0.00  0.00    +0.000 A 
ENDBRANCH   5  12
BRANCH   1  19
ATOM     18  O   UNL     1       4.728   7.063  15.296  0.00  0.00    +0.000 OA
ATOM     19  C   UNL     1       4.848   6.494  16.382  0.00  0.00    +0.000 C 
ATOM     20  N   UNL     1       5.975   5.703  16.657  0.00  0.00    +0.000 N 
BRANCH  20  21
ATOM     21  C   UNL     1       6.237   4.977  17.908  0.00  0.00    +0.000 C 
BRANCH  21  22
ATOM     22  C   UNL     1       7.664   4.953  18.441  0.00  0.00    +0.000 C 
BRANCH  22  23
ATOM     23  O   UNL     1       8.445   3.959  17.787  0.00  0.00    +0.000 OA
ATOM     24  H   UNL     1       8.337   3.123  18.273  0.00  0.00    +0.000 HD
ENDBRANCH  22  23
ENDBRANCH  21  22
ENDBRANCH  20  21
BRANCH  20  25
ATOM     25  C   UNL     1       7.078   5.784  15.692  0.00  0.00    +0.000 C 
BRANCH  25  26
ATOM     26  C   UNL     1       6.862   5.078  14.372  0.00  0.00    +0.000 A 
ATOM     27  C   UNL     1       7.673   5.342  13.259  0.00  0.00    +0.000 A 
ATOM     28  C   UNL     1       7.548   4.591  12.087  0.00  0.00    +0.000 A 
ATOM     29  C   UNL     1       6.609   3.565  12.010  0.00  0.00    +0.000 A 
ATOM     30  C   UNL     1       5.786   3.298  13.101  0.00  0.00    +0.000 A 
ATOM     31  C   UNL     1       5.913   4.046  14.274  0.00  0.00    +0.000 A 
ENDBRANCH  25  26
ENDBRANCH  20  25
ENDBRANCH   1  19
TORSDOF 8
ENDMDL
MODEL 8
REMARK VINA RESULT:      -7.8      4.274      7.734
REMARK  Name = 
REMARK  8 active torsions:
REMARK  status: ('A' for Active; 'I' for Inactive)
REMARK    1  A    between atoms: C_2  and  C_3
REMARK    2  A    between atoms: N_5  and  C_6
REMARK    3  A    between atoms: C_13  and  C_14
REMARK    4  A    between atoms: N_20  and  C_21
REMARK    5  A    between atoms: N_20  and  C_24
REMARK    6  A    between atoms: C_21  and  C_22
REMARK    7  A    between atoms: C_22  and  O_23
REMARK    8  A    between atoms: C_24  and  C_25
REMARK                            x       y       z     vdW  Elec       q    Type
REMARK                         _______ _______ _______ _____ _____    ______ ____
ROOT
ATOM      1  C   UNL     1       0.134  10.308  18.952  0.00  0.00    +0.000 A 
ATOM      2  C   UNL     1      -1.211  10.138  18.657  0.00  0.00    +0.000 A 
ATOM      3  N   UNL     1      -1.819  11.368  18.726  0.00  0.00    +0.000 N 
ATOM      4  N   UNL     1      -0.938  12.322  19.089  0.00  0.00    +0.000 NA
ATOM      5  C   UNL     1       0.255  11.719  19.160  0.00  0.00    +0.000 A 
ENDROOT
BRANCH   3   6
ATOM      6  C   UNL     1      -3.183  11.698  18.473  0.00  0.00    +0.000 A 
ATOM      7  C   UNL     1      -3.772  11.459  17.224  0.00  0.00    +0.000 A 
ATOM      8  C   UNL     1      -5.113  11.793  17.012  0.00  0.00    +0.000 A 
ATOM      9  C   UNL     1      -5.867  12.363  18.037  0.00  0.00    +0.000 A 
ATOM     10  C   UNL     1      -5.285  12.605  19.279  0.00  0.00    +0.000 A 
ATOM     11  C   UNL     1      -3.948  12.273  19.500  0.00  0.00    +0.000 A 
ENDBRANCH   3   6
BRANCH   5  12
ATOM     12  C   UNL     1       1.425  12.543  19.456  0.00  0.00    +0.000 A 
ATOM     13  C   UNL     1       2.172  13.108  18.413  0.00  0.00    +0.000 A 
ATOM     14  C   UNL     1       3.213  13.987  18.697  0.00  0.00    +0.000 A 
ATOM     15  C   UNL     1       3.472  14.282  20.024  0.00  0.00    +0.000 A 
ATOM     16  N   UNL     1       2.785  13.751  21.060  0.00  0.00    +0.000 NA
ATOM     17  C   UNL     1       1.794  12.876  20.753  0.00  0.00    +0.000 A 
ENDBRANCH   5  12
BRANCH   1  19
ATOM     18  O   UNL     1       1.703   9.044  17.834  0.00  0.00    +0.000 OA
ATOM     19  C   UNL     1       1.078   9.194  18.884  0.00  0.00    +0.000 C 
ATOM     20  N   UNL     1       1.263   8.312  19.962  0.00  0.00    +0.000 N 
BRANCH  20  21
ATOM     21  C   UNL     1       0.584   8.382  21.263  0.00  0.00    +0.000 C 
BRANCH  21  22
ATOM     22  C   UNL     1       0.975   9.501  22.221  0.00  0.00    +0.000 C 
BRANCH  22  23
ATOM     23  O   UNL     1       2.246   9.256  22.812  0.00  0.00    +0.000 OA
ATOM     24  H   UNL     1       2.899   9.169  22.097  0.00  0.00    +0.000 HD
ENDBRANCH  22  23
ENDBRANCH  21  22
ENDBRANCH  20  21
BRANCH  20  25
ATOM     25  C   UNL     1       2.385   7.372  19.848  0.00  0.00    +0.000 C 
BRANCH  25  26
ATOM     26  C   UNL     1       2.028   5.952  19.470  0.00  0.00    +0.000 A 
ATOM     27  C   UNL     1       2.190   5.480  18.159  0.00  0.00    +0.000 A 
ATOM     28  C   UNL     1       1.982   4.132  17.851  0.00  0.00    +0.000 A 
ATOM     29  C   UNL     1       1.607   3.237  18.850  0.00  0.00    +0.000 A 
ATOM     30  C   UNL     1       1.429   3.690  20.154  0.00  0.00    +0.000 A 
ATOM     31  C   UNL     1       1.640   5.036  20.463  0.00  0.00    +0.000 A 
ENDBRANCH  25  26
ENDBRANCH  20  25
ENDBRANCH   1  19
TORSDOF 8
ENDMDL
MODEL 9
REMARK VINA RESULT:      -7.7      4.312      7.769
REMARK  Name = 
REMARK  8 active torsions:
REMARK  status: ('A' for Active; 'I' for Inactive)
REMARK    1  A    between atoms: C_2  and  C_3
REMARK    2  A    between atoms: N_5  and  C_6
REMARK    3  A    between atoms: C_13  and  C_14
REMARK    4  A    between atoms: N_20  and  C_21
REMARK    5  A    between atoms: N_20  and  C_24
REMARK    6  A    between atoms: C_21  and  C_22
REMARK    7  A    between atoms: C_22  and  O_23
REMARK    8  A    between atoms: C_24  and  C_25
REMARK                            x       y       z     vdW  Elec       q    Type
REMARK                         _______ _______ _______ _____ _____    ______ ____
ROOT
ATOM      1  C   UNL     1       0.151  10.477  18.753  0.00  0.00    +0.000 A 
ATOM      2  C   UNL     1      -1.197  10.249  18.522  0.00  0.00    +0.000 A 
ATOM      3  N   UNL     1      -1.852  11.454  18.605  0.00  0.00    +0.000 N 
ATOM      4  N   UNL     1      -0.996  12.448  18.917  0.00  0.00    +0.000 NA
ATOM      5  C   UNL     1       0.223  11.895  18.939  0.00  0.00    +0.000 A 
ENDROOT
BRANCH   3   6
ATOM      6  C   UNL     1      -3.239  11.725  18.411  0.00  0.00    +0.000 A 
ATOM      7  C   UNL     1      -3.874  11.443  17.194  0.00  0.00    +0.000 A 
ATOM      8  C   UNL     1      -5.236  11.719  17.041  0.00  0.00    +0.000 A 
ATOM      9  C   UNL     1      -5.965  12.274  18.092  0.00  0.00    +0.000 A 
ATOM     10  C   UNL     1      -5.337  12.559  19.302  0.00  0.00    +0.000 A 
ATOM     11  C   UNL     1      -3.979  12.285  19.465  0.00  0.00    +0.000 A 
ENDBRANCH   3   6
BRANCH   5  12
ATOM     12  C   UNL     1       1.370  12.770  19.173  0.00  0.00    +0.000 A 
ATOM     13  C   UNL     1       1.696  13.172  20.476  0.00  0.00    +0.000 A 
ATOM     14  C   UNL     1       2.855  13.906  20.710  0.00  0.00    +0.000 A 
ATOM     15  C   UNL     1       3.662  14.211  19.628  0.00  0.00    +0.000 A 
ATOM     16  N   UNL     1       3.379  13.853  18.355  0.00  0.00    +0.000 NA
ATOM     17  C   UNL     1       2.229  13.163  18.154  0.00  0.00    +0.000 A 
ENDBRANCH   5  12
BRANCH   1  19
ATOM     18  O   UNL     1       1.764   9.304  17.599  0.00  0.00    +0.000 OA
ATOM     19  C   UNL     1       1.136   9.402  18.654  0.00  0.00    +0.000 C 
ATOM     20  N   UNL     1       1.357   8.500  19.708  0.00  0.00    +0.000 N 
BRANCH  20  21
ATOM     21  C   UNL     1       0.679   8.509  21.011  0.00  0.00    +0.000 C 
BRANCH  21  22
ATOM     22  C   UNL     1       1.055   9.595  22.011  0.00  0.00    +0.000 C 
BRANCH  22  23
ATOM     23  O   UNL     1       2.169   9.205  22.805  0.00  0.00    +0.000 OA
ATOM     24  H   UNL     1       2.927   9.759  22.553  0.00  0.00    +0.000 HD
ENDBRANCH  22  23
ENDBRANCH  21  22
ENDBRANCH  20  21
BRANCH  20  25
ATOM     25  C   UNL     1       2.513   7.606  19.567  0.00  0.00    +0.000 C 
BRANCH  25  26
ATOM     26  C   UNL     1       2.202   6.139  19.373  0.00  0.00    +0.000 A 
ATOM     27  C   UNL     1       1.816   5.323  20.447  0.00  0.00    +0.000 A 
ATOM     28  C   UNL     1       1.405   4.004  20.234  0.00  0.00    +0.000 A 
ATOM     29  C   UNL     1       1.375   3.480  18.944  0.00  0.00    +0.000 A 
ATOM     30  C   UNL     1       1.768   4.272  17.867  0.00  0.00    +0.000 A 
ATOM     31  C   UNL     1       2.175   5.591  18.079  0.00  0.00    +0.000 A 
ENDBRANCH  25  26
ENDBRANCH  20  25
ENDBRANCH   1  19
TORSDOF 8
ENDMDL
