MODEL 1
REMARK VINA RESULT:      -8.1      0.000      0.000
REMARK  Name = 
REMARK  5 active torsions:
REMARK  status: ('A' for Active; 'I' for Inactive)
REMARK    1  A    between atoms: S_2  and  N_4
REMARK    2  A    between atoms: S_2  and  C_17
REMARK    3  A    between atoms: N_4  and  C_5
REMARK    4  A    between atoms: C_10  and  O_11
REMARK    5  A    between atoms: O_11  and  C_12
REMARK                            x       y       z     vdW  Elec       q    Type
REMARK                         _______ _______ _______ _____ _____    ______ ____
ROOT
ATOM      1  N   UNL     1       5.178   3.295  17.837  0.00  0.00    +0.000 N 
ATOM      2  H   UNL     1       5.564   2.601  18.475  0.00  0.00    +0.000 HD
ENDROOT
BRANCH   1   3
ATOM      3  C   UNL     1       5.881   4.539  17.832  0.00  0.00    +0.000 A 
ATOM      4  C   UNL     1       6.414   4.997  19.047  0.00  0.00    +0.000 A 
ATOM      5  C   UNL     1       7.235   6.127  19.094  0.00  0.00    +0.000 A 
ATOM      6  C   UNL     1       7.535   6.812  17.924  0.00  0.00    +0.000 A 
ATOM      7  C   UNL     1       6.971   6.392  16.722  0.00  0.00    +0.000 A 
ATOM      8  C   UNL     1       6.133   5.264  16.657  0.00  0.00    +0.000 A 
BRANCH   8   9
ATOM      9  O   UNL     1       5.684   5.059  15.388  0.00  0.00    +0.000 OA
BRANCH   9  10
ATOM     10  C   UNL     1       6.288   4.140  14.487  0.00  0.00    +0.000 C 
ATOM     11  C   UNL     1       7.243   4.823  13.514  0.00  0.00    +0.000 C 
ATOM     12  C   UNL     1       7.099   4.090  12.192  0.00  0.00    +0.000 C 
ATOM     13  C   UNL     1       5.716   3.460  12.191  0.00  0.00    +0.000 C 
ATOM     14  C   UNL     1       5.159   3.604  13.599  0.00  0.00    +0.000 C 
ENDBRANCH   9  10
ENDBRANCH   8   9
ENDBRANCH   1   3
BRANCH   1  16
ATOM     15  O   UNL     1       2.936   3.695  16.622  0.00  0.00    +0.000 OA
ATOM     16  S   UNL     1       3.491   3.277  17.888  0.00  0.00    +0.000 S 
ATOM     17  O   UNL     1       3.128   2.014  18.498  0.00  0.00    +0.000 OA
BRANCH  16  18
ATOM     18  C   UNL     1       2.951   4.442  19.050  0.00  0.00    +0.000 A 
ATOM     19  C   UNL     1       2.680   4.192  20.386  0.00  0.00    +0.000 A 
ATOM     20  N   UNL     1       2.251   5.360  20.950  0.00  0.00    +0.000 N 
ATOM     21  C   UNL     1       2.278   6.362  20.020  0.00  0.00    +0.000 A 
ATOM     22  N   UNL     1       1.939   7.639  20.278  0.00  0.00    +0.000 NA
ATOM     23  C   UNL     1       2.034   8.439  19.193  0.00  0.00    +0.000 A 
ATOM     24  C   UNL     1       2.433   8.039  17.925  0.00  0.00    +0.000 A 
ATOM     25  C   UNL     1       2.772   6.701  17.715  0.00  0.00    +0.000 A 
ATOM     26  C   UNL     1       2.701   5.821  18.808  0.00  0.00    +0.000 A 
ATOM     27  H   UNL     1       1.942   5.498  21.906  0.00  0.00    +0.000 HD
ENDBRANCH  16  18
ENDBRANCH   1  16
TORSDOF 5
ENDMDL
MODEL 2
REMARK VINA RESULT:      -7.9      3.119      6.182
REMARK  Name = 
REMARK  5 active torsions:
REMARK  status: ('A' for Active; 'I' for Inactive)
REMARK    1  A    between atoms: S_2  and  N_4
REMARK    2  A    between atoms: S_2  and  C_17
REMARK    3  A    between atoms: N_4  and  C_5
REMARK    4  A    between atoms: C_10  and  O_11
REMARK    5  A    between atoms: O_11  and  C_12
REMARK                            x       y       z     vdW  Elec       q    Type
REMARK                         _______ _______ _______ _____ _____    ______ ____
ROOT
ATOM      1  N   UNL     1       3.031   7.123  17.074  0.00  0.00    +0.000 N 
ATOM      2  H   UNL     1       2.737   7.445  16.153  0.00  0.00    +0.000 HD
ENDROOT
BRANCH   1   3
ATOM      3  C   UNL     1       2.469   7.862  18.160  0.00  0.00    +0.000 A 
ATOM      4  C   UNL     1       2.017   9.166  17.902  0.00  0.00    +0.000 A 
ATOM      5  C   UNL     1       1.326   9.895  18.874  0.00  0.00    +0.000 A 
ATOM      6  C   UNL     1       1.077   9.327  20.117  0.00  0.00    +0.000 A 
ATOM      7  C   UNL     1       1.564   8.052  20.396  0.00  0.00    +0.000 A 
ATOM      8  C   UNL     1       2.271   7.308  19.434  0.00  0.00    +0.000 A 
BRANCH   8   9
ATOM      9  O   UNL     1       2.667   6.106  19.938  0.00  0.00    +0.000 OA
BRANCH   9  10
ATOM     10  C   UNL     1       1.839   5.298  20.765  0.00  0.00    +0.000 C 
ATOM     11  C   UNL     1       2.629   4.219  21.497  0.00  0.00    +0.000 C 
ATOM     12  C   UNL     1       1.727   2.998  21.554  0.00  0.00    +0.000 C 
ATOM     13  C   UNL     1       0.754   3.121  20.392  0.00  0.00    +0.000 C 
ATOM     14  C   UNL     1       0.916   4.521  19.821  0.00  0.00    +0.000 C 
ENDBRANCH   9  10
ENDBRANCH   8   9
ENDBRANCH   1   3
BRANCH   1  16
ATOM     15  O   UNL     1       5.127   6.429  15.736  0.00  0.00    +0.000 OA
ATOM     16  S   UNL     1       4.675   6.741  17.072  0.00  0.00    +0.000 S 
ATOM     17  O   UNL     1       5.319   7.761  17.874  0.00  0.00    +0.000 OA
BRANCH  16  18
ATOM     18  C   UNL     1       4.920   5.301  18.002  0.00  0.00    +0.000 A 
ATOM     19  C   UNL     1       5.891   5.116  18.974  0.00  0.00    +0.000 A 
ATOM     20  N   UNL     1       5.771   3.840  19.447  0.00  0.00    +0.000 N 
ATOM     21  C   UNL     1       4.722   3.214  18.832  0.00  0.00    +0.000 A 
ATOM     22  N   UNL     1       4.331   1.956  19.104  0.00  0.00    +0.000 NA
ATOM     23  C   UNL     1       3.278   1.557  18.355  0.00  0.00    +0.000 A 
ATOM     24  C   UNL     1       2.633   2.323  17.394  0.00  0.00    +0.000 A 
ATOM     25  C   UNL     1       3.082   3.622  17.152  0.00  0.00    +0.000 A 
ATOM     26  C   UNL     1       4.169   4.097  17.907  0.00  0.00    +0.000 A 
ATOM     27  H   UNL     1       6.358   3.388  20.139  0.00  0.00    +0.000 HD
ENDBRANCH  16  18
ENDBRANCH   1  16
TORSDOF 5
ENDMDL
MODEL 3
REMARK VINA RESULT:      -7.7      0.625      1.004
REMARK  Name = 
REMARK  5 active torsions:
REMARK  status: ('A' for Active; 'I' for Inactive)
REMARK    1  A    between atoms: S_2  and  N_4
REMARK    2  A    between atoms: S_2  and  C_17
REMARK    3  A    between atoms: N_4  and  C_5
REMARK    4  A    between atoms: C_10  and  O_11
REMARK    5  A    between atoms: O_11  and  C_12
REMARK                            x       y       z     vdW  Elec       q    Type
REMARK                         _______ _______ _______ _____ _____    ______ ____
ROOT
ATOM      1  N   UNL     1       5.529   3.410  18.668  0.00  0.00    +0.000 N 
ATOM      2  H   UNL     1       5.883   3.148  19.587  0.00  0.00    +0.000 HD
ENDROOT
BRANCH   1   3
ATOM      3  C   UNL     1       6.131   4.586  18.123  0.00  0.00    +0.000 A 
ATOM      4  C   UNL     1       6.528   5.594  19.016  0.00  0.00    +0.000 A 
ATOM      5  C   UNL     1       7.252   6.704  18.573  0.00  0.00    +0.000 A 
ATOM      6  C   UNL     1       7.590   6.819  17.231  0.00  0.00    +0.000 A 
ATOM      7  C   UNL     1       7.157   5.847  16.332  0.00  0.00    +0.000 A 
ATOM      8  C   UNL     1       6.418   4.728  16.757  0.00  0.00    +0.000 A 
BRANCH   8   9
ATOM      9  O   UNL     1       6.089   3.929  15.705  0.00  0.00    +0.000 OA
BRANCH   9  10
ATOM     10  C   UNL     1       5.879   4.424  14.388  0.00  0.00    +0.000 C 
ATOM     11  C   UNL     1       4.801   3.646  13.641  0.00  0.00    +0.000 C 
ATOM     12  C   UNL     1       5.253   3.578  12.193  0.00  0.00    +0.000 C 
ATOM     13  C   UNL     1       6.766   3.724  12.201  0.00  0.00    +0.000 C 
ATOM     14  C   UNL     1       7.167   4.131  13.610  0.00  0.00    +0.000 C 
ENDBRANCH   9  10
ENDBRANCH   8   9
ENDBRANCH   1   3
BRANCH   1  16
ATOM     15  O   UNL     1       3.385   3.308  17.234  0.00  0.00    +0.000 OA
ATOM     16  S   UNL     1       3.855   3.205  18.595  0.00  0.00    +0.000 S 
ATOM     17  O   UNL     1       3.563   2.047  19.415  0.00  0.00    +0.000 OA
BRANCH  16  18
ATOM     18  C   UNL     1       3.092   4.498  19.459  0.00  0.00    +0.000 A 
ATOM     19  C   UNL     1       2.569   4.422  20.740  0.00  0.00    +0.000 A 
ATOM     20  N   UNL     1       2.031   5.639  21.044  0.00  0.00    +0.000 N 
ATOM     21  C   UNL     1       2.230   6.507  20.006  0.00  0.00    +0.000 A 
ATOM     22  N   UNL     1       1.838   7.795  20.014  0.00  0.00    +0.000 NA
ATOM     23  C   UNL     1       2.137   8.444  18.866  0.00  0.00    +0.000 A 
ATOM     24  C   UNL     1       2.776   7.889  17.766  0.00  0.00    +0.000 A 
ATOM     25  C   UNL     1       3.159   6.548  17.813  0.00  0.00    +0.000 A 
ATOM     26  C   UNL     1       2.884   5.822  18.985  0.00  0.00    +0.000 A 
ATOM     27  H   UNL     1       1.541   5.895  21.894  0.00  0.00    +0.000 HD
ENDBRANCH  16  18
ENDBRANCH   1  16
TORSDOF 5
ENDMDL
MODEL 4
REMARK VINA RESULT:      -7.7      2.370      4.738
REMARK  Name = 
REMARK  5 active torsions:
REMARK  status: ('A' for Active; 'I' for Inactive)
REMARK    1  A    between atoms: S_2  and  N_4
REMARK    2  A    between atoms: S_2  and  C_17
REMARK    3  A    between atoms: N_4  and  C_5
REMARK    4  A    between atoms: C_10  and  O_11
REMARK    5  A    between atoms: O_11  and  C_12
REMARK                            x       y       z     vdW  Elec       q    Type
REMARK                         _______ _______ _______ _____ _____    ______ ____
ROOT
ATOM      1  N   UNL     1       3.159   6.388  19.831  0.00  0.00    +0.000 N 
ATOM      2  H   UNL     1       4.102   6.645  20.118  0.00  0.00    +0.000 HD
ENDROOT
BRANCH   1   3
ATOM      3  C   UNL     1       2.831   5.016  20.057  0.00  0.00    +0.000 A 
ATOM      4  C   UNL     1       1.586   4.725  20.637  0.00  0.00    +0.000 A 
ATOM      5  C   UNL     1       1.137   3.407  20.754  0.00  0.00    +0.000 A 
ATOM      6  C   UNL     1       1.926   2.363  20.289  0.00  0.00    +0.000 A 
ATOM      7  C   UNL     1       3.182   2.641  19.757  0.00  0.00    +0.000 A 
ATOM      8  C   UNL     1       3.657   3.960  19.641  0.00  0.00    +0.000 A 
BRANCH   8   9
ATOM      9  O   UNL     1       4.913   3.985  19.115  0.00  0.00    +0.000 OA
BRANCH   9  10
ATOM     10  C   UNL     1       5.230   4.627  17.887  0.00  0.00    +0.000 C 
ATOM     11  C   UNL     1       4.785   3.815  16.675  0.00  0.00    +0.000 C 
ATOM     12  C   UNL     1       5.848   4.024  15.611  0.00  0.00    +0.000 C 
ATOM     13  C   UNL     1       7.130   4.388  16.341  0.00  0.00    +0.000 C 
ATOM     14  C   UNL     1       6.760   4.643  17.793  0.00  0.00    +0.000 C 
ENDBRANCH   9  10
ENDBRANCH   8   9
ENDBRANCH   1   3
BRANCH   1  16
ATOM     15  O   UNL     1       3.957   7.527  17.657  0.00  0.00    +0.000 OA
ATOM     16  S   UNL     1       2.765   7.122  18.363  0.00  0.00    +0.000 S 
ATOM     17  O   UNL     1       1.770   6.267  17.748  0.00  0.00    +0.000 OA
BRANCH  16  18
ATOM     18  C   UNL     1       1.885   8.579  18.681  0.00  0.00    +0.000 A 
ATOM     19  C   UNL     1       1.714   9.634  17.798  0.00  0.00    +0.000 A 
ATOM     20  N   UNL     1       0.990  10.600  18.437  0.00  0.00    +0.000 N 
ATOM     21  C   UNL     1       0.658  10.176  19.694  0.00  0.00    +0.000 A 
ATOM     22  N   UNL     1      -0.080  10.893  20.562  0.00  0.00    +0.000 NA
ATOM     23  C   UNL     1      -0.262  10.265  21.745  0.00  0.00    +0.000 A 
ATOM     24  C   UNL     1       0.237   9.014  22.082  0.00  0.00    +0.000 A 
ATOM     25  C   UNL     1       0.997   8.315  21.142  0.00  0.00    +0.000 A 
ATOM     26  C   UNL     1       1.213   8.913  19.889  0.00  0.00    +0.000 A 
ATOM     27  H   UNL     1       0.729  11.509  18.072  0.00  0.00    +0.000 HD
ENDBRANCH  16  18
ENDBRANCH   1  16
TORSDOF 5
ENDMDL
MODEL 5
REMARK VINA RESULT:      -7.6      2.300      6.330
REMARK  Name = 
REMARK  5 active torsions:
REMARK  status: ('A' for Active; 'I' for Inactive)
REMARK    1  A    between atoms: S_2  and  N_4
REMARK    2  A    between atoms: S_2  and  C_17
REMARK    3  A    between atoms: N_4  and  C_5
REMARK    4  A    between atoms: C_10  and  O_11
REMARK    5  A    between atoms: O_11  and  C_12
REMARK                            x       y       z     vdW  Elec       q    Type
REMARK                         _______ _______ _______ _____ _____    ______ ____
ROOT
ATOM      1  N   UNL     1       3.732   4.942  18.444  0.00  0.00    +0.000 N 
ATOM      2  H   UNL     1       3.546   4.746  17.462  0.00  0.00    +0.000 HD
ENDROOT
BRANCH   1   3
ATOM      3  C   UNL     1       3.046   6.087  18.954  0.00  0.00    +0.000 A 
ATOM      4  C   UNL     1       2.952   7.218  18.127  0.00  0.00    +0.000 A 
ATOM      5  C   UNL     1       2.174   8.318  18.497  0.00  0.00    +0.000 A 
ATOM      6  C   UNL     1       1.478   8.300  19.698  0.00  0.00    +0.000 A 
ATOM      7  C   UNL     1       1.605   7.202  20.545  0.00  0.00    +0.000 A 
ATOM      8  C   UNL     1       2.392   6.090  20.195  0.00  0.00    +0.000 A 
BRANCH   8   9
ATOM      9  O   UNL     1       2.384   5.152  21.183  0.00  0.00    +0.000 OA
BRANCH   9  10
ATOM     10  C   UNL     1       1.722   3.900  21.062  0.00  0.00    +0.000 C 
ATOM     11  C   UNL     1       2.670   2.781  20.643  0.00  0.00    +0.000 C 
ATOM     12  C   UNL     1       1.872   1.871  19.725  0.00  0.00    +0.000 C 
ATOM     13  C   UNL     1       0.762   2.720  19.127  0.00  0.00    +0.000 C 
ATOM     14  C   UNL     1       0.752   4.039  19.883  0.00  0.00    +0.000 C 
ENDBRANCH   9  10
ENDBRANCH   8   9
ENDBRANCH   1   3
BRANCH   1  16
ATOM     15  O   UNL     1       5.766   5.511  19.929  0.00  0.00    +0.000 OA
ATOM     16  S   UNL     1       5.367   4.711  18.795  0.00  0.00    +0.000 S 
ATOM     17  O   UNL     1       5.580   3.278  18.763  0.00  0.00    +0.000 OA
BRANCH  16  18
ATOM     18  C   UNL     1       6.315   5.277  17.460  0.00  0.00    +0.000 A 
ATOM     19  C   UNL     1       7.262   6.288  17.507  0.00  0.00    +0.000 A 
ATOM     20  N   UNL     1       7.759   6.452  16.246  0.00  0.00    +0.000 N 
ATOM     21  C   UNL     1       7.185   5.545  15.399  0.00  0.00    +0.000 A 
ATOM     22  N   UNL     1       7.489   5.436  14.092  0.00  0.00    +0.000 NA
ATOM     23  C   UNL     1       6.778   4.473  13.463  0.00  0.00    +0.000 A 
ATOM     24  C   UNL     1       5.822   3.657  14.054  0.00  0.00    +0.000 A 
ATOM     25  C   UNL     1       5.546   3.816  15.413  0.00  0.00    +0.000 A 
ATOM     26  C   UNL     1       6.262   4.795  16.123  0.00  0.00    +0.000 A 
ATOM     27  H   UNL     1       8.442   7.138  15.943  0.00  0.00    +0.000 HD
ENDBRANCH  16  18
ENDBRANCH   1  16
TORSDOF 5
ENDMDL
MODEL 6
REMARK VINA RESULT:      -7.6      2.499      4.648
REMARK  Name = 
REMARK  5 active torsions:
REMARK  status: ('A' for Active; 'I' for Inactive)
REMARK    1  A    between atoms: S_2  and  N_4
REMARK    2  A    between atoms: S_2  and  C_17
REMARK    3  A    between atoms: N_4  and  C_5
REMARK    4  A    between atoms: C_10  and  O_11
REMARK    5  A    between atoms: O_11  and  C_12
REMARK                            x       y       z     vdW  Elec       q    Type
REMARK                         _______ _______ _______ _____ _____    ______ ____
ROOT
ATOM      1  N   UNL     1       1.831   5.783  17.867  0.00  0.00    +0.000 N 
ATOM      2  H   UNL     1       0.865   6.103  17.924  0.00  0.00    +0.000 HD
ENDROOT
BRANCH   1   3
ATOM      3  C   UNL     1       2.017   4.416  18.237  0.00  0.00    +0.000 A 
ATOM      4  C   UNL     1       1.230   3.905  19.281  0.00  0.00    +0.000 A 
ATOM      5  C   UNL     1       1.252   2.545  19.601  0.00  0.00    +0.000 A 
ATOM      6  C   UNL     1       2.061   1.678  18.879  0.00  0.00    +0.000 A 
ATOM      7  C   UNL     1       2.880   2.185  17.873  0.00  0.00    +0.000 A 
ATOM      8  C   UNL     1       2.880   3.553  17.544  0.00  0.00    +0.000 A 
BRANCH   8   9
ATOM      9  O   UNL     1       3.774   3.818  16.551  0.00  0.00    +0.000 OA
BRANCH   9  10
ATOM     10  C   UNL     1       5.172   3.593  16.681  0.00  0.00    +0.000 C 
ATOM     11  C   UNL     1       5.808   4.487  17.740  0.00  0.00    +0.000 C 
ATOM     12  C   UNL     1       7.187   4.848  17.217  0.00  0.00    +0.000 C 
ATOM     13  C   UNL     1       7.125   4.727  15.703  0.00  0.00    +0.000 C 
ATOM     14  C   UNL     1       5.805   4.054  15.363  0.00  0.00    +0.000 C 
ENDBRANCH   9  10
ENDBRANCH   8   9
ENDBRANCH   1   3
BRANCH   1  16
ATOM     15  O   UNL     1       3.394   6.606  19.749  0.00  0.00    +0.000 OA
ATOM     16  S   UNL     1       2.883   6.968  18.448  0.00  0.00    +0.000 S 
ATOM     17  O   UNL     1       3.768   7.287  17.345  0.00  0.00    +0.000 OA
BRANCH  16  18
ATOM     18  C   UNL     1       2.001   8.440  18.679  0.00  0.00    +0.000 A 
ATOM     19  C   UNL     1       1.872   9.464  17.753  0.00  0.00    +0.000 A 
ATOM     20  N   UNL     1       1.129  10.455  18.328  0.00  0.00    +0.000 N 
ATOM     21  C   UNL     1       0.744  10.077  19.584  0.00  0.00    +0.000 A 
ATOM     22  N   UNL     1      -0.023  10.829  20.396  0.00  0.00    +0.000 NA
ATOM     23  C   UNL     1      -0.256  10.244  21.592  0.00  0.00    +0.000 A 
ATOM     24  C   UNL     1       0.221   9.003  21.993  0.00  0.00    +0.000 A 
ATOM     25  C   UNL     1       1.014   8.268  21.110  0.00  0.00    +0.000 A 
ATOM     26  C   UNL     1       1.283   8.820  19.846  0.00  0.00    +0.000 A 
ATOM     27  H   UNL     1       0.889  11.352  17.921  0.00  0.00    +0.000 HD
ENDBRANCH  16  18
ENDBRANCH   1  16
TORSDOF 5
ENDMDL
MODEL 7
REMARK VINA RESULT:      -7.5      1.950      6.435
REMARK  Name = 
REMARK  5 active torsions:
REMARK  status: ('A' for Active; 'I' for Inactive)
REMARK    1  A    between atoms: S_2  and  N_4
REMARK    2  A    between atoms: S_2  and  C_17
REMARK    3  A    between atoms: N_4  and  C_5
REMARK    4  A    between atoms: C_10  and  O_11
REMARK    5  A    between atoms: O_11  and  C_12
REMARK                            x       y       z     vdW  Elec       q    Type
REMARK                         _______ _______ _______ _____ _____    ______ ____
ROOT
ATOM      1  N   UNL     1       4.853   3.771  18.749  0.00  0.00    +0.000 N 
ATOM      2  H   UNL     1       5.655   3.214  19.043  0.00  0.00    +0.000 HD
ENDROOT
BRANCH   1   3
ATOM      3  C   UNL     1       3.743   3.719  19.647  0.00  0.00    +0.000 A 
ATOM      4  C   UNL     1       3.355   2.463  20.139  0.00  0.00    +0.000 A 
ATOM      5  C   UNL     1       2.375   2.349  21.129  0.00  0.00    +0.000 A 
ATOM      6  C   UNL     1       1.774   3.490  21.641  0.00  0.00    +0.000 A 
ATOM      7  C   UNL     1       2.120   4.736  21.124  0.00  0.00    +0.000 A 
ATOM      8  C   UNL     1       3.095   4.871  20.120  0.00  0.00    +0.000 A 
BRANCH   8   9
ATOM      9  O   UNL     1       3.249   6.174  19.757  0.00  0.00    +0.000 OA
BRANCH   9  10
ATOM     10  C   UNL     1       2.274   6.896  19.015  0.00  0.00    +0.000 C 
ATOM     11  C   UNL     1       2.888   7.683  17.862  0.00  0.00    +0.000 C 
ATOM     12  C   UNL     1       2.097   8.975  17.762  0.00  0.00    +0.000 C 
ATOM     13  C   UNL     1       1.502   9.230  19.137  0.00  0.00    +0.000 C 
ATOM     14  C   UNL     1       1.726   7.972  19.960  0.00  0.00    +0.000 C 
ENDBRANCH   9  10
ENDBRANCH   8   9
ENDBRANCH   1   3
BRANCH   1  16
ATOM     15  O   UNL     1       4.709   2.239  16.676  0.00  0.00    +0.000 OA
ATOM     16  S   UNL     1       4.604   3.619  17.086  0.00  0.00    +0.000 S 
ATOM     17  O   UNL     1       3.431   4.415  16.788  0.00  0.00    +0.000 OA
BRANCH  16  18
ATOM     18  C   UNL     1       5.868   4.458  16.250  0.00  0.00    +0.000 A 
ATOM     19  C   UNL     1       6.744   5.375  16.810  0.00  0.00    +0.000 A 
ATOM     20  N   UNL     1       7.564   5.830  15.817  0.00  0.00    +0.000 N 
ATOM     21  C   UNL     1       7.262   5.200  14.641  0.00  0.00    +0.000 A 
ATOM     22  N   UNL     1       7.914   5.412  13.483  0.00  0.00    +0.000 NA
ATOM     23  C   UNL     1       7.421   4.680  12.459  0.00  0.00    +0.000 A 
ATOM     24  C   UNL     1       6.359   3.790  12.538  0.00  0.00    +0.000 A 
ATOM     25  C   UNL     1       5.719   3.610  13.765  0.00  0.00    +0.000 A 
ATOM     26  C   UNL     1       6.192   4.338  14.870  0.00  0.00    +0.000 A 
ATOM     27  H   UNL     1       8.288   6.534  15.898  0.00  0.00    +0.000 HD
ENDBRANCH  16  18
ENDBRANCH   1  16
TORSDOF 5
ENDMDL
MODEL 8
REMARK VINA RESULT:      -7.5      2.279      6.560
REMARK  Name = 
REMARK  5 active torsions:
REMARK  status: ('A' for Active; 'I' for Inactive)
REMARK    1  A    between atoms: S_2  and  N_4
REMARK    2  A    between atoms: S_2  and  C_17
REMARK    3  A    between atoms: N_4  and  C_5
REMARK    4  A    between atoms: C_10  and  O_11
REMARK    5  A    between atoms: O_11  and  C_12
REMARK                            x       y       z     vdW  Elec       q    Type
REMARK                         _______ _______ _______ _____ _____    ______ ____
ROOT
ATOM      1  N   UNL     1       3.312   5.541  17.880  0.00  0.00    +0.000 N 
ATOM      2  H   UNL     1       3.210   5.440  16.871  0.00  0.00    +0.000 HD
ENDROOT
BRANCH   1   3
ATOM      3  C   UNL     1       2.800   6.768  18.401  0.00  0.00    +0.000 A 
ATOM      4  C   UNL     1       2.923   7.920  17.607  0.00  0.00    +0.000 A 
ATOM      5  C   UNL     1       2.320   9.123  17.985  0.00  0.00    +0.000 A 
ATOM      6  C   UNL     1       1.583   9.188  19.160  0.00  0.00    +0.000 A 
ATOM      7  C   UNL     1       1.498   8.062  19.976  0.00  0.00    +0.000 A 
ATOM      8  C   UNL     1       2.108   6.846  19.619  0.00  0.00    +0.000 A 
BRANCH   8   9
ATOM      9  O   UNL     1       1.909   5.898  20.576  0.00  0.00    +0.000 OA
BRANCH   9  10
ATOM     10  C   UNL     1       2.129   4.511  20.355  0.00  0.00    +0.000 C 
ATOM     11  C   UNL     1       0.878   3.799  19.851  0.00  0.00    +0.000 C 
ATOM     12  C   UNL     1       0.892   2.418  20.483  0.00  0.00    +0.000 C 
ATOM     13  C   UNL     1       1.715   2.530  21.756  0.00  0.00    +0.000 C 
ATOM     14  C   UNL     1       2.389   3.892  21.734  0.00  0.00    +0.000 C 
ENDBRANCH   9  10
ENDBRANCH   8   9
ENDBRANCH   1   3
BRANCH   1  16
ATOM     15  O   UNL     1       5.209   5.587  19.630  0.00  0.00    +0.000 OA
ATOM     16  S   UNL     1       4.819   4.971  18.384  0.00  0.00    +0.000 S 
ATOM     17  O   UNL     1       4.770   3.531  18.230  0.00  0.00    +0.000 OA
BRANCH  16  18
ATOM     18  C   UNL     1       6.016   5.447  17.226  0.00  0.00    +0.000 A 
ATOM     19  C   UNL     1       7.027   6.372  17.435  0.00  0.00    +0.000 A 
ATOM     20  N   UNL     1       7.735   6.487  16.273  0.00  0.00    +0.000 N 
ATOM     21  C   UNL     1       7.230   5.630  15.335  0.00  0.00    +0.000 A 
ATOM     22  N   UNL     1       7.732   5.489  14.095  0.00  0.00    +0.000 NA
ATOM     23  C   UNL     1       7.051   4.589  13.349  0.00  0.00    +0.000 A 
ATOM     24  C   UNL     1       5.946   3.862  13.769  0.00  0.00    +0.000 A 
ATOM     25  C   UNL     1       5.467   4.049  15.067  0.00  0.00    +0.000 A 
ATOM     26  C   UNL     1       6.140   4.966  15.893  0.00  0.00    +0.000 A 
ATOM     27  H   UNL     1       8.514   7.110  16.092  0.00  0.00    +0.000 HD
ENDBRANCH  16  18
ENDBRANCH   1  16
TORSDOF 5
ENDMDL
MODEL 9
REMARK VINA RESULT:      -7.4      1.147      1.433
REMARK  Name = 
REMARK  5 active torsions:
REMARK  status: ('A' for Active; 'I' for Inactive)
REMARK    1  A    between atoms: S_2  and  N_4
REMARK    2  A    between atoms: S_2  and  C_17
REMARK    3  A    between atoms: N_4  and  C_5
REMARK    4  A    between atoms: C_10  and  O_11
REMARK    5  A    between atoms: O_11  and  C_12
REMARK                            x       y       z     vdW  Elec       q    Type
REMARK                         _______ _______ _______ _____ _____    ______ ____
ROOT
ATOM      1  N   UNL     1       4.028   4.770  16.925  0.00  0.00    +0.000 N 
ATOM      2  H   UNL     1       3.954   4.355  15.997  0.00  0.00    +0.000 HD
ENDROOT
BRANCH   1   3
ATOM      3  C   UNL     1       5.370   4.943  17.384  0.00  0.00    +0.000 A 
ATOM      4  C   UNL     1       5.566   5.609  18.604  0.00  0.00    +0.000 A 
ATOM      5  C   UNL     1       6.834   5.688  19.187  0.00  0.00    +0.000 A 
ATOM      6  C   UNL     1       7.922   5.098  18.556  0.00  0.00    +0.000 A 
ATOM      7  C   UNL     1       7.743   4.478  17.323  0.00  0.00    +0.000 A 
ATOM      8  C   UNL     1       6.477   4.398  16.715  0.00  0.00    +0.000 A 
BRANCH   8   9
ATOM      9  O   UNL     1       6.550   3.769  15.509  0.00  0.00    +0.000 OA
BRANCH   9  10
ATOM     10  C   UNL     1       6.266   4.417  14.276  0.00  0.00    +0.000 C 
ATOM     11  C   UNL     1       6.091   3.428  13.128  0.00  0.00    +0.000 C 
ATOM     12  C   UNL     1       6.684   4.095  11.900  0.00  0.00    +0.000 C 
ATOM     13  C   UNL     1       7.705   5.103  12.401  0.00  0.00    +0.000 C 
ATOM     14  C   UNL     1       7.525   5.209  13.907  0.00  0.00    +0.000 C 
ENDBRANCH   9  10
ENDBRANCH   8   9
ENDBRANCH   1   3
BRANCH   1  16
ATOM     15  O   UNL     1       1.654   3.802  17.228  0.00  0.00    +0.000 OA
ATOM     16  S   UNL     1       2.858   4.127  17.958  0.00  0.00    +0.000 S 
ATOM     17  O   UNL     1       3.544   3.143  18.770  0.00  0.00    +0.000 OA
BRANCH  16  18
ATOM     18  C   UNL     1       2.400   5.335  19.111  0.00  0.00    +0.000 A 
ATOM     19  C   UNL     1       2.217   5.133  20.470  0.00  0.00    +0.000 A 
ATOM     20  N   UNL     1       1.832   6.322  21.021  0.00  0.00    +0.000 N 
ATOM     21  C   UNL     1       1.802   7.291  20.057  0.00  0.00    +0.000 A 
ATOM     22  N   UNL     1       1.487   8.578  20.293  0.00  0.00    +0.000 NA
ATOM     23  C   UNL     1       1.515   9.341  19.176  0.00  0.00    +0.000 A 
ATOM     24  C   UNL     1       1.827   8.895  17.900  0.00  0.00    +0.000 A 
ATOM     25  C   UNL     1       2.145   7.548  17.714  0.00  0.00    +0.000 A 
ATOM     26  C   UNL     1       2.142   6.707  18.840  0.00  0.00    +0.000 A 
ATOM     27  H   UNL     1       1.586   6.495  21.990  0.00  0.00    +0.000 HD
ENDBRANCH  16  18
ENDBRANCH   1  16
TORSDOF 5
ENDMDL
