MODEL 1
REMARK VINA RESULT:      -8.7      0.000      0.000
REMARK  Name = 
REMARK  5 active torsions:
REMARK  status: ('A' for Active; 'I' for Inactive)
REMARK    1  A    between atoms: C_2  and  C_3
REMARK    2  A    between atoms: C_3  and  C_4
REMARK    3  A    between atoms: N_12  and  C_13
REMARK    4  A    between atoms: C_17  and  C_18
REMARK    5  A    between atoms: C_20  and  C_21
REMARK                            x       y       z     vdW  Elec       q    Type
REMARK                         _______ _______ _______ _____ _____    ______ ____
ROOT
ATOM      1  C   UNL     1       2.437   7.532  18.976  0.00  0.00    +0.000 A 
ATOM      2  C   UNL     1       2.182   8.186  17.772  0.00  0.00    +0.000 A 
ATOM      3  C   UNL     1       1.376   9.323  17.733  0.00  0.00    +0.000 A 
ATOM      4  C   UNL     1       0.805   9.818  18.902  0.00  0.00    +0.000 A 
ATOM      5  C   UNL     1       1.016   9.164  20.123  0.00  0.00    +0.000 A 
ATOM      6  C   UNL     1       1.835   8.020  20.149  0.00  0.00    +0.000 A 
ENDROOT
BRANCH   5   7
ATOM      7  C   UNL     1       0.345   9.608  21.343  0.00  0.00    +0.000 A 
ATOM      8  N   UNL     1      -0.703  10.404  21.426  0.00  0.00    +0.000 NA
ATOM      9  C   UNL     1      -0.851  10.611  22.773  0.00  0.00    +0.000 A 
ATOM     10  N   UNL     1       0.004   9.931  23.541  0.00  0.00    +0.000 NA
ATOM     11  N   UNL     1       0.740   9.297  22.616  0.00  0.00    +0.000 N 
ATOM     12  H   UNL     1       1.497   8.693  22.916  0.00  0.00    +0.000 HD
BRANCH   9  13
ATOM     13  C   UNL     1      -1.877  11.565  23.360  0.00  0.00    +0.000 C 
ATOM     14  C   UNL     1      -2.653  12.466  22.423  0.00  0.00    +0.000 C 
ATOM     15  C   UNL     1      -1.595  13.054  23.290  0.00  0.00    +0.000 C 
ENDBRANCH   9  13
ENDBRANCH   5   7
BRANCH   1  18
ATOM     16  O   UNL     1       1.649   4.699  19.339  0.00  0.00    +0.000 OA
ATOM     17  C   UNL     1       2.818   5.079  19.283  0.00  0.00    +0.000 C 
ATOM     18  N   UNL     1       3.250   6.381  19.077  0.00  0.00    +0.000 N 
ATOM     19  H   UNL     1       4.249   6.527  18.970  0.00  0.00    +0.000 HD
BRANCH  17  20
ATOM     20  C   UNL     1       3.949   4.081  19.452  0.00  0.00    +0.000 C 
BRANCH  20  21
ATOM     21  C   UNL     1       4.945   4.173  18.325  0.00  0.00    +0.000 A 
ATOM     22  C   UNL     1       6.241   4.662  18.545  0.00  0.00    +0.000 A 
ATOM     23  C   UNL     1       7.138   4.767  17.480  0.00  0.00    +0.000 A 
ATOM     24  C   UNL     1       6.736   4.390  16.202  0.00  0.00    +0.000 A 
ATOM     25  F   UNL     1       7.600   4.494  15.184  0.00  0.00    +0.000 F 
ATOM     26  C   UNL     1       5.455   3.916  15.962  0.00  0.00    +0.000 A 
ATOM     27  C   UNL     1       4.568   3.819  17.027  0.00  0.00    +0.000 A 
ATOM     28  F   UNL     1       3.321   3.379  16.799  0.00  0.00    +0.000 F 
ENDBRANCH  20  21
ENDBRANCH  17  20
ENDBRANCH   1  18
TORSDOF 5
ENDMDL
MODEL 2
REMARK VINA RESULT:      -8.6      0.938      1.333
REMARK  Name = 
REMARK  5 active torsions:
REMARK  status: ('A' for Active; 'I' for Inactive)
REMARK    1  A    between atoms: C_2  and  C_3
REMARK    2  A    between atoms: C_3  and  C_4
REMARK    3  A    between atoms: N_12  and  C_13
REMARK    4  A    between atoms: C_17  and  C_18
REMARK    5  A    between atoms: C_20  and  C_21
REMARK                            x       y       z     vdW  Elec       q    Type
REMARK                         _______ _______ _______ _____ _____    ______ ____
ROOT
ATOM      1  C   UNL     1       2.364   7.629  18.981  0.00  0.00    +0.000 A 
ATOM      2  C   UNL     1       2.067   8.264  17.775  0.00  0.00    +0.000 A 
ATOM      3  C   UNL     1       1.231   9.379  17.742  0.00  0.00    +0.000 A 
ATOM      4  C   UNL     1       0.671   9.871  18.918  0.00  0.00    +0.000 A 
ATOM      5  C   UNL     1       0.924   9.236  20.140  0.00  0.00    +0.000 A 
ATOM      6  C   UNL     1       1.773   8.114  20.161  0.00  0.00    +0.000 A 
ENDROOT
BRANCH   5   7
ATOM      7  C   UNL     1       0.267   9.675  21.369  0.00  0.00    +0.000 A 
ATOM      8  N   UNL     1      -0.731  10.531  21.472  0.00  0.00    +0.000 NA
ATOM      9  C   UNL     1      -0.883  10.697  22.824  0.00  0.00    +0.000 A 
ATOM     10  N   UNL     1      -0.080   9.938  23.575  0.00  0.00    +0.000 NA
ATOM     11  N   UNL     1       0.628   9.294  22.634  0.00  0.00    +0.000 N 
ATOM     12  H   UNL     1       1.342   8.635  22.918  0.00  0.00    +0.000 HD
BRANCH   9  13
ATOM     13  C   UNL     1      -1.856  11.689  23.436  0.00  0.00    +0.000 C 
ATOM     14  C   UNL     1      -2.744  12.500  22.517  0.00  0.00    +0.000 C 
ATOM     15  C   UNL     1      -1.609  13.169  23.210  0.00  0.00    +0.000 C 
ENDBRANCH   9  13
ENDBRANCH   5   7
BRANCH   1  18
ATOM     16  O   UNL     1       1.654   4.766  19.259  0.00  0.00    +0.000 OA
ATOM     17  C   UNL     1       2.812   5.183  19.241  0.00  0.00    +0.000 C 
ATOM     18  N   UNL     1       3.209   6.501  19.077  0.00  0.00    +0.000 N 
ATOM     19  H   UNL     1       4.205   6.679  18.999  0.00  0.00    +0.000 HD
BRANCH  17  20
ATOM     20  C   UNL     1       3.968   4.215  19.417  0.00  0.00    +0.000 C 
BRANCH  20  21
ATOM     21  C   UNL     1       4.943   4.302  18.272  0.00  0.00    +0.000 A 
ATOM     22  C   UNL     1       4.604   3.830  16.995  0.00  0.00    +0.000 A 
ATOM     23  C   UNL     1       5.535   3.894  15.957  0.00  0.00    +0.000 A 
ATOM     24  C   UNL     1       6.800   4.422  16.198  0.00  0.00    +0.000 A 
ATOM     25  F   UNL     1       7.689   4.479  15.197  0.00  0.00    +0.000 F 
ATOM     26  C   UNL     1       7.159   4.881  17.455  0.00  0.00    +0.000 A 
ATOM     27  C   UNL     1       6.228   4.811  18.484  0.00  0.00    +0.000 A 
ATOM     28  F   UNL     1       6.574   5.236  19.709  0.00  0.00    +0.000 F 
ENDBRANCH  20  21
ENDBRANCH  17  20
ENDBRANCH   1  18
TORSDOF 5
ENDMDL
MODEL 3
REMARK VINA RESULT:      -8.2      4.759      9.669
REMARK  Name = 
REMARK  5 active torsions:
REMARK  status: ('A' for Active; 'I' for Inactive)
REMARK    1  A    between atoms: C_2  and  C_3
REMARK    2  A    between atoms: C_3  and  C_4
REMARK    3  A    between atoms: N_12  and  C_13
REMARK    4  A    between atoms: C_17  and  C_18
REMARK    5  A    between atoms: C_20  and  C_21
REMARK                            x       y       z     vdW  Elec       q    Type
REMARK                         _______ _______ _______ _____ _____    ______ ____
ROOT
ATOM      1  C   UNL     1       5.134   4.999  17.627  0.00  0.00    +0.000 A 
ATOM      2  C   UNL     1       6.257   4.957  18.452  0.00  0.00    +0.000 A 
ATOM      3  C   UNL     1       7.536   4.822  17.913  0.00  0.00    +0.000 A 
ATOM      4  C   UNL     1       7.708   4.719  16.535  0.00  0.00    +0.000 A 
ATOM      5  C   UNL     1       6.597   4.724  15.682  0.00  0.00    +0.000 A 
ATOM      6  C   UNL     1       5.313   4.865  16.239  0.00  0.00    +0.000 A 
ENDROOT
BRANCH   5   7
ATOM      7  C   UNL     1       6.749   4.516  14.244  0.00  0.00    +0.000 A 
ATOM      8  N   UNL     1       6.168   3.585  13.512  0.00  0.00    +0.000 NA
ATOM      9  C   UNL     1       6.738   3.739  12.274  0.00  0.00    +0.000 A 
ATOM     10  N   UNL     1       7.592   4.760  12.174  0.00  0.00    +0.000 NA
ATOM     11  N   UNL     1       7.573   5.242  13.426  0.00  0.00    +0.000 N 
ATOM     12  H   UNL     1       8.151   6.041  13.657  0.00  0.00    +0.000 HD
BRANCH   9  13
ATOM     13  C   UNL     1       6.460   2.805  11.110  0.00  0.00    +0.000 C 
ATOM     14  C   UNL     1       5.854   1.447  11.393  0.00  0.00    +0.000 C 
ATOM     15  C   UNL     1       7.286   1.538  10.992  0.00  0.00    +0.000 C 
ENDBRANCH   9  13
ENDBRANCH   5   7
BRANCH   1  18
ATOM     16  O   UNL     1       3.464   7.435  17.855  0.00  0.00    +0.000 OA
ATOM     17  C   UNL     1       3.099   6.321  18.230  0.00  0.00    +0.000 C 
ATOM     18  N   UNL     1       3.817   5.140  18.116  0.00  0.00    +0.000 N 
ATOM     19  H   UNL     1       3.348   4.284  18.395  0.00  0.00    +0.000 HD
BRANCH  17  20
ATOM     20  C   UNL     1       1.745   6.150  18.894  0.00  0.00    +0.000 C 
BRANCH  20  21
ATOM     21  C   UNL     1       1.713   4.938  19.788  0.00  0.00    +0.000 A 
ATOM     22  C   UNL     1       2.250   4.981  21.084  0.00  0.00    +0.000 A 
ATOM     23  C   UNL     1       2.236   3.837  21.883  0.00  0.00    +0.000 A 
ATOM     24  C   UNL     1       1.694   2.655  21.385  0.00  0.00    +0.000 A 
ATOM     25  F   UNL     1       1.684   1.560  22.157  0.00  0.00    +0.000 F 
ATOM     26  C   UNL     1       1.170   2.589  20.103  0.00  0.00    +0.000 A 
ATOM     27  C   UNL     1       1.191   3.732  19.313  0.00  0.00    +0.000 A 
ATOM     28  F   UNL     1       0.703   3.671  18.065  0.00  0.00    +0.000 F 
ENDBRANCH  20  21
ENDBRANCH  17  20
ENDBRANCH   1  18
TORSDOF 5
ENDMDL
MODEL 4
REMARK VINA RESULT:      -8.2      6.198      8.483
REMARK  Name = 
REMARK  5 active torsions:
REMARK  status: ('A' for Active; 'I' for Inactive)
REMARK    1  A    between atoms: C_2  and  C_3
REMARK    2  A    between atoms: C_3  and  C_4
REMARK    3  A    between atoms: N_12  and  C_13
REMARK    4  A    between atoms: C_17  and  C_18
REMARK    5  A    between atoms: C_20  and  C_21
REMARK                            x       y       z     vdW  Elec       q    Type
REMARK                         _______ _______ _______ _____ _____    ______ ____
ROOT
ATOM      1  C   UNL     1       7.587   6.803  18.027  0.00  0.00    +0.000 A 
ATOM      2  C   UNL     1       7.672   6.558  16.657  0.00  0.00    +0.000 A 
ATOM      3  C   UNL     1       6.825   5.636  16.042  0.00  0.00    +0.000 A 
ATOM      4  C   UNL     1       5.883   4.940  16.794  0.00  0.00    +0.000 A 
ATOM      5  C   UNL     1       5.796   5.140  18.178  0.00  0.00    +0.000 A 
ATOM      6  C   UNL     1       6.653   6.076  18.785  0.00  0.00    +0.000 A 
ENDROOT
BRANCH   5   7
ATOM      7  C   UNL     1       4.883   4.346  18.999  0.00  0.00    +0.000 A 
ATOM      8  N   UNL     1       3.729   4.735  19.503  0.00  0.00    +0.000 NA
ATOM      9  C   UNL     1       3.342   3.680  20.289  0.00  0.00    +0.000 A 
ATOM     10  N   UNL     1       4.158   2.624  20.247  0.00  0.00    +0.000 NA
ATOM     11  N   UNL     1       5.116   3.064  19.418  0.00  0.00    +0.000 N 
ATOM     12  H   UNL     1       5.898   2.457  19.200  0.00  0.00    +0.000 HD
BRANCH   9  13
ATOM     13  C   UNL     1       2.108   3.710  21.172  0.00  0.00    +0.000 C 
ATOM     14  C   UNL     1       1.531   2.398  21.662  0.00  0.00    +0.000 C 
ATOM     15  C   UNL     1       0.809   3.164  20.609  0.00  0.00    +0.000 C 
ENDBRANCH   9  13
ENDBRANCH   5   7
BRANCH   1  18
ATOM     16  O   UNL     1       7.780   9.741  17.699  0.00  0.00    +0.000 OA
ATOM     17  C   UNL     1       8.481   9.095  18.476  0.00  0.00    +0.000 C 
ATOM     18  N   UNL     1       8.413   7.728  18.703  0.00  0.00    +0.000 N 
ATOM     19  H   UNL     1       9.001   7.350  19.439  0.00  0.00    +0.000 HD
BRANCH  17  20
ATOM     20  C   UNL     1       9.549   9.796  19.297  0.00  0.00    +0.000 C 
BRANCH  20  21
ATOM     21  C   UNL     1       9.768  11.212  18.830  0.00  0.00    +0.000 A 
ATOM     22  C   UNL     1      10.503  11.484  17.666  0.00  0.00    +0.000 A 
ATOM     23  C   UNL     1      10.718  12.805  17.269  0.00  0.00    +0.000 A 
ATOM     24  C   UNL     1      10.204  13.847  18.036  0.00  0.00    +0.000 A 
ATOM     25  F   UNL     1      10.414  15.112  17.650  0.00  0.00    +0.000 F 
ATOM     26  C   UNL     1       9.485  13.599  19.195  0.00  0.00    +0.000 A 
ATOM     27  C   UNL     1       9.279  12.281  19.586  0.00  0.00    +0.000 A 
ATOM     28  F   UNL     1       8.601  12.034  20.716  0.00  0.00    +0.000 F 
ENDBRANCH  20  21
ENDBRANCH  17  20
ENDBRANCH   1  18
TORSDOF 5
ENDMDL
MODEL 5
REMARK VINA RESULT:      -8.0      2.150      3.340
REMARK  Name = 
REMARK  5 active torsions:
REMARK  status: ('A' for Active; 'I' for Inactive)
REMARK    1  A    between atoms: C_2  and  C_3
REMARK    2  A    between atoms: C_3  and  C_4
REMARK    3  A    between atoms: N_12  and  C_13
REMARK    4  A    between atoms: C_17  and  C_18
REMARK    5  A    between atoms: C_20  and  C_21
REMARK                            x       y       z     vdW  Elec       q    Type
REMARK                         _______ _______ _______ _____ _____    ______ ____
ROOT
ATOM      1  C   UNL     1       2.212   7.728  18.755  0.00  0.00    +0.000 A 
ATOM      2  C   UNL     1       2.366   8.637  17.710  0.00  0.00    +0.000 A 
ATOM      3  C   UNL     1       1.922   9.953  17.836  0.00  0.00    +0.000 A 
ATOM      4  C   UNL     1       1.308  10.376  19.011  0.00  0.00    +0.000 A 
ATOM      5  C   UNL     1       1.110   9.478  20.067  0.00  0.00    +0.000 A 
ATOM      6  C   UNL     1       1.566   8.154  19.929  0.00  0.00    +0.000 A 
ENDROOT
BRANCH   5   7
ATOM      7  C   UNL     1       0.379   9.875  21.269  0.00  0.00    +0.000 A 
ATOM      8  N   UNL     1      -0.633  10.718  21.338  0.00  0.00    +0.000 NA
ATOM      9  C   UNL     1      -0.864  10.843  22.684  0.00  0.00    +0.000 A 
ATOM     10  N   UNL     1      -0.097  10.069  23.457  0.00  0.00    +0.000 NA
ATOM     11  N   UNL     1       0.670   9.460  22.541  0.00  0.00    +0.000 N 
ATOM     12  H   UNL     1       1.374   8.800  22.846  0.00  0.00    +0.000 HD
BRANCH   9  13
ATOM     13  C   UNL     1      -1.881  11.808  23.267  0.00  0.00    +0.000 C 
ATOM     14  C   UNL     1      -2.552  12.804  22.345  0.00  0.00    +0.000 C 
ATOM     15  C   UNL     1      -1.526  13.282  23.313  0.00  0.00    +0.000 C 
ENDBRANCH   9  13
ENDBRANCH   5   7
BRANCH   1  18
ATOM     16  O   UNL     1       4.223   6.492  16.965  0.00  0.00    +0.000 OA
ATOM     17  C   UNL     1       3.571   5.861  17.797  0.00  0.00    +0.000 C 
ATOM     18  N   UNL     1       2.646   6.386  18.687  0.00  0.00    +0.000 N 
ATOM     19  H   UNL     1       2.251   5.751  19.373  0.00  0.00    +0.000 HD
BRANCH  17  20
ATOM     20  C   UNL     1       3.743   4.357  17.912  0.00  0.00    +0.000 C 
BRANCH  20  21
ATOM     21  C   UNL     1       2.968   3.797  19.076  0.00  0.00    +0.000 A 
ATOM     22  C   UNL     1       3.612   3.447  20.273  0.00  0.00    +0.000 A 
ATOM     23  C   UNL     1       2.878   2.903  21.327  0.00  0.00    +0.000 A 
ATOM     24  C   UNL     1       1.508   2.703  21.182  0.00  0.00    +0.000 A 
ATOM     25  F   UNL     1       0.809   2.179  22.198  0.00  0.00    +0.000 F 
ATOM     26  C   UNL     1       0.855   3.030  20.004  0.00  0.00    +0.000 A 
ATOM     27  C   UNL     1       1.594   3.568  18.957  0.00  0.00    +0.000 A 
ATOM     28  F   UNL     1       0.973   3.870  17.807  0.00  0.00    +0.000 F 
ENDBRANCH  20  21
ENDBRANCH  17  20
ENDBRANCH   1  18
TORSDOF 5
ENDMDL
MODEL 6
REMARK VINA RESULT:      -8.0      2.045      3.483
REMARK  Name = 
REMARK  5 active torsions:
REMARK  status: ('A' for Active; 'I' for Inactive)
REMARK    1  A    between atoms: C_2  and  C_3
REMARK    2  A    between atoms: C_3  and  C_4
REMARK    3  A    between atoms: N_12  and  C_13
REMARK    4  A    between atoms: C_17  and  C_18
REMARK    5  A    between atoms: C_20  and  C_21
REMARK                            x       y       z     vdW  Elec       q    Type
REMARK                         _______ _______ _______ _____ _____    ______ ____
ROOT
ATOM      1  C   UNL     1       2.223   7.693  18.752  0.00  0.00    +0.000 A 
ATOM      2  C   UNL     1       2.385   8.619  17.722  0.00  0.00    +0.000 A 
ATOM      3  C   UNL     1       1.952   9.936  17.870  0.00  0.00    +0.000 A 
ATOM      4  C   UNL     1       1.341  10.344  19.052  0.00  0.00    +0.000 A 
ATOM      5  C   UNL     1       1.134   9.429  20.092  0.00  0.00    +0.000 A 
ATOM      6  C   UNL     1       1.579   8.105  19.932  0.00  0.00    +0.000 A 
ENDROOT
BRANCH   5   7
ATOM      7  C   UNL     1       0.405   9.813  21.300  0.00  0.00    +0.000 A 
ATOM      8  N   UNL     1      -0.633  10.623  21.375  0.00  0.00    +0.000 NA
ATOM      9  C   UNL     1      -0.851  10.751  22.723  0.00  0.00    +0.000 A 
ATOM     10  N   UNL     1      -0.050  10.009  23.492  0.00  0.00    +0.000 NA
ATOM     11  N   UNL     1       0.725   9.417  22.571  0.00  0.00    +0.000 N 
ATOM     12  H   UNL     1       1.454   8.783  22.873  0.00  0.00    +0.000 HD
BRANCH   9  13
ATOM     13  C   UNL     1      -1.891  11.687  23.312  0.00  0.00    +0.000 C 
ATOM     14  C   UNL     1      -2.650  12.610  22.382  0.00  0.00    +0.000 C 
ATOM     15  C   UNL     1      -1.612  13.178  23.285  0.00  0.00    +0.000 C 
ENDBRANCH   9  13
ENDBRANCH   5   7
BRANCH   1  18
ATOM     16  O   UNL     1       4.171   6.457  16.893  0.00  0.00    +0.000 OA
ATOM     17  C   UNL     1       3.541   5.824  17.740  0.00  0.00    +0.000 C 
ATOM     18  N   UNL     1       2.646   6.349  18.661  0.00  0.00    +0.000 N 
ATOM     19  H   UNL     1       2.267   5.712  19.354  0.00  0.00    +0.000 HD
BRANCH  17  20
ATOM     20  C   UNL     1       3.706   4.318  17.840  0.00  0.00    +0.000 C 
BRANCH  20  21
ATOM     21  C   UNL     1       2.922   3.749  18.993  0.00  0.00    +0.000 A 
ATOM     22  C   UNL     1       1.522   3.832  19.027  0.00  0.00    +0.000 A 
ATOM     23  C   UNL     1       0.819   3.323  20.121  0.00  0.00    +0.000 A 
ATOM     24  C   UNL     1       1.514   2.740  21.176  0.00  0.00    +0.000 A 
ATOM     25  F   UNL     1       0.834   2.255  22.223  0.00  0.00    +0.000 F 
ATOM     26  C   UNL     1       2.898   2.660  21.167  0.00  0.00    +0.000 A 
ATOM     27  C   UNL     1       3.591   3.172  20.077  0.00  0.00    +0.000 A 
ATOM     28  F   UNL     1       4.931   3.115  20.069  0.00  0.00    +0.000 F 
ENDBRANCH  20  21
ENDBRANCH  17  20
ENDBRANCH   1  18
TORSDOF 5
ENDMDL
MODEL 7
REMARK VINA RESULT:      -8.0      5.532      7.487
REMARK  Name = 
REMARK  5 active torsions:
REMARK  status: ('A' for Active; 'I' for Inactive)
REMARK    1  A    between atoms: C_2  and  C_3
REMARK    2  A    between atoms: C_3  and  C_4
REMARK    3  A    between atoms: N_12  and  C_13
REMARK    4  A    between atoms: C_17  and  C_18
REMARK    5  A    between atoms: C_20  and  C_21
REMARK                            x       y       z     vdW  Elec       q    Type
REMARK                         _______ _______ _______ _____ _____    ______ ____
ROOT
ATOM      1  C   UNL     1       6.575   5.300  15.830  0.00  0.00    +0.000 A 
ATOM      2  C   UNL     1       7.375   6.274  16.427  0.00  0.00    +0.000 A 
ATOM      3  C   UNL     1       7.406   6.421  17.814  0.00  0.00    +0.000 A 
ATOM      4  C   UNL     1       6.627   5.599  18.623  0.00  0.00    +0.000 A 
ATOM      5  C   UNL     1       5.788   4.635  18.051  0.00  0.00    +0.000 A 
ATOM      6  C   UNL     1       5.769   4.493  16.652  0.00  0.00    +0.000 A 
ENDROOT
BRANCH   5   7
ATOM      7  C   UNL     1       4.888   3.832  18.877  0.00  0.00    +0.000 A 
ATOM      8  N   UNL     1       3.636   4.107  19.183  0.00  0.00    +0.000 NA
ATOM      9  C   UNL     1       3.291   3.123  20.074  0.00  0.00    +0.000 A 
ATOM     10  N   UNL     1       4.238   2.206  20.287  0.00  0.00    +0.000 NA
ATOM     11  N   UNL     1       5.231   2.668  19.512  0.00  0.00    +0.000 N 
ATOM     12  H   UNL     1       6.108   2.163  19.479  0.00  0.00    +0.000 HD
BRANCH   9  13
ATOM     13  C   UNL     1       1.957   3.086  20.798  0.00  0.00    +0.000 C 
ATOM     14  C   UNL     1       0.699   2.832  19.994  0.00  0.00    +0.000 C 
ATOM     15  C   UNL     1       0.962   4.198  20.526  0.00  0.00    +0.000 C 
ENDBRANCH   9  13
ENDBRANCH   5   7
BRANCH   1  18
ATOM     16  O   UNL     1       8.689   5.629  13.780  0.00  0.00    +0.000 OA
ATOM     17  C   UNL     1       7.530   5.308  13.519  0.00  0.00    +0.000 C 
ATOM     18  N   UNL     1       6.508   5.101  14.433  0.00  0.00    +0.000 N 
ATOM     19  H   UNL     1       5.625   4.755  14.072  0.00  0.00    +0.000 HD
BRANCH  17  20
ATOM     20  C   UNL     1       7.107   5.105  12.075  0.00  0.00    +0.000 C 
BRANCH  20  21
ATOM     21  C   UNL     1       6.798   3.660  11.785  0.00  0.00    +0.000 A 
ATOM     22  C   UNL     1       7.811   2.765  11.406  0.00  0.00    +0.000 A 
ATOM     23  C   UNL     1       7.497   1.438  11.113  0.00  0.00    +0.000 A 
ATOM     24  C   UNL     1       6.175   1.009  11.193  0.00  0.00    +0.000 A 
ATOM     25  F   UNL     1       5.880  -0.267  10.909  0.00  0.00    +0.000 F 
ATOM     26  C   UNL     1       5.158   1.879  11.552  0.00  0.00    +0.000 A 
ATOM     27  C   UNL     1       5.479   3.201  11.839  0.00  0.00    +0.000 A 
ATOM     28  F   UNL     1       4.498   4.054  12.169  0.00  0.00    +0.000 F 
ENDBRANCH  20  21
ENDBRANCH  17  20
ENDBRANCH   1  18
TORSDOF 5
ENDMDL
MODEL 8
REMARK VINA RESULT:      -7.9      4.066      9.379
REMARK  Name = 
REMARK  5 active torsions:
REMARK  status: ('A' for Active; 'I' for Inactive)
REMARK    1  A    between atoms: C_2  and  C_3
REMARK    2  A    between atoms: C_3  and  C_4
REMARK    3  A    between atoms: N_12  and  C_13
REMARK    4  A    between atoms: C_17  and  C_18
REMARK    5  A    between atoms: C_20  and  C_21
REMARK                            x       y       z     vdW  Elec       q    Type
REMARK                         _______ _______ _______ _____ _____    ______ ____
ROOT
ATOM      1  C   UNL     1       2.018   6.356  20.344  0.00  0.00    +0.000 A 
ATOM      2  C   UNL     1       1.256   5.205  20.542  0.00  0.00    +0.000 A 
ATOM      3  C   UNL     1       1.435   4.082  19.735  0.00  0.00    +0.000 A 
ATOM      4  C   UNL     1       2.376   4.098  18.710  0.00  0.00    +0.000 A 
ATOM      5  C   UNL     1       3.133   5.250  18.465  0.00  0.00    +0.000 A 
ATOM      6  C   UNL     1       2.947   6.375  19.289  0.00  0.00    +0.000 A 
ENDROOT
BRANCH   5   7
ATOM      7  C   UNL     1       4.054   5.321  17.331  0.00  0.00    +0.000 A 
ATOM      8  N   UNL     1       4.592   4.307  16.683  0.00  0.00    +0.000 NA
ATOM      9  C   UNL     1       5.466   4.903  15.811  0.00  0.00    +0.000 A 
ATOM     10  N   UNL     1       5.453   6.238  15.830  0.00  0.00    +0.000 NA
ATOM     11  N   UNL     1       4.546   6.478  16.788  0.00  0.00    +0.000 N 
ATOM     12  H   UNL     1       4.328   7.436  17.033  0.00  0.00    +0.000 HD
BRANCH   9  13
ATOM     13  C   UNL     1       6.410   4.120  14.915  0.00  0.00    +0.000 C 
ATOM     14  C   UNL     1       7.058   4.828  13.744  0.00  0.00    +0.000 C 
ATOM     15  C   UNL     1       5.977   3.837  13.489  0.00  0.00    +0.000 C 
ENDBRANCH   9  13
ENDBRANCH   5   7
BRANCH   1  18
ATOM     16  O   UNL     1      -0.437   7.689  21.330  0.00  0.00    +0.000 OA
ATOM     17  C   UNL     1       0.699   8.116  21.534  0.00  0.00    +0.000 C 
ATOM     18  N   UNL     1       1.885   7.520  21.133  0.00  0.00    +0.000 N 
ATOM     19  H   UNL     1       2.750   7.948  21.449  0.00  0.00    +0.000 HD
BRANCH  17  20
ATOM     20  C   UNL     1       0.896   9.420  22.287  0.00  0.00    +0.000 C 
BRANCH  20  21
ATOM     21  C   UNL     1       0.117  10.546  21.660  0.00  0.00    +0.000 A 
ATOM     22  C   UNL     1       0.468  11.054  20.400  0.00  0.00    +0.000 A 
ATOM     23  C   UNL     1      -0.250  12.118  19.851  0.00  0.00    +0.000 A 
ATOM     24  C   UNL     1      -1.309  12.674  20.563  0.00  0.00    +0.000 A 
ATOM     25  F   UNL     1      -1.994  13.695  20.031  0.00  0.00    +0.000 F 
ATOM     26  C   UNL     1      -1.664  12.194  21.815  0.00  0.00    +0.000 A 
ATOM     27  C   UNL     1      -0.942  11.137  22.355  0.00  0.00    +0.000 A 
ATOM     28  F   UNL     1      -1.267  10.680  23.574  0.00  0.00    +0.000 F 
ENDBRANCH  20  21
ENDBRANCH  17  20
ENDBRANCH   1  18
TORSDOF 5
ENDMDL
MODEL 9
REMARK VINA RESULT:      -7.9      3.908      9.631
REMARK  Name = 
REMARK  5 active torsions:
REMARK  status: ('A' for Active; 'I' for Inactive)
REMARK    1  A    between atoms: C_2  and  C_3
REMARK    2  A    between atoms: C_3  and  C_4
REMARK    3  A    between atoms: N_12  and  C_13
REMARK    4  A    between atoms: C_17  and  C_18
REMARK    5  A    between atoms: C_20  and  C_21
REMARK                            x       y       z     vdW  Elec       q    Type
REMARK                         _______ _______ _______ _____ _____    ______ ____
ROOT
ATOM      1  C   UNL     1       3.553   6.248  18.213  0.00  0.00    +0.000 A 
ATOM      2  C   UNL     1       4.022   5.539  19.318  0.00  0.00    +0.000 A 
ATOM      3  C   UNL     1       5.166   4.747  19.226  0.00  0.00    +0.000 A 
ATOM      4  C   UNL     1       5.853   4.646  18.020  0.00  0.00    +0.000 A 
ATOM      5  C   UNL     1       5.388   5.319  16.884  0.00  0.00    +0.000 A 
ATOM      6  C   UNL     1       4.235   6.119  16.991  0.00  0.00    +0.000 A 
ENDROOT
BRANCH   5   7
ATOM      7  C   UNL     1       6.037   5.146  15.586  0.00  0.00    +0.000 A 
ATOM      8  N   UNL     1       5.499   4.645  14.491  0.00  0.00    +0.000 NA
ATOM      9  C   UNL     1       6.548   4.580  13.610  0.00  0.00    +0.000 A 
ATOM     10  N   UNL     1       7.697   5.080  14.071  0.00  0.00    +0.000 NA
ATOM     11  N   UNL     1       7.346   5.441  15.315  0.00  0.00    +0.000 N 
ATOM     12  H   UNL     1       8.041   5.857  15.923  0.00  0.00    +0.000 HD
BRANCH   9  13
ATOM     13  C   UNL     1       6.437   3.958  12.230  0.00  0.00    +0.000 C 
ATOM     14  C   UNL     1       5.144   3.272  11.842  0.00  0.00    +0.000 C 
ATOM     15  C   UNL     1       6.350   2.446  12.129  0.00  0.00    +0.000 C 
ENDBRANCH   9  13
ENDBRANCH   5   7
BRANCH   1  18
ATOM     16  O   UNL     1       3.287   9.135  17.604  0.00  0.00    +0.000 OA
ATOM     17  C   UNL     1       2.353   8.430  17.984  0.00  0.00    +0.000 C 
ATOM     18  N   UNL     1       2.405   7.070  18.248  0.00  0.00    +0.000 N 
ATOM     19  H   UNL     1       1.529   6.607  18.473  0.00  0.00    +0.000 HD
BRANCH  17  20
ATOM     20  C   UNL     1       0.984   9.045  18.213  0.00  0.00    +0.000 C 
BRANCH  20  21
ATOM     21  C   UNL     1       0.717   9.277  19.677  0.00  0.00    +0.000 A 
ATOM     22  C   UNL     1       1.393   8.540  20.661  0.00  0.00    +0.000 A 
ATOM     23  C   UNL     1       1.108   8.752  22.011  0.00  0.00    +0.000 A 
ATOM     24  C   UNL     1       0.146   9.691  22.373  0.00  0.00    +0.000 A 
ATOM     25  F   UNL     1      -0.124   9.889  23.670  0.00  0.00    +0.000 F 
ATOM     26  C   UNL     1      -0.542  10.420  21.415  0.00  0.00    +0.000 A 
ATOM     27  C   UNL     1      -0.255  10.200  20.073  0.00  0.00    +0.000 A 
ATOM     28  F   UNL     1      -0.930  10.888  19.140  0.00  0.00    +0.000 F 
ENDBRANCH  20  21
ENDBRANCH  17  20
ENDBRANCH   1  18
TORSDOF 5
ENDMDL
