MODEL 1
REMARK VINA RESULT:      -9.3      0.000      0.000
REMARK  Name = 
REMARK  4 active torsions:
REMARK  status: ('A' for Active; 'I' for Inactive)
REMARK    1  A    between atoms: C_2  and  C_14
REMARK    2  A    between atoms: N_3  and  C_4
REMARK    3  A    between atoms: C_18  and  S_19
REMARK    4  A    between atoms: S_19  and  N_22
REMARK                            x       y       z     vdW  Elec       q    Type
REMARK                         _______ _______ _______ _____ _____    ______ ____
ROOT
ATOM      1  C   UNL     1       7.993   7.930  18.164  0.00  0.00    +0.000 A 
ATOM      2  C   UNL     1       8.447   7.057  19.160  0.00  0.00    +0.000 A 
ATOM      3  C   UNL     1       8.063   5.717  19.138  0.00  0.00    +0.000 A 
ATOM      4  C   UNL     1       7.217   5.256  18.130  0.00  0.00    +0.000 A 
ATOM      5  C   UNL     1       6.786   6.130  17.121  0.00  0.00    +0.000 A 
ATOM      6  C   UNL     1       7.181   7.470  17.128  0.00  0.00    +0.000 A 
ENDROOT
BRANCH   1   8
ATOM      7  O   UNL     1       7.924  10.120  17.440  0.00  0.00    +0.000 OA
ATOM      8  C   UNL     1       8.398   9.348  18.266  0.00  0.00    +0.000 C 
ATOM      9  N   UNL     1       9.337   9.633  19.242  0.00  0.00    +0.000 N 
ATOM     10  H   UNL     1       9.758   8.850  19.724  0.00  0.00    +0.000 HD
BRANCH   9  11
ATOM     11  C   UNL     1       9.919  10.908  19.472  0.00  0.00    +0.000 A 
ATOM     12  C   UNL     1      10.893  11.400  18.598  0.00  0.00    +0.000 A 
ATOM     13  C   UNL     1      11.505  12.622  18.831  0.00  0.00    +0.000 A 
ATOM     14  C   UNL     1      11.144  13.365  19.938  0.00  0.00    +0.000 A 
ATOM     15  C   UNL     1      10.173  12.932  20.828  0.00  0.00    +0.000 A 
ATOM     16  N   UNL     1       9.906  13.728  21.875  0.00  0.00    +0.000 NA
ATOM     17  C   UNL     1       8.988  13.318  22.773  0.00  0.00    +0.000 A 
ATOM     18  C   UNL     1       8.294  12.132  22.667  0.00  0.00    +0.000 A 
ATOM     19  C   UNL     1       8.564  11.314  21.572  0.00  0.00    +0.000 A 
ATOM     20  C   UNL     1       9.531  11.687  20.607  0.00  0.00    +0.000 A 
ENDBRANCH   9  11
ENDBRANCH   1   8
BRANCH   5  21
ATOM     21  S   UNL     1       5.565   5.605  15.928  0.00  0.00    +0.000 S 
ATOM     22  O   UNL     1       5.191   6.775  15.162  0.00  0.00    +0.000 OA
ATOM     23  O   UNL     1       6.106   4.430  15.275  0.00  0.00    +0.000 OA
BRANCH  21  24
ATOM     24  N   UNL     1       4.233   5.134  16.895  0.00  0.00    +0.000 NA
ATOM     25  C   UNL     1       4.082   3.683  17.149  0.00  0.00    +0.000 C 
ATOM     26  C   UNL     1       2.624   3.243  17.270  0.00  0.00    +0.000 C 
ATOM     27  C   UNL     1       2.015   3.469  18.648  0.00  0.00    +0.000 C 
ATOM     28  C   UNL     1       1.899   4.936  19.029  0.00  0.00    +0.000 C 
ATOM     29  C   UNL     1       3.260   5.587  19.221  0.00  0.00    +0.000 C 
ATOM     30  C   UNL     1       3.860   6.125  17.935  0.00  0.00    +0.000 C 
ENDBRANCH  21  24
ENDBRANCH   5  21
TORSDOF 4
ENDMDL
MODEL 2
REMARK VINA RESULT:      -8.9      0.249      1.157
REMARK  Name = 
REMARK  4 active torsions:
REMARK  status: ('A' for Active; 'I' for Inactive)
REMARK    1  A    between atoms: C_2  and  C_14
REMARK    2  A    between atoms: N_3  and  C_4
REMARK    3  A    between atoms: C_18  and  S_19
REMARK    4  A    between atoms: S_19  and  N_22
REMARK                            x       y       z     vdW  Elec       q    Type
REMARK                         _______ _______ _______ _____ _____    ______ ____
ROOT
ATOM      1  C   UNL     1       8.055   7.997  18.256  0.00  0.00    +0.000 A 
ATOM      2  C   UNL     1       8.560   7.139  19.242  0.00  0.00    +0.000 A 
ATOM      3  C   UNL     1       8.180   5.799  19.259  0.00  0.00    +0.000 A 
ATOM      4  C   UNL     1       7.286   5.320  18.301  0.00  0.00    +0.000 A 
ATOM      5  C   UNL     1       6.803   6.178  17.302  0.00  0.00    +0.000 A 
ATOM      6  C   UNL     1       7.195   7.519  17.268  0.00  0.00    +0.000 A 
ENDROOT
BRANCH   1   8
ATOM      7  O   UNL     1       7.961  10.171  17.490  0.00  0.00    +0.000 OA
ATOM      8  C   UNL     1       8.461   9.416  18.316  0.00  0.00    +0.000 C 
ATOM      9  N   UNL     1       9.430   9.722  19.257  0.00  0.00    +0.000 N 
ATOM     10  H   UNL     1       9.866   8.950  19.741  0.00  0.00    +0.000 HD
BRANCH   9  11
ATOM     11  C   UNL     1      10.016  11.002  19.442  0.00  0.00    +0.000 A 
ATOM     12  C   UNL     1      10.996  11.458  18.555  0.00  0.00    +0.000 A 
ATOM     13  C   UNL     1      11.612  12.685  18.746  0.00  0.00    +0.000 A 
ATOM     14  C   UNL     1      11.251  13.469  19.823  0.00  0.00    +0.000 A 
ATOM     15  C   UNL     1      10.275  13.073  20.725  0.00  0.00    +0.000 A 
ATOM     16  N   UNL     1      10.007  13.908  21.742  0.00  0.00    +0.000 NA
ATOM     17  C   UNL     1       9.085  13.534  22.650  0.00  0.00    +0.000 A 
ATOM     18  C   UNL     1       8.386  12.349  22.585  0.00  0.00    +0.000 A 
ATOM     19  C   UNL     1       8.656  11.490  21.522  0.00  0.00    +0.000 A 
ATOM     20  C   UNL     1       9.628  11.824  20.547  0.00  0.00    +0.000 A 
ENDBRANCH   9  11
ENDBRANCH   1   8
BRANCH   5  21
ATOM     21  S   UNL     1       5.526   5.633  16.178  0.00  0.00    +0.000 S 
ATOM     22  O   UNL     1       5.017   6.813  15.511  0.00  0.00    +0.000 OA
ATOM     23  O   UNL     1       6.088   4.533  15.419  0.00  0.00    +0.000 OA
BRANCH  21  24
ATOM     24  N   UNL     1       4.310   5.022  17.216  0.00  0.00    +0.000 NA
ATOM     25  C   UNL     1       3.354   6.010  17.764  0.00  0.00    +0.000 C 
ATOM     26  C   UNL     1       2.866   5.660  19.169  0.00  0.00    +0.000 C 
ATOM     27  C   UNL     1       1.724   4.652  19.201  0.00  0.00    +0.000 C 
ATOM     28  C   UNL     1       2.113   3.276  18.686  0.00  0.00    +0.000 C 
ATOM     29  C   UNL     1       2.425   3.289  17.197  0.00  0.00    +0.000 C 
ATOM     30  C   UNL     1       3.866   3.646  16.884  0.00  0.00    +0.000 C 
ENDBRANCH  21  24
ENDBRANCH   5  21
TORSDOF 4
ENDMDL
MODEL 3
REMARK VINA RESULT:      -8.7      0.888      2.195
REMARK  Name = 
REMARK  4 active torsions:
REMARK  status: ('A' for Active; 'I' for Inactive)
REMARK    1  A    between atoms: C_2  and  C_14
REMARK    2  A    between atoms: N_3  and  C_4
REMARK    3  A    between atoms: C_18  and  S_19
REMARK    4  A    between atoms: S_19  and  N_22
REMARK                            x       y       z     vdW  Elec       q    Type
REMARK                         _______ _______ _______ _____ _____    ______ ____
ROOT
ATOM      1  C   UNL     1       7.973   7.968  18.244  0.00  0.00    +0.000 A 
ATOM      2  C   UNL     1       8.517   7.024  19.125  0.00  0.00    +0.000 A 
ATOM      3  C   UNL     1       8.220   5.672  18.965  0.00  0.00    +0.000 A 
ATOM      4  C   UNL     1       7.372   5.266  17.935  0.00  0.00    +0.000 A 
ATOM      5  C   UNL     1       6.850   6.213  17.041  0.00  0.00    +0.000 A 
ATOM      6  C   UNL     1       7.158   7.568  17.185  0.00  0.00    +0.000 A 
ENDROOT
BRANCH   1   8
ATOM      7  O   UNL     1       7.884  10.199  17.664  0.00  0.00    +0.000 OA
ATOM      8  C   UNL     1       8.288   9.390  18.491  0.00  0.00    +0.000 C 
ATOM      9  N   UNL     1       9.080   9.644  19.599  0.00  0.00    +0.000 N 
ATOM     10  H   UNL     1       9.475   8.847  20.078  0.00  0.00    +0.000 HD
BRANCH   9  11
ATOM     11  C   UNL     1       9.561  10.923  19.986  0.00  0.00    +0.000 A 
ATOM     12  C   UNL     1       9.169  11.477  21.207  0.00  0.00    +0.000 A 
ATOM     13  C   UNL     1       9.591  12.744  21.582  0.00  0.00    +0.000 A 
ATOM     14  C   UNL     1      10.414  13.464  20.739  0.00  0.00    +0.000 A 
ATOM     15  C   UNL     1      10.845  12.957  19.523  0.00  0.00    +0.000 A 
ATOM     16  N   UNL     1      11.635  13.746  18.777  0.00  0.00    +0.000 NA
ATOM     17  C   UNL     1      12.044  13.289  17.577  0.00  0.00    +0.000 A 
ATOM     18  C   UNL     1      11.711  12.049  17.078  0.00  0.00    +0.000 A 
ATOM     19  C   UNL     1      10.902  11.228  17.860  0.00  0.00    +0.000 A 
ATOM     20  C   UNL     1      10.429  11.662  19.121  0.00  0.00    +0.000 A 
ENDBRANCH   9  11
ENDBRANCH   1   8
BRANCH   5  21
ATOM     21  S   UNL     1       5.626   5.738  15.830  0.00  0.00    +0.000 S 
ATOM     22  O   UNL     1       5.244   6.941  15.120  0.00  0.00    +0.000 OA
ATOM     23  O   UNL     1       6.169   4.597  15.121  0.00  0.00    +0.000 OA
BRANCH  21  24
ATOM     24  N   UNL     1       4.301   5.218  16.780  0.00  0.00    +0.000 NA
ATOM     25  C   UNL     1       4.214   3.766  17.053  0.00  0.00    +0.000 C 
ATOM     26  C   UNL     1       2.777   3.258  17.155  0.00  0.00    +0.000 C 
ATOM     27  C   UNL     1       2.132   3.474  18.518  0.00  0.00    +0.000 C 
ATOM     28  C   UNL     1       1.940   4.939  18.875  0.00  0.00    +0.000 C 
ATOM     29  C   UNL     1       3.265   5.657  19.081  0.00  0.00    +0.000 C 
ATOM     30  C   UNL     1       3.862   6.204  17.798  0.00  0.00    +0.000 C 
ENDBRANCH  21  24
ENDBRANCH   5  21
TORSDOF 4
ENDMDL
MODEL 4
REMARK VINA RESULT:      -8.7      6.538     10.096
REMARK  Name = 
REMARK  4 active torsions:
REMARK  status: ('A' for Active; 'I' for Inactive)
REMARK    1  A    between atoms: C_2  and  C_14
REMARK    2  A    between atoms: N_3  and  C_4
REMARK    3  A    between atoms: C_18  and  S_19
REMARK    4  A    between atoms: S_19  and  N_22
REMARK                            x       y       z     vdW  Elec       q    Type
REMARK                         _______ _______ _______ _____ _____    ______ ____
ROOT
ATOM      1  C   UNL     1       1.004   9.358  19.425  0.00  0.00    +0.000 A 
ATOM      2  C   UNL     1       1.030   8.960  20.767  0.00  0.00    +0.000 A 
ATOM      3  C   UNL     1       0.266   9.644  21.711  0.00  0.00    +0.000 A 
ATOM      4  C   UNL     1      -0.511  10.732  21.314  0.00  0.00    +0.000 A 
ATOM      5  C   UNL     1      -0.552  11.111  19.964  0.00  0.00    +0.000 A 
ATOM      6  C   UNL     1       0.198  10.418  19.011  0.00  0.00    +0.000 A 
ENDROOT
BRANCH   1   8
ATOM      7  O   UNL     1       2.001   9.102  17.360  0.00  0.00    +0.000 OA
ATOM      8  C   UNL     1       1.869   8.621  18.479  0.00  0.00    +0.000 C 
ATOM      9  N   UNL     1       2.374   7.418  18.944  0.00  0.00    +0.000 N 
ATOM     10  H   UNL     1       2.026   7.081  19.830  0.00  0.00    +0.000 HD
BRANCH   9  11
ATOM     11  C   UNL     1       3.166   6.516  18.187  0.00  0.00    +0.000 A 
ATOM     12  C   UNL     1       4.267   6.988  17.465  0.00  0.00    +0.000 A 
ATOM     13  C   UNL     1       5.025   6.130  16.683  0.00  0.00    +0.000 A 
ATOM     14  C   UNL     1       4.692   4.792  16.620  0.00  0.00    +0.000 A 
ATOM     15  C   UNL     1       3.621   4.268  17.327  0.00  0.00    +0.000 A 
ATOM     16  N   UNL     1       3.380   2.954  17.187  0.00  0.00    +0.000 NA
ATOM     17  C   UNL     1       2.326   2.425  17.839  0.00  0.00    +0.000 A 
ATOM     18  C   UNL     1       1.490   3.152  18.657  0.00  0.00    +0.000 A 
ATOM     19  C   UNL     1       1.750   4.512  18.811  0.00  0.00    +0.000 A 
ATOM     20  C   UNL     1       2.833   5.126  18.136  0.00  0.00    +0.000 A 
ENDBRANCH   9  11
ENDBRANCH   1   8
BRANCH   5  21
ATOM     21  S   UNL     1      -1.397  12.604  19.466  0.00  0.00    +0.000 S 
ATOM     22  O   UNL     1      -1.287  13.540  20.566  0.00  0.00    +0.000 OA
ATOM     23  O   UNL     1      -0.894  12.942  18.150  0.00  0.00    +0.000 OA
BRANCH  21  24
ATOM     24  N   UNL     1      -3.031  12.114  19.325  0.00  0.00    +0.000 NA
ATOM     25  C   UNL     1      -4.038  12.975  19.986  0.00  0.00    +0.000 C 
ATOM     26  C   UNL     1      -5.237  12.195  20.522  0.00  0.00    +0.000 C 
ATOM     27  C   UNL     1      -6.300  11.887  19.476  0.00  0.00    +0.000 C 
ATOM     28  C   UNL     1      -5.822  10.950  18.379  0.00  0.00    +0.000 C 
ATOM     29  C   UNL     1      -4.754  11.590  17.504  0.00  0.00    +0.000 C 
ATOM     30  C   UNL     1      -3.348  11.427  18.049  0.00  0.00    +0.000 C 
ENDBRANCH  21  24
ENDBRANCH   5  21
TORSDOF 4
ENDMDL
MODEL 5
REMARK VINA RESULT:      -8.5      7.457     10.894
REMARK  Name = 
REMARK  4 active torsions:
REMARK  status: ('A' for Active; 'I' for Inactive)
REMARK    1  A    between atoms: C_2  and  C_14
REMARK    2  A    between atoms: N_3  and  C_4
REMARK    3  A    between atoms: C_18  and  S_19
REMARK    4  A    between atoms: S_19  and  N_22
REMARK                            x       y       z     vdW  Elec       q    Type
REMARK                         _______ _______ _______ _____ _____    ______ ____
ROOT
ATOM      1  C   UNL     1       0.490   9.439  21.005  0.00  0.00    +0.000 A 
ATOM      2  C   UNL     1       0.515   8.919  22.305  0.00  0.00    +0.000 A 
ATOM      3  C   UNL     1      -0.131   9.596  23.338  0.00  0.00    +0.000 A 
ATOM      4  C   UNL     1      -0.791  10.796  23.074  0.00  0.00    +0.000 A 
ATOM      5  C   UNL     1      -0.834  11.299  21.765  0.00  0.00    +0.000 A 
ATOM      6  C   UNL     1      -0.203  10.616  20.722  0.00  0.00    +0.000 A 
ENDROOT
BRANCH   1   8
ATOM      7  O   UNL     1       1.261   9.202  18.844  0.00  0.00    +0.000 OA
ATOM      8  C   UNL     1       1.230   8.700  19.961  0.00  0.00    +0.000 C 
ATOM      9  N   UNL     1       1.744   7.474  20.348  0.00  0.00    +0.000 N 
ATOM     10  H   UNL     1       1.479   7.126  21.259  0.00  0.00    +0.000 HD
BRANCH   9  11
ATOM     11  C   UNL     1       2.427   6.567  19.495  0.00  0.00    +0.000 A 
ATOM     12  C   UNL     1       3.306   7.050  18.522  0.00  0.00    +0.000 A 
ATOM     13  C   UNL     1       3.947   6.183  17.650  0.00  0.00    +0.000 A 
ATOM     14  C   UNL     1       3.718   4.825  17.748  0.00  0.00    +0.000 A 
ATOM     15  C   UNL     1       2.868   4.291  18.704  0.00  0.00    +0.000 A 
ATOM     16  N   UNL     1       2.709   2.958  18.704  0.00  0.00    +0.000 NA
ATOM     17  C   UNL     1       1.865   2.415  19.603  0.00  0.00    +0.000 A 
ATOM     18  C   UNL     1       1.166   3.150  20.536  0.00  0.00    +0.000 A 
ATOM     19  C   UNL     1       1.343   4.532  20.542  0.00  0.00    +0.000 A 
ATOM     20  C   UNL     1       2.204   5.158  19.609  0.00  0.00    +0.000 A 
ENDBRANCH   9  11
ENDBRANCH   1   8
BRANCH   5  21
ATOM     21  S   UNL     1      -1.517  12.917  21.437  0.00  0.00    +0.000 S 
ATOM     22  O   UNL     1      -0.761  13.864  22.229  0.00  0.00    +0.000 OA
ATOM     23  O   UNL     1      -1.595  13.046  19.996  0.00  0.00    +0.000 OA
BRANCH  21  24
ATOM     24  N   UNL     1      -3.105  12.818  22.069  0.00  0.00    +0.000 NA
ATOM     25  C   UNL     1      -3.323  13.422  23.404  0.00  0.00    +0.000 C 
ATOM     26  C   UNL     1      -4.375  12.687  24.232  0.00  0.00    +0.000 C 
ATOM     27  C   UNL     1      -5.811  13.075  23.907  0.00  0.00    +0.000 C 
ATOM     28  C   UNL     1      -6.242  12.693  22.500  0.00  0.00    +0.000 C 
ATOM     29  C   UNL     1      -5.496  13.485  21.437  0.00  0.00    +0.000 C 
ATOM     30  C   UNL     1      -4.170  12.864  21.038  0.00  0.00    +0.000 C 
ENDBRANCH  21  24
ENDBRANCH   5  21
TORSDOF 4
ENDMDL
MODEL 6
REMARK VINA RESULT:      -8.4      6.337      9.935
REMARK  Name = 
REMARK  4 active torsions:
REMARK  status: ('A' for Active; 'I' for Inactive)
REMARK    1  A    between atoms: C_2  and  C_14
REMARK    2  A    between atoms: N_3  and  C_4
REMARK    3  A    between atoms: C_18  and  S_19
REMARK    4  A    between atoms: S_19  and  N_22
REMARK                            x       y       z     vdW  Elec       q    Type
REMARK                         _______ _______ _______ _____ _____    ______ ____
ROOT
ATOM      1  C   UNL     1       1.212   8.679  20.384  0.00  0.00    +0.000 A 
ATOM      2  C   UNL     1       1.088   8.446  21.760  0.00  0.00    +0.000 A 
ATOM      3  C   UNL     1       0.336   9.316  22.548  0.00  0.00    +0.000 A 
ATOM      4  C   UNL     1      -0.278  10.423  21.964  0.00  0.00    +0.000 A 
ATOM      5  C   UNL     1      -0.171  10.638  20.582  0.00  0.00    +0.000 A 
ATOM      6  C   UNL     1       0.566   9.759  19.783  0.00  0.00    +0.000 A 
ENDROOT
BRANCH   1   8
ATOM      7  O   UNL     1       2.280   8.042  18.441  0.00  0.00    +0.000 OA
ATOM      8  C   UNL     1       2.057   7.747  19.609  0.00  0.00    +0.000 C 
ATOM      9  N   UNL     1       2.441   6.594  20.274  0.00  0.00    +0.000 N 
ATOM     10  H   UNL     1       2.026   6.421  21.179  0.00  0.00    +0.000 HD
BRANCH   9  11
ATOM     11  C   UNL     1       3.192   5.533  19.705  0.00  0.00    +0.000 A 
ATOM     12  C   UNL     1       4.543   5.718  19.398  0.00  0.00    +0.000 A 
ATOM     13  C   UNL     1       5.281   4.708  18.800  0.00  0.00    +0.000 A 
ATOM     14  C   UNL     1       4.676   3.503  18.507  0.00  0.00    +0.000 A 
ATOM     15  C   UNL     1       3.344   3.260  18.804  0.00  0.00    +0.000 A 
ATOM     16  N   UNL     1       2.852   2.056  18.468  0.00  0.00    +0.000 NA
ATOM     17  C   UNL     1       1.552   1.804  18.717  0.00  0.00    +0.000 A 
ATOM     18  C   UNL     1       0.700   2.707  19.314  0.00  0.00    +0.000 A 
ATOM     19  C   UNL     1       1.215   3.950  19.673  0.00  0.00    +0.000 A 
ATOM     20  C   UNL     1       2.570   4.277  19.419  0.00  0.00    +0.000 A 
ENDBRANCH   9  11
ENDBRANCH   1   8
BRANCH   5  21
ATOM     21  S   UNL     1      -0.799  12.139  19.845  0.00  0.00    +0.000 S 
ATOM     22  O   UNL     1      -1.335  12.947  20.921  0.00  0.00    +0.000 OA
ATOM     23  O   UNL     1       0.252  12.647  18.987  0.00  0.00    +0.000 OA
BRANCH  21  24
ATOM     24  N   UNL     1      -2.096  11.597  18.869  0.00  0.00    +0.000 NA
ATOM     25  C   UNL     1      -3.367  12.347  18.984  0.00  0.00    +0.000 C 
ATOM     26  C   UNL     1      -4.603  11.469  18.793  0.00  0.00    +0.000 C 
ATOM     27  C   UNL     1      -4.972  11.219  17.336  0.00  0.00    +0.000 C 
ATOM     28  C   UNL     1      -3.933  10.413  16.574  0.00  0.00    +0.000 C 
ATOM     29  C   UNL     1      -2.630  11.179  16.399  0.00  0.00    +0.000 C 
ATOM     30  C   UNL     1      -1.675  11.023  17.567  0.00  0.00    +0.000 C 
ENDBRANCH  21  24
ENDBRANCH   5  21
TORSDOF 4
ENDMDL
MODEL 7
REMARK VINA RESULT:      -8.4      6.416     10.020
REMARK  Name = 
REMARK  4 active torsions:
REMARK  status: ('A' for Active; 'I' for Inactive)
REMARK    1  A    between atoms: C_2  and  C_14
REMARK    2  A    between atoms: N_3  and  C_4
REMARK    3  A    between atoms: C_18  and  S_19
REMARK    4  A    between atoms: S_19  and  N_22
REMARK                            x       y       z     vdW  Elec       q    Type
REMARK                         _______ _______ _______ _____ _____    ______ ____
ROOT
ATOM      1  C   UNL     1       1.137   9.316  19.426  0.00  0.00    +0.000 A 
ATOM      2  C   UNL     1       0.991   8.826  20.730  0.00  0.00    +0.000 A 
ATOM      3  C   UNL     1       0.246   9.545  21.664  0.00  0.00    +0.000 A 
ATOM      4  C   UNL     1      -0.340  10.756  21.298  0.00  0.00    +0.000 A 
ATOM      5  C   UNL     1      -0.211  11.229  19.983  0.00  0.00    +0.000 A 
ATOM      6  C   UNL     1       0.520  10.505  19.038  0.00  0.00    +0.000 A 
ENDROOT
BRANCH   1   8
ATOM      7  O   UNL     1       2.163   9.011  17.382  0.00  0.00    +0.000 OA
ATOM      8  C   UNL     1       1.975   8.533  18.494  0.00  0.00    +0.000 C 
ATOM      9  N   UNL     1       2.392   7.297  18.960  0.00  0.00    +0.000 N 
ATOM     10  H   UNL     1       2.003   6.976  19.836  0.00  0.00    +0.000 HD
BRANCH   9  11
ATOM     11  C   UNL     1       3.143   6.351  18.213  0.00  0.00    +0.000 A 
ATOM     12  C   UNL     1       4.230   6.773  17.443  0.00  0.00    +0.000 A 
ATOM     13  C   UNL     1       4.947   5.872  16.671  0.00  0.00    +0.000 A 
ATOM     14  C   UNL     1       4.585   4.539  16.667  0.00  0.00    +0.000 A 
ATOM     15  C   UNL     1       3.526   4.064  17.424  0.00  0.00    +0.000 A 
ATOM     16  N   UNL     1       3.254   2.752  17.339  0.00  0.00    +0.000 NA
ATOM     17  C   UNL     1       2.210   2.269  18.040  0.00  0.00    +0.000 A 
ATOM     18  C   UNL     1       1.414   3.043  18.856  0.00  0.00    +0.000 A 
ATOM     19  C   UNL     1       1.706   4.402  18.952  0.00  0.00    +0.000 A 
ATOM     20  C   UNL     1       2.780   4.967  18.224  0.00  0.00    +0.000 A 
ENDBRANCH   9  11
ENDBRANCH   1   8
BRANCH   5  21
ATOM     21  S   UNL     1      -0.800  12.857  19.544  0.00  0.00    +0.000 S 
ATOM     22  O   UNL     1      -0.543  13.721  20.677  0.00  0.00    +0.000 OA
ATOM     23  O   UNL     1      -0.245  13.157  18.239  0.00  0.00    +0.000 OA
BRANCH  21  24
ATOM     24  N   UNL     1      -2.492  12.644  19.389  0.00  0.00    +0.000 NA
ATOM     25  C   UNL     1      -2.941  11.431  18.669  0.00  0.00    +0.000 C 
ATOM     26  C   UNL     1      -4.235  11.641  17.885  0.00  0.00    +0.000 C 
ATOM     27  C   UNL     1      -5.501  11.519  18.724  0.00  0.00    +0.000 C 
ATOM     28  C   UNL     1      -5.635  12.600  19.785  0.00  0.00    +0.000 C 
ATOM     29  C   UNL     1      -4.575  12.473  20.869  0.00  0.00    +0.000 C 
ATOM     30  C   UNL     1      -3.275  13.179  20.529  0.00  0.00    +0.000 C 
ENDBRANCH  21  24
ENDBRANCH   5  21
TORSDOF 4
ENDMDL
MODEL 8
REMARK VINA RESULT:      -8.4      5.636      7.765
REMARK  Name = 
REMARK  4 active torsions:
REMARK  status: ('A' for Active; 'I' for Inactive)
REMARK    1  A    between atoms: C_2  and  C_14
REMARK    2  A    between atoms: N_3  and  C_4
REMARK    3  A    between atoms: C_18  and  S_19
REMARK    4  A    between atoms: S_19  and  N_22
REMARK                            x       y       z     vdW  Elec       q    Type
REMARK                         _______ _______ _______ _____ _____    ______ ____
ROOT
ATOM      1  C   UNL     1       2.095   6.598  19.536  0.00  0.00    +0.000 A 
ATOM      2  C   UNL     1       1.779   6.202  20.841  0.00  0.00    +0.000 A 
ATOM      3  C   UNL     1       1.927   4.868  21.218  0.00  0.00    +0.000 A 
ATOM      4  C   UNL     1       2.377   3.932  20.289  0.00  0.00    +0.000 A 
ATOM      5  C   UNL     1       2.716   4.339  18.990  0.00  0.00    +0.000 A 
ATOM      6  C   UNL     1       2.587   5.678  18.610  0.00  0.00    +0.000 A 
ENDROOT
BRANCH   1   8
ATOM      7  O   UNL     1       2.560   8.474  18.275  0.00  0.00    +0.000 OA
ATOM      8  C   UNL     1       1.875   8.016  19.183  0.00  0.00    +0.000 C 
ATOM      9  N   UNL     1       0.968   8.697  19.978  0.00  0.00    +0.000 N 
ATOM     10  H   UNL     1       0.620   8.219  20.797  0.00  0.00    +0.000 HD
BRANCH   9  11
ATOM     11  C   UNL     1       0.655  10.077  19.866  0.00  0.00    +0.000 A 
ATOM     12  C   UNL     1       1.280  11.006  20.702  0.00  0.00    +0.000 A 
ATOM     13  C   UNL     1       0.953  12.352  20.638  0.00  0.00    +0.000 A 
ATOM     14  C   UNL     1       0.003  12.781  19.733  0.00  0.00    +0.000 A 
ATOM     15  C   UNL     1      -0.636  11.905  18.870  0.00  0.00    +0.000 A 
ATOM     16  N   UNL     1      -1.551  12.426  18.037  0.00  0.00    +0.000 NA
ATOM     17  C   UNL     1      -2.210  11.593  17.208  0.00  0.00    +0.000 A 
ATOM     18  C   UNL     1      -1.985  10.235  17.154  0.00  0.00    +0.000 A 
ATOM     19  C   UNL     1      -1.026   9.698  18.010  0.00  0.00    +0.000 A 
ATOM     20  C   UNL     1      -0.316  10.524  18.915  0.00  0.00    +0.000 A 
ENDBRANCH   9  11
ENDBRANCH   1   8
BRANCH   5  21
ATOM     21  S   UNL     1       3.123   3.132  17.737  0.00  0.00    +0.000 S 
ATOM     22  O   UNL     1       3.237   1.852  18.405  0.00  0.00    +0.000 OA
ATOM     23  O   UNL     1       2.177   3.326  16.657  0.00  0.00    +0.000 OA
BRANCH  21  24
ATOM     24  N   UNL     1       4.676   3.613  17.204  0.00  0.00    +0.000 NA
ATOM     25  C   UNL     1       4.748   4.252  15.870  0.00  0.00    +0.000 C 
ATOM     26  C   UNL     1       6.045   3.945  15.125  0.00  0.00    +0.000 C 
ATOM     27  C   UNL     1       7.220   4.828  15.525  0.00  0.00    +0.000 C 
ATOM     28  C   UNL     1       7.668   4.630  16.965  0.00  0.00    +0.000 C 
ATOM     29  C   UNL     1       6.619   5.101  17.961  0.00  0.00    +0.000 C 
ATOM     30  C   UNL     1       5.584   4.043  18.296  0.00  0.00    +0.000 C 
ENDBRANCH  21  24
ENDBRANCH   5  21
TORSDOF 4
ENDMDL
MODEL 9
REMARK VINA RESULT:      -8.4      6.710     10.312
REMARK  Name = 
REMARK  4 active torsions:
REMARK  status: ('A' for Active; 'I' for Inactive)
REMARK    1  A    between atoms: C_2  and  C_14
REMARK    2  A    between atoms: N_3  and  C_4
REMARK    3  A    between atoms: C_18  and  S_19
REMARK    4  A    between atoms: S_19  and  N_22
REMARK                            x       y       z     vdW  Elec       q    Type
REMARK                         _______ _______ _______ _____ _____    ______ ____
ROOT
ATOM      1  C   UNL     1       1.101   9.127  19.813  0.00  0.00    +0.000 A 
ATOM      2  C   UNL     1       1.087   8.604  21.113  0.00  0.00    +0.000 A 
ATOM      3  C   UNL     1       0.422   9.287  22.130  0.00  0.00    +0.000 A 
ATOM      4  C   UNL     1      -0.216  10.494  21.851  0.00  0.00    +0.000 A 
ATOM      5  C   UNL     1      -0.221  11.000  20.542  0.00  0.00    +0.000 A 
ATOM      6  C   UNL     1       0.429  10.312  19.514  0.00  0.00    +0.000 A 
ENDROOT
BRANCH   1   8
ATOM      7  O   UNL     1       1.845   8.834  17.649  0.00  0.00    +0.000 OA
ATOM      8  C   UNL     1       1.859   8.381  18.788  0.00  0.00    +0.000 C 
ATOM      9  N   UNL     1       2.441   7.199  19.216  0.00  0.00    +0.000 N 
ATOM     10  H   UNL     1       2.210   6.879  20.146  0.00  0.00    +0.000 HD
BRANCH   9  11
ATOM     11  C   UNL     1       3.154   6.292  18.389  0.00  0.00    +0.000 A 
ATOM     12  C   UNL     1       4.224   6.746  17.612  0.00  0.00    +0.000 A 
ATOM     13  C   UNL     1       4.903   5.884  16.764  0.00  0.00    +0.000 A 
ATOM     14  C   UNL     1       4.521   4.559  16.690  0.00  0.00    +0.000 A 
ATOM     15  C   UNL     1       3.478   4.052  17.450  0.00  0.00    +0.000 A 
ATOM     16  N   UNL     1       3.184   2.752  17.293  0.00  0.00    +0.000 NA
ATOM     17  C   UNL     1       2.155   2.240  17.997  0.00  0.00    +0.000 A 
ATOM     18  C   UNL     1       1.396   2.973  18.883  0.00  0.00    +0.000 A 
ATOM     19  C   UNL     1       1.712   4.319  19.053  0.00  0.00    +0.000 A 
ATOM     20  C   UNL     1       2.771   4.914  18.327  0.00  0.00    +0.000 A 
ENDBRANCH   9  11
ENDBRANCH   1   8
BRANCH   5  21
ATOM     21  S   UNL     1      -0.877  12.626  20.200  0.00  0.00    +0.000 S 
ATOM     22  O   UNL     1      -0.020  13.579  20.875  0.00  0.00    +0.000 OA
ATOM     23  O   UNL     1      -1.080  12.694  18.768  0.00  0.00    +0.000 OA
BRANCH  21  24
ATOM     24  N   UNL     1      -2.403  12.615  20.975  0.00  0.00    +0.000 NA
ATOM     25  C   UNL     1      -2.476  13.278  22.297  0.00  0.00    +0.000 C 
ATOM     26  C   UNL     1      -3.474  12.617  23.247  0.00  0.00    +0.000 C 
ATOM     27  C   UNL     1      -4.919  13.050  23.036  0.00  0.00    +0.000 C 
ATOM     28  C   UNL     1      -5.490  12.631  21.690  0.00  0.00    +0.000 C 
ATOM     29  C   UNL     1      -4.815  13.352  20.533  0.00  0.00    +0.000 C 
ATOM     30  C   UNL     1      -3.555  12.663  20.043  0.00  0.00    +0.000 C 
ENDBRANCH  21  24
ENDBRANCH   5  21
TORSDOF 4
ENDMDL
