MODEL 1
REMARK VINA RESULT:      -8.2      0.000      0.000
REMARK  Name = 
REMARK  4 active torsions:
REMARK  status: ('A' for Active; 'I' for Inactive)
REMARK    1  A    between atoms: C_2  and  C_16
REMARK    2  A    between atoms: N_3  and  C_4
REMARK    3  A    between atoms: C_7  and  S_8
REMARK    4  A    between atoms: S_8  and  C_11
REMARK                            x       y       z     vdW  Elec       q    Type
REMARK                         _______ _______ _______ _____ _____    ______ ____
ROOT
ATOM      1  O   UNL     1       5.515   5.506  18.922  0.00  0.00    +0.000 OA
ATOM      2  C   UNL     1       4.907   5.653  17.870  0.00  0.00    +0.000 C 
ATOM      3  N   UNL     1       3.678   6.254  17.708  0.00  0.00    +0.000 N 
ATOM      4  H   UNL     1       3.343   6.345  16.762  0.00  0.00    +0.000 HD
ENDROOT
BRANCH   2   5
ATOM      5  C   UNL     1       5.538   5.223  16.581  0.00  0.00    +0.000 C 
ATOM      6  C   UNL     1       4.883   4.722  15.517  0.00  0.00    +0.000 C 
ATOM      7  C   UNL     1       5.704   4.389  14.345  0.00  0.00    +0.000 A 
ATOM      8  C   UNL     1       5.286   3.483  13.369  0.00  0.00    +0.000 A 
ATOM      9  C   UNL     1       6.128   3.208  12.286  0.00  0.00    +0.000 A 
ATOM     10 BR   UNL     1       5.642   1.863  11.047  0.00  0.00    +0.000 Br
ATOM     11  C   UNL     1       7.342   3.880  12.126  0.00  0.00    +0.000 A 
ATOM     12  C   UNL     1       7.752   4.802  13.087  0.00  0.00    +0.000 A 
ATOM     13  C   UNL     1       6.959   5.006  14.212  0.00  0.00    +0.000 A 
ATOM     14  O   UNL     1       7.463   5.810  15.206  0.00  0.00    +0.000 OA
ATOM     15  C   UNL     1       7.038   5.345  16.507  0.00  0.00    +0.000 C 
ENDBRANCH   2   5
BRANCH   3  16
ATOM     16  C   UNL     1       2.848   6.840  18.689  0.00  0.00    +0.000 A 
ATOM     17  C   UNL     1       2.433   6.228  19.874  0.00  0.00    +0.000 A 
ATOM     18  C   UNL     1       1.642   6.932  20.798  0.00  0.00    +0.000 A 
ATOM     19  C   UNL     1       1.271   8.254  20.528  0.00  0.00    +0.000 A 
ATOM     20  C   UNL     1       1.644   8.859  19.330  0.00  0.00    +0.000 A 
ATOM     21  C   UNL     1       2.433   8.156  18.422  0.00  0.00    +0.000 A 
BRANCH  19  22
ATOM     22  S   UNL     1       0.267   9.175  21.671  0.00  0.00    +0.000 S 
ATOM     23  O   UNL     1      -0.832   8.305  22.065  0.00  0.00    +0.000 OA
ATOM     24  O   UNL     1       1.154   9.707  22.696  0.00  0.00    +0.000 OA
BRANCH  22  25
ATOM     25  C   UNL     1      -0.373  10.523  20.667  0.00  0.00    +0.000 C 
ATOM     26  F   UNL     1      -1.188  10.090  19.663  0.00  0.00    +0.000 F 
ATOM     27  F   UNL     1      -1.108  11.415  21.393  0.00  0.00    +0.000 F 
ENDBRANCH  22  25
ENDBRANCH  19  22
ENDBRANCH   3  16
TORSDOF 4
ENDMDL
MODEL 2
REMARK VINA RESULT:      -7.9      5.921     10.743
REMARK  Name = 
REMARK  4 active torsions:
REMARK  status: ('A' for Active; 'I' for Inactive)
REMARK    1  A    between atoms: C_2  and  C_16
REMARK    2  A    between atoms: N_3  and  C_4
REMARK    3  A    between atoms: C_7  and  S_8
REMARK    4  A    between atoms: S_8  and  C_11
REMARK                            x       y       z     vdW  Elec       q    Type
REMARK                         _______ _______ _______ _____ _____    ______ ____
ROOT
ATOM      1  O   UNL     1       1.848   9.265  22.710  0.00  0.00    +0.000 OA
ATOM      2  C   UNL     1       1.095   9.622  21.813  0.00  0.00    +0.000 C 
ATOM      3  N   UNL     1       0.957   9.037  20.573  0.00  0.00    +0.000 N 
ATOM      4  H   UNL     1       0.248   9.422  19.970  0.00  0.00    +0.000 HD
ENDROOT
BRANCH   2   5
ATOM      5  C   UNL     1       0.149  10.760  22.046  0.00  0.00    +0.000 C 
ATOM      6  C   UNL     1      -0.906  10.743  22.883  0.00  0.00    +0.000 C 
ATOM      7  C   UNL     1      -1.686  11.985  22.973  0.00  0.00    +0.000 A 
ATOM      8  C   UNL     1      -3.008  12.009  23.416  0.00  0.00    +0.000 A 
ATOM      9  C   UNL     1      -3.691  13.229  23.464  0.00  0.00    +0.000 A 
ATOM     10 BR   UNL     1      -5.530  13.252  23.907  0.00  0.00    +0.000 Br
ATOM     11  C   UNL     1      -3.049  14.430  23.150  0.00  0.00    +0.000 A 
ATOM     12  C   UNL     1      -1.720  14.411  22.728  0.00  0.00    +0.000 A 
ATOM     13  C   UNL     1      -1.071  13.188  22.590  0.00  0.00    +0.000 A 
ATOM     14  O   UNL     1       0.186  13.197  22.034  0.00  0.00    +0.000 OA
ATOM     15  C   UNL     1       0.405  12.007  21.242  0.00  0.00    +0.000 C 
ENDBRANCH   2   5
BRANCH   3  16
ATOM     16  C   UNL     1       1.626   7.906  20.053  0.00  0.00    +0.000 A 
ATOM     17  C   UNL     1       1.697   6.652  20.665  0.00  0.00    +0.000 A 
ATOM     18  C   UNL     1       2.355   5.587  20.026  0.00  0.00    +0.000 A 
ATOM     19  C   UNL     1       2.938   5.785  18.771  0.00  0.00    +0.000 A 
ATOM     20  C   UNL     1       2.910   7.042  18.171  0.00  0.00    +0.000 A 
ATOM     21  C   UNL     1       2.250   8.092  18.809  0.00  0.00    +0.000 A 
BRANCH  19  22
ATOM     22  S   UNL     1       3.783   4.463  17.934  0.00  0.00    +0.000 S 
ATOM     23  O   UNL     1       4.475   5.054  16.798  0.00  0.00    +0.000 OA
ATOM     24  O   UNL     1       4.554   3.738  18.935  0.00  0.00    +0.000 OA
BRANCH  22  25
ATOM     25  C   UNL     1       2.441   3.425  17.337  0.00  0.00    +0.000 C 
ATOM     26  F   UNL     1       2.204   2.354  18.147  0.00  0.00    +0.000 F 
ATOM     27  F   UNL     1       1.258   4.100  17.245  0.00  0.00    +0.000 F 
ENDBRANCH  22  25
ENDBRANCH  19  22
ENDBRANCH   3  16
TORSDOF 4
ENDMDL
MODEL 3
REMARK VINA RESULT:      -7.9      5.445      9.884
REMARK  Name = 
REMARK  4 active torsions:
REMARK  status: ('A' for Active; 'I' for Inactive)
REMARK    1  A    between atoms: C_2  and  C_16
REMARK    2  A    between atoms: N_3  and  C_4
REMARK    3  A    between atoms: C_7  and  S_8
REMARK    4  A    between atoms: S_8  and  C_11
REMARK                            x       y       z     vdW  Elec       q    Type
REMARK                         _______ _______ _______ _____ _____    ______ ____
ROOT
ATOM      1  O   UNL     1       2.290  10.577  17.730  0.00  0.00    +0.000 OA
ATOM      2  C   UNL     1       1.366   9.951  18.235  0.00  0.00    +0.000 C 
ATOM      3  N   UNL     1       1.378   8.623  18.604  0.00  0.00    +0.000 N 
ATOM      4  H   UNL     1       0.550   8.277  19.061  0.00  0.00    +0.000 HD
ENDROOT
BRANCH   2   5
ATOM      5  C   UNL     1       0.091  10.657  18.580  0.00  0.00    +0.000 C 
ATOM      6  C   UNL     1      -1.146  10.255  18.232  0.00  0.00    +0.000 C 
ATOM      7  C   UNL     1      -2.258  11.092  18.701  0.00  0.00    +0.000 A 
ATOM      8  C   UNL     1      -3.512  11.087  18.088  0.00  0.00    +0.000 A 
ATOM      9  C   UNL     1      -4.520  11.920  18.584  0.00  0.00    +0.000 A 
ATOM     10 BR   UNL     1      -6.168  12.041  17.663  0.00  0.00    +0.000 Br
ATOM     11  C   UNL     1      -4.317  12.698  19.728  0.00  0.00    +0.000 A 
ATOM     12  C   UNL     1      -3.073  12.688  20.356  0.00  0.00    +0.000 A 
ATOM     13  C   UNL     1      -2.042  11.932  19.807  0.00  0.00    +0.000 A 
ATOM     14  O   UNL     1      -0.793  12.061  20.366  0.00  0.00    +0.000 OA
ATOM     15  C   UNL     1       0.235  11.939  19.357  0.00  0.00    +0.000 C 
ENDBRANCH   2   5
BRANCH   3  16
ATOM     16  C   UNL     1       2.433   7.689  18.501  0.00  0.00    +0.000 A 
ATOM     17  C   UNL     1       3.396   7.660  17.489  0.00  0.00    +0.000 A 
ATOM     18  C   UNL     1       4.429   6.706  17.519  0.00  0.00    +0.000 A 
ATOM     19  C   UNL     1       4.491   5.786  18.571  0.00  0.00    +0.000 A 
ATOM     20  C   UNL     1       3.512   5.780  19.562  0.00  0.00    +0.000 A 
ATOM     21  C   UNL     1       2.495   6.732  19.527  0.00  0.00    +0.000 A 
BRANCH  19  22
ATOM     22  S   UNL     1       5.780   4.562  18.641  0.00  0.00    +0.000 S 
ATOM     23  O   UNL     1       6.825   5.097  19.501  0.00  0.00    +0.000 OA
ATOM     24  O   UNL     1       5.155   3.293  18.988  0.00  0.00    +0.000 OA
BRANCH  22  25
ATOM     25  C   UNL     1       6.381   4.496  16.948  0.00  0.00    +0.000 C 
ATOM     26  F   UNL     1       7.719   4.244  16.873  0.00  0.00    +0.000 F 
ATOM     27  F   UNL     1       5.771   3.521  16.212  0.00  0.00    +0.000 F 
ENDBRANCH  22  25
ENDBRANCH  19  22
ENDBRANCH   3  16
TORSDOF 4
ENDMDL
MODEL 4
REMARK VINA RESULT:      -7.9      2.482      3.667
REMARK  Name = 
REMARK  4 active torsions:
REMARK  status: ('A' for Active; 'I' for Inactive)
REMARK    1  A    between atoms: C_2  and  C_16
REMARK    2  A    between atoms: N_3  and  C_4
REMARK    3  A    between atoms: C_7  and  S_8
REMARK    4  A    between atoms: S_8  and  C_11
REMARK                            x       y       z     vdW  Elec       q    Type
REMARK                         _______ _______ _______ _____ _____    ______ ____
ROOT
ATOM      1  O   UNL     1       1.549   5.927  20.500  0.00  0.00    +0.000 OA
ATOM      2  C   UNL     1       2.239   6.641  19.785  0.00  0.00    +0.000 C 
ATOM      3  N   UNL     1       2.135   8.008  19.641  0.00  0.00    +0.000 N 
ATOM      4  H   UNL     1       2.822   8.451  19.053  0.00  0.00    +0.000 HD
ENDROOT
BRANCH   2   5
ATOM      5  C   UNL     1       3.377   6.043  19.015  0.00  0.00    +0.000 C 
ATOM      6  C   UNL     1       3.610   6.215  17.700  0.00  0.00    +0.000 C 
ATOM      7  C   UNL     1       4.804   5.551  17.159  0.00  0.00    +0.000 A 
ATOM      8  C   UNL     1       4.947   5.256  15.803  0.00  0.00    +0.000 A 
ATOM      9  C   UNL     1       6.108   4.612  15.362  0.00  0.00    +0.000 A 
ATOM     10 BR   UNL     1       6.242   4.062  13.557  0.00  0.00    +0.000 Br
ATOM     11  C   UNL     1       7.157   4.331  16.242  0.00  0.00    +0.000 A 
ATOM     12  C   UNL     1       7.026   4.645  17.593  0.00  0.00    +0.000 A 
ATOM     13  C   UNL     1       5.833   5.199  18.048  0.00  0.00    +0.000 A 
ATOM     14  O   UNL     1       5.684   5.361  19.404  0.00  0.00    +0.000 OA
ATOM     15  C   UNL     1       4.309   5.155  19.798  0.00  0.00    +0.000 C 
ENDBRANCH   2   5
BRANCH   3  16
ATOM     16  C   UNL     1       1.237   8.895  20.275  0.00  0.00    +0.000 A 
ATOM     17  C   UNL     1       1.030   8.993  21.653  0.00  0.00    +0.000 A 
ATOM     18  C   UNL     1       0.139   9.950  22.171  0.00  0.00    +0.000 A 
ATOM     19  C   UNL     1      -0.539  10.808  21.300  0.00  0.00    +0.000 A 
ATOM     20  C   UNL     1      -0.372  10.690  19.922  0.00  0.00    +0.000 A 
ATOM     21  C   UNL     1       0.517   9.743  19.417  0.00  0.00    +0.000 A 
BRANCH  19  22
ATOM     22  S   UNL     1      -1.677  12.028  21.917  0.00  0.00    +0.000 S 
ATOM     23  O   UNL     1      -2.635  12.289  20.853  0.00  0.00    +0.000 OA
ATOM     24  O   UNL     1      -2.160  11.556  23.208  0.00  0.00    +0.000 OA
BRANCH  22  25
ATOM     25  C   UNL     1      -0.642  13.478  22.154  0.00  0.00    +0.000 C 
ATOM     26  F   UNL     1      -0.622  13.906  23.449  0.00  0.00    +0.000 F 
ATOM     27  F   UNL     1       0.661  13.256  21.810  0.00  0.00    +0.000 F 
ENDBRANCH  22  25
ENDBRANCH  19  22
ENDBRANCH   3  16
TORSDOF 4
ENDMDL
MODEL 5
REMARK VINA RESULT:      -7.8      5.964     10.350
REMARK  Name = 
REMARK  4 active torsions:
REMARK  status: ('A' for Active; 'I' for Inactive)
REMARK    1  A    between atoms: C_2  and  C_16
REMARK    2  A    between atoms: N_3  and  C_4
REMARK    3  A    between atoms: C_7  and  S_8
REMARK    4  A    between atoms: S_8  and  C_11
REMARK                            x       y       z     vdW  Elec       q    Type
REMARK                         _______ _______ _______ _____ _____    ______ ____
ROOT
ATOM      1  O   UNL     1       1.096   9.910  18.135  0.00  0.00    +0.000 OA
ATOM      2  C   UNL     1       0.984   9.701  19.336  0.00  0.00    +0.000 C 
ATOM      3  N   UNL     1       1.439   8.597  20.024  0.00  0.00    +0.000 N 
ATOM      4  H   UNL     1       1.316   8.609  21.024  0.00  0.00    +0.000 HD
ENDROOT
BRANCH   2   5
ATOM      5  C   UNL     1       0.363  10.742  20.216  0.00  0.00    +0.000 C 
ATOM      6  C   UNL     1      -0.422  10.498  21.283  0.00  0.00    +0.000 C 
ATOM      7  C   UNL     1      -0.902  11.676  22.019  0.00  0.00    +0.000 A 
ATOM      8  C   UNL     1      -2.035  11.640  22.833  0.00  0.00    +0.000 A 
ATOM      9  C   UNL     1      -2.439  12.805  23.494  0.00  0.00    +0.000 A 
ATOM     10 BR   UNL     1      -4.061  12.810  24.468  0.00  0.00    +0.000 Br
ATOM     11  C   UNL     1      -1.686  13.979  23.414  0.00  0.00    +0.000 A 
ATOM     12  C   UNL     1      -0.541  14.012  22.620  0.00  0.00    +0.000 A 
ATOM     13  C   UNL     1      -0.193  12.881  21.888  0.00  0.00    +0.000 A 
ATOM     14  O   UNL     1       0.855  12.994  21.005  0.00  0.00    +0.000 OA
ATOM     15  C   UNL     1       0.632  12.174  19.836  0.00  0.00    +0.000 C 
ENDBRANCH   2   5
BRANCH   3  16
ATOM     16  C   UNL     1       2.137   7.474  19.526  0.00  0.00    +0.000 A 
ATOM     17  C   UNL     1       2.843   7.425  18.322  0.00  0.00    +0.000 A 
ATOM     18  C   UNL     1       3.539   6.260  17.954  0.00  0.00    +0.000 A 
ATOM     19  C   UNL     1       3.523   5.147  18.800  0.00  0.00    +0.000 A 
ATOM     20  C   UNL     1       2.787   5.171  19.983  0.00  0.00    +0.000 A 
ATOM     21  C   UNL     1       2.105   6.332  20.343  0.00  0.00    +0.000 A 
BRANCH  19  22
ATOM     22  S   UNL     1       4.387   3.654  18.366  0.00  0.00    +0.000 S 
ATOM     23  O   UNL     1       5.270   3.984  17.257  0.00  0.00    +0.000 OA
ATOM     24  O   UNL     1       4.958   3.111  19.591  0.00  0.00    +0.000 OA
BRANCH  22  25
ATOM     25  C   UNL     1       3.076   2.572  17.780  0.00  0.00    +0.000 C 
ATOM     26  F   UNL     1       2.658   1.689  18.731  0.00  0.00    +0.000 F 
ATOM     27  F   UNL     1       1.964   3.260  17.387  0.00  0.00    +0.000 F 
ENDBRANCH  22  25
ENDBRANCH  19  22
ENDBRANCH   3  16
TORSDOF 4
ENDMDL
MODEL 6
REMARK VINA RESULT:      -7.8      5.864     10.647
REMARK  Name = 
REMARK  4 active torsions:
REMARK  status: ('A' for Active; 'I' for Inactive)
REMARK    1  A    between atoms: C_2  and  C_16
REMARK    2  A    between atoms: N_3  and  C_4
REMARK    3  A    between atoms: C_7  and  S_8
REMARK    4  A    between atoms: S_8  and  C_11
REMARK                            x       y       z     vdW  Elec       q    Type
REMARK                         _______ _______ _______ _____ _____    ______ ____
ROOT
ATOM      1  O   UNL     1       1.859   9.040  22.699  0.00  0.00    +0.000 OA
ATOM      2  C   UNL     1       1.157   9.366  21.751  0.00  0.00    +0.000 C 
ATOM      3  N   UNL     1       1.074   8.729  20.531  0.00  0.00    +0.000 N 
ATOM      4  H   UNL     1       0.401   9.096  19.878  0.00  0.00    +0.000 HD
ENDROOT
BRANCH   2   5
ATOM      5  C   UNL     1       0.214  10.522  21.887  0.00  0.00    +0.000 C 
ATOM      6  C   UNL     1      -0.743  10.646  22.827  0.00  0.00    +0.000 C 
ATOM      7  C   UNL     1      -1.538  11.881  22.786  0.00  0.00    +0.000 A 
ATOM      8  C   UNL     1      -2.805  11.976  23.363  0.00  0.00    +0.000 A 
ATOM      9  C   UNL     1      -3.508  13.182  23.274  0.00  0.00    +0.000 A 
ATOM     10 BR   UNL     1      -5.288  13.273  23.909  0.00  0.00    +0.000 Br
ATOM     11  C   UNL     1      -2.933  14.313  22.687  0.00  0.00    +0.000 A 
ATOM     12  C   UNL     1      -1.659  14.227  22.130  0.00  0.00    +0.000 A 
ATOM     13  C   UNL     1      -0.998  13.002  22.134  0.00  0.00    +0.000 A 
ATOM     14  O   UNL     1       0.190  12.920  21.449  0.00  0.00    +0.000 OA
ATOM     15  C   UNL     1       0.351  11.611  20.856  0.00  0.00    +0.000 C 
ENDBRANCH   2   5
BRANCH   3  16
ATOM     16  C   UNL     1       1.754   7.571  20.095  0.00  0.00    +0.000 A 
ATOM     17  C   UNL     1       2.636   7.505  19.014  0.00  0.00    +0.000 A 
ATOM     18  C   UNL     1       3.290   6.300  18.703  0.00  0.00    +0.000 A 
ATOM     19  C   UNL     1       3.057   5.163  19.484  0.00  0.00    +0.000 A 
ATOM     20  C   UNL     1       2.148   5.207  20.538  0.00  0.00    +0.000 A 
ATOM     21  C   UNL     1       1.508   6.407  20.843  0.00  0.00    +0.000 A 
BRANCH  19  22
ATOM     22  S   UNL     1       3.862   3.620  19.119  0.00  0.00    +0.000 S 
ATOM     23  O   UNL     1       5.295   3.856  19.223  0.00  0.00    +0.000 OA
ATOM     24  O   UNL     1       3.248   2.601  19.959  0.00  0.00    +0.000 OA
BRANCH  22  25
ATOM     25  C   UNL     1       3.432   3.324  17.399  0.00  0.00    +0.000 C 
ATOM     26  F   UNL     1       2.140   3.655  17.115  0.00  0.00    +0.000 F 
ATOM     27  F   UNL     1       4.205   4.043  16.533  0.00  0.00    +0.000 F 
ENDBRANCH  22  25
ENDBRANCH  19  22
ENDBRANCH   3  16
TORSDOF 4
ENDMDL
MODEL 7
REMARK VINA RESULT:      -7.7      2.473      3.692
REMARK  Name = 
REMARK  4 active torsions:
REMARK  status: ('A' for Active; 'I' for Inactive)
REMARK    1  A    between atoms: C_2  and  C_16
REMARK    2  A    between atoms: N_3  and  C_4
REMARK    3  A    between atoms: C_7  and  S_8
REMARK    4  A    between atoms: S_8  and  C_11
REMARK                            x       y       z     vdW  Elec       q    Type
REMARK                         _______ _______ _______ _____ _____    ______ ____
ROOT
ATOM      1  O   UNL     1       1.831   6.318  20.448  0.00  0.00    +0.000 OA
ATOM      2  C   UNL     1       2.375   6.889  19.512  0.00  0.00    +0.000 C 
ATOM      3  N   UNL     1       2.109   8.164  19.060  0.00  0.00    +0.000 N 
ATOM      4  H   UNL     1       2.690   8.506  18.312  0.00  0.00    +0.000 HD
ENDROOT
BRANCH   2   5
ATOM      5  C   UNL     1       3.501   6.220  18.786  0.00  0.00    +0.000 C 
ATOM      6  C   UNL     1       3.781   6.357  17.476  0.00  0.00    +0.000 C 
ATOM      7  C   UNL     1       4.953   5.623  16.980  0.00  0.00    +0.000 A 
ATOM      8  C   UNL     1       5.120   5.298  15.634  0.00  0.00    +0.000 A 
ATOM      9  C   UNL     1       6.257   4.587  15.238  0.00  0.00    +0.000 A 
ATOM     10 BR   UNL     1       6.414   4.001  13.445  0.00  0.00    +0.000 Br
ATOM     11  C   UNL     1       7.263   4.265  16.152  0.00  0.00    +0.000 A 
ATOM     12  C   UNL     1       7.110   4.608  17.495  0.00  0.00    +0.000 A 
ATOM     13  C   UNL     1       5.936   5.231  17.905  0.00  0.00    +0.000 A 
ATOM     14  O   UNL     1       5.756   5.423  19.254  0.00  0.00    +0.000 OA
ATOM     15  C   UNL     1       4.361   5.297  19.609  0.00  0.00    +0.000 C 
ENDBRANCH   2   5
BRANCH   3  16
ATOM     16  C   UNL     1       1.177   9.100  19.561  0.00  0.00    +0.000 A 
ATOM     17  C   UNL     1       0.683   9.134  20.867  0.00  0.00    +0.000 A 
ATOM     18  C   UNL     1      -0.210  10.146  21.262  0.00  0.00    +0.000 A 
ATOM     19  C   UNL     1      -0.601  11.123  20.341  0.00  0.00    +0.000 A 
ATOM     20  C   UNL     1      -0.147  11.074  19.025  0.00  0.00    +0.000 A 
ATOM     21  C   UNL     1       0.742  10.071  18.644  0.00  0.00    +0.000 A 
BRANCH  19  22
ATOM     22  S   UNL     1      -1.733  12.416  20.803  0.00  0.00    +0.000 S 
ATOM     23  O   UNL     1      -1.000  13.670  20.715  0.00  0.00    +0.000 OA
ATOM     24  O   UNL     1      -2.940  12.241  20.006  0.00  0.00    +0.000 OA
BRANCH  22  25
ATOM     25  C   UNL     1      -2.091  12.057  22.528  0.00  0.00    +0.000 C 
ATOM     26  F   UNL     1      -1.186  12.616  23.381  0.00  0.00    +0.000 F 
ATOM     27  F   UNL     1      -3.315  12.521  22.917  0.00  0.00    +0.000 F 
ENDBRANCH  22  25
ENDBRANCH  19  22
ENDBRANCH   3  16
TORSDOF 4
ENDMDL
MODEL 8
REMARK VINA RESULT:      -7.7      6.124      9.123
REMARK  Name = 
REMARK  4 active torsions:
REMARK  status: ('A' for Active; 'I' for Inactive)
REMARK    1  A    between atoms: C_2  and  C_16
REMARK    2  A    between atoms: N_3  and  C_4
REMARK    3  A    between atoms: C_7  and  S_8
REMARK    4  A    between atoms: S_8  and  C_11
REMARK                            x       y       z     vdW  Elec       q    Type
REMARK                         _______ _______ _______ _____ _____    ______ ____
ROOT
ATOM      1  O   UNL     1       2.189   8.646  17.293  0.00  0.00    +0.000 OA
ATOM      2  C   UNL     1       1.860   9.068  18.394  0.00  0.00    +0.000 C 
ATOM      3  N   UNL     1       1.849   8.361  19.577  0.00  0.00    +0.000 N 
ATOM      4  H   UNL     1       1.605   8.877  20.407  0.00  0.00    +0.000 HD
ENDROOT
BRANCH   2   5
ATOM      5  C   UNL     1       1.490  10.511  18.556  0.00  0.00    +0.000 C 
ATOM      6  C   UNL     1       2.235  11.561  18.160  0.00  0.00    +0.000 C 
ATOM      7  C   UNL     1       1.662  12.892  18.397  0.00  0.00    +0.000 A 
ATOM      8  C   UNL     1       2.446  14.044  18.466  0.00  0.00    +0.000 A 
ATOM      9  C   UNL     1       1.830  15.277  18.707  0.00  0.00    +0.000 A 
ATOM     10 BR   UNL     1       2.897  16.818  18.963  0.00  0.00    +0.000 Br
ATOM     11  C   UNL     1       0.440  15.384  18.804  0.00  0.00    +0.000 A 
ATOM     12  C   UNL     1      -0.348  14.238  18.713  0.00  0.00    +0.000 A 
ATOM     13  C   UNL     1       0.272  13.000  18.568  0.00  0.00    +0.000 A 
ATOM     14  O   UNL     1      -0.524  11.881  18.629  0.00  0.00    +0.000 OA
ATOM     15  C   UNL     1       0.182  10.783  19.250  0.00  0.00    +0.000 C 
ENDBRANCH   2   5
BRANCH   3  16
ATOM     16  C   UNL     1       2.215   7.016  19.802  0.00  0.00    +0.000 A 
ATOM     17  C   UNL     1       1.489   6.092  20.558  0.00  0.00    +0.000 A 
ATOM     18  C   UNL     1       1.933   4.762  20.672  0.00  0.00    +0.000 A 
ATOM     19  C   UNL     1       3.107   4.366  20.023  0.00  0.00    +0.000 A 
ATOM     20  C   UNL     1       3.860   5.289  19.302  0.00  0.00    +0.000 A 
ATOM     21  C   UNL     1       3.410   6.603  19.189  0.00  0.00    +0.000 A 
BRANCH  19  22
ATOM     22  S   UNL     1       3.702   2.694  20.148  0.00  0.00    +0.000 S 
ATOM     23  O   UNL     1       5.107   2.716  19.765  0.00  0.00    +0.000 OA
ATOM     24  O   UNL     1       3.333   2.200  21.467  0.00  0.00    +0.000 OA
BRANCH  22  25
ATOM     25  C   UNL     1       2.758   1.822  18.891  0.00  0.00    +0.000 C 
ATOM     26  F   UNL     1       1.470   1.583  19.271  0.00  0.00    +0.000 F 
ATOM     27  F   UNL     1       2.683   2.514  17.716  0.00  0.00    +0.000 F 
ENDBRANCH  22  25
ENDBRANCH  19  22
ENDBRANCH   3  16
TORSDOF 4
ENDMDL
MODEL 9
REMARK VINA RESULT:      -7.7      6.037     10.486
REMARK  Name = 
REMARK  4 active torsions:
REMARK  status: ('A' for Active; 'I' for Inactive)
REMARK    1  A    between atoms: C_2  and  C_16
REMARK    2  A    between atoms: N_3  and  C_4
REMARK    3  A    between atoms: C_7  and  S_8
REMARK    4  A    between atoms: S_8  and  C_11
REMARK                            x       y       z     vdW  Elec       q    Type
REMARK                         _______ _______ _______ _____ _____    ______ ____
ROOT
ATOM      1  O   UNL     1       1.849   8.961  22.464  0.00  0.00    +0.000 OA
ATOM      2  C   UNL     1       1.096   9.083  21.507  0.00  0.00    +0.000 C 
ATOM      3  N   UNL     1       1.046   8.275  20.391  0.00  0.00    +0.000 N 
ATOM      4  H   UNL     1       0.324   8.480  19.720  0.00  0.00    +0.000 HD
ENDROOT
BRANCH   2   5
ATOM      5  C   UNL     1       0.048  10.154  21.517  0.00  0.00    +0.000 C 
ATOM      6  C   UNL     1      -0.623  10.583  22.603  0.00  0.00    +0.000 C 
ATOM      7  C   UNL     1      -1.592  11.665  22.383  0.00  0.00    +0.000 A 
ATOM      8  C   UNL     1      -2.651  11.912  23.257  0.00  0.00    +0.000 A 
ATOM      9  C   UNL     1      -3.541  12.954  22.975  0.00  0.00    +0.000 A 
ATOM     10 BR   UNL     1      -5.070  13.194  24.063  0.00  0.00    +0.000 Br
ATOM     11  C   UNL     1      -3.343  13.798  21.879  0.00  0.00    +0.000 A 
ATOM     12  C   UNL     1      -2.272  13.568  21.017  0.00  0.00    +0.000 A 
ATOM     13  C   UNL     1      -1.443  12.474  21.243  0.00  0.00    +0.000 A 
ATOM     14  O   UNL     1      -0.490  12.193  20.295  0.00  0.00    +0.000 OA
ATOM     15  C   UNL     1      -0.283  10.767  20.182  0.00  0.00    +0.000 C 
ENDBRANCH   2   5
BRANCH   3  16
ATOM     16  C   UNL     1       1.824   7.134  20.095  0.00  0.00    +0.000 A 
ATOM     17  C   UNL     1       1.824   5.939  20.818  0.00  0.00    +0.000 A 
ATOM     18  C   UNL     1       2.611   4.853  20.397  0.00  0.00    +0.000 A 
ATOM     19  C   UNL     1       3.395   4.972  19.246  0.00  0.00    +0.000 A 
ATOM     20  C   UNL     1       3.436   6.172  18.540  0.00  0.00    +0.000 A 
ATOM     21  C   UNL     1       2.648   7.242  18.962  0.00  0.00    +0.000 A 
BRANCH  19  22
ATOM     22  S   UNL     1       4.408   3.621  18.684  0.00  0.00    +0.000 S 
ATOM     23  O   UNL     1       5.395   4.182  17.774  0.00  0.00    +0.000 OA
ATOM     24  O   UNL     1       4.860   2.898  19.865  0.00  0.00    +0.000 OA
BRANCH  22  25
ATOM     25  C   UNL     1       3.257   2.599  17.755  0.00  0.00    +0.000 C 
ATOM     26  F   UNL     1       2.260   2.088  18.533  0.00  0.00    +0.000 F 
ATOM     27  F   UNL     1       2.638   3.286  16.750  0.00  0.00    +0.000 F 
ENDBRANCH  22  25
ENDBRANCH  19  22
ENDBRANCH   3  16
TORSDOF 4
ENDMDL
