MODEL 1
REMARK VINA RESULT:      -7.9      0.000      0.000
REMARK  Name = 
REMARK  4 active torsions:
REMARK  status: ('A' for Active; 'I' for Inactive)
REMARK    1  A    between atoms: C_2  and  C_3
REMARK    2  A    between atoms: C_3  and  C_4
REMARK    3  A    between atoms: N_6  and  C_7
REMARK    4  A    between atoms: C_14  and  C_15
REMARK                            x       y       z     vdW  Elec       q    Type
REMARK                         _______ _______ _______ _____ _____    ______ ____
ROOT
ATOM      1  C   UNL     1       2.635   6.965  19.586  0.00  0.00    +0.000 A 
ATOM      2  C   UNL     1       1.858   8.060  19.874  0.00  0.00    +0.000 A 
ATOM      3  N   UNL     1       1.716   8.762  18.700  0.00  0.00    +0.000 N 
ATOM      4  N   UNL     1       2.453   8.216  17.703  0.00  0.00    +0.000 NA
ATOM      5  C   UNL     1       3.116   7.192  18.265  0.00  0.00    +0.000 A 
ENDROOT
BRANCH   5   6
ATOM      6  C   UNL     1       4.100   6.408  17.513  0.00  0.00    +0.000 A 
ATOM      7  C   UNL     1       3.811   5.097  17.097  0.00  0.00    +0.000 A 
ATOM      8  C   UNL     1       4.758   4.349  16.386  0.00  0.00    +0.000 A 
ATOM      9  C   UNL     1       6.003   4.900  16.121  0.00  0.00    +0.000 A 
ATOM     10  F   UNL     1       6.913   4.174  15.459  0.00  0.00    +0.000 F 
ATOM     11  C   UNL     1       6.316   6.185  16.534  0.00  0.00    +0.000 A 
ATOM     12  C   UNL     1       5.367   6.939  17.232  0.00  0.00    +0.000 A 
ENDBRANCH   5   6
BRANCH   3  13
ATOM     13  C   UNL     1       0.811   9.831  18.502  0.00  0.00    +0.000 A 
ATOM     14  C   UNL     1       1.132  11.111  18.983  0.00  0.00    +0.000 A 
ATOM     15  C   UNL     1       0.213  12.151  18.858  0.00  0.00    +0.000 A 
ATOM     16  C   UNL     1      -1.035  11.912  18.287  0.00  0.00    +0.000 A 
ATOM     17  C   UNL     1      -1.358  10.637  17.815  0.00  0.00    +0.000 A 
ATOM     18  C   UNL     1      -0.428   9.598  17.899  0.00  0.00    +0.000 A 
ENDBRANCH   3  13
BRANCH   1  19
ATOM     19  C   UNL     1       2.773   5.756  20.418  0.00  0.00    +0.000 C 
BRANCH  19  21
ATOM     20  O   UNL     1       0.410   5.143  20.587  0.00  0.00    +0.000 OA
ATOM     21  C   UNL     1       1.586   4.840  20.441  0.00  0.00    +0.000 C 
ATOM     22  N   UNL     1       1.867   3.478  20.095  0.00  0.00    +0.000 N 
ATOM     23  C   UNL     1       0.839   2.500  19.638  0.00  0.00    +0.000 C 
ATOM     24  C   UNL     1       1.419   2.045  18.280  0.00  0.00    +0.000 C 
ATOM     25  N   UNL     1       2.852   2.114  18.584  0.00  0.00    +0.000 N 
ATOM     26  N   UNL     1       3.725   1.104  18.615  0.00  0.00    +0.000 NA
ATOM     27  C   UNL     1       4.631   1.538  19.517  0.00  0.00    +0.000 A 
ATOM     28  C   UNL     1       4.300   2.795  20.108  0.00  0.00    +0.000 A 
ATOM     29  C   UNL     1       3.058   3.001  19.598  0.00  0.00    +0.000 A 
ENDBRANCH  19  21
ENDBRANCH   1  19
TORSDOF 4
ENDMDL
MODEL 2
REMARK VINA RESULT:      -7.9      2.736      4.487
REMARK  Name = 
REMARK  4 active torsions:
REMARK  status: ('A' for Active; 'I' for Inactive)
REMARK    1  A    between atoms: C_2  and  C_3
REMARK    2  A    between atoms: C_3  and  C_4
REMARK    3  A    between atoms: N_6  and  C_7
REMARK    4  A    between atoms: C_14  and  C_15
REMARK                            x       y       z     vdW  Elec       q    Type
REMARK                         _______ _______ _______ _____ _____    ______ ____
ROOT
ATOM      1  C   UNL     1       2.889   7.371  17.869  0.00  0.00    +0.000 A 
ATOM      2  C   UNL     1       2.206   8.459  18.356  0.00  0.00    +0.000 A 
ATOM      3  N   UNL     1       1.702   8.091  19.581  0.00  0.00    +0.000 N 
ATOM      4  N   UNL     1       1.945   6.785  19.846  0.00  0.00    +0.000 NA
ATOM      5  C   UNL     1       2.560   6.304  18.754  0.00  0.00    +0.000 A 
ENDROOT
BRANCH   5   6
ATOM      6  C   UNL     1       2.902   4.885  18.625  0.00  0.00    +0.000 A 
ATOM      7  C   UNL     1       3.976   4.333  19.345  0.00  0.00    +0.000 A 
ATOM      8  C   UNL     1       4.302   2.978  19.213  0.00  0.00    +0.000 A 
ATOM      9  C   UNL     1       3.578   2.184  18.337  0.00  0.00    +0.000 A 
ATOM     10  F   UNL     1       3.907   0.893  18.198  0.00  0.00    +0.000 F 
ATOM     11  C   UNL     1       2.524   2.708  17.606  0.00  0.00    +0.000 A 
ATOM     12  C   UNL     1       2.186   4.058  17.747  0.00  0.00    +0.000 A 
ENDBRANCH   5   6
BRANCH   3  13
ATOM     13  C   UNL     1       1.125   8.981  20.518  0.00  0.00    +0.000 A 
ATOM     14  C   UNL     1       0.986   8.585  21.857  0.00  0.00    +0.000 A 
ATOM     15  C   UNL     1       0.351   9.426  22.768  0.00  0.00    +0.000 A 
ATOM     16  C   UNL     1      -0.174  10.644  22.342  0.00  0.00    +0.000 A 
ATOM     17  C   UNL     1      -0.043  11.036  21.007  0.00  0.00    +0.000 A 
ATOM     18  C   UNL     1       0.628  10.217  20.095  0.00  0.00    +0.000 A 
ENDBRANCH   3  13
BRANCH   1  19
ATOM     19  C   UNL     1       3.875   7.384  16.774  0.00  0.00    +0.000 C 
BRANCH  19  21
ATOM     20  O   UNL     1       5.830   8.128  18.045  0.00  0.00    +0.000 OA
ATOM     21  C   UNL     1       5.315   7.418  17.193  0.00  0.00    +0.000 C 
ATOM     22  N   UNL     1       6.133   6.387  16.627  0.00  0.00    +0.000 N 
ATOM     23  C   UNL     1       7.442   5.951  17.193  0.00  0.00    +0.000 C 
ATOM     24  C   UNL     1       7.207   4.437  17.400  0.00  0.00    +0.000 C 
ATOM     25  N   UNL     1       6.324   4.163  16.261  0.00  0.00    +0.000 N 
ATOM     26  N   UNL     1       6.570   3.371  15.215  0.00  0.00    +0.000 NA
ATOM     27  C   UNL     1       5.831   3.946  14.243  0.00  0.00    +0.000 A 
ATOM     28  C   UNL     1       5.165   5.141  14.653  0.00  0.00    +0.000 A 
ATOM     29  C   UNL     1       5.685   5.310  15.898  0.00  0.00    +0.000 A 
ENDBRANCH  19  21
ENDBRANCH   1  19
TORSDOF 4
ENDMDL
MODEL 3
REMARK VINA RESULT:      -7.9      2.825      7.263
REMARK  Name = 
REMARK  4 active torsions:
REMARK  status: ('A' for Active; 'I' for Inactive)
REMARK    1  A    between atoms: C_2  and  C_3
REMARK    2  A    between atoms: C_3  and  C_4
REMARK    3  A    between atoms: N_6  and  C_7
REMARK    4  A    between atoms: C_14  and  C_15
REMARK                            x       y       z     vdW  Elec       q    Type
REMARK                         _______ _______ _______ _____ _____    ______ ____
ROOT
ATOM      1  C   UNL     1       3.103   6.147  17.972  0.00  0.00    +0.000 A 
ATOM      2  C   UNL     1       4.077   6.384  17.032  0.00  0.00    +0.000 A 
ATOM      3  N   UNL     1       4.659   5.170  16.754  0.00  0.00    +0.000 N 
ATOM      4  N   UNL     1       4.169   4.190  17.551  0.00  0.00    +0.000 NA
ATOM      5  C   UNL     1       3.309   4.799  18.383  0.00  0.00    +0.000 A 
ENDROOT
BRANCH   5   6
ATOM      6  C   UNL     1       2.642   4.072  19.467  0.00  0.00    +0.000 A 
ATOM      7  C   UNL     1       1.686   3.079  19.188  0.00  0.00    +0.000 A 
ATOM      8  C   UNL     1       1.046   2.393  20.227  0.00  0.00    +0.000 A 
ATOM      9  C   UNL     1       1.337   2.722  21.542  0.00  0.00    +0.000 A 
ATOM     10  F   UNL     1       0.707   2.077  22.533  0.00  0.00    +0.000 F 
ATOM     11  C   UNL     1       2.265   3.706  21.842  0.00  0.00    +0.000 A 
ATOM     12  C   UNL     1       2.916   4.383  20.807  0.00  0.00    +0.000 A 
ENDBRANCH   5   6
BRANCH   3  13
ATOM     13  C   UNL     1       5.551   4.928  15.683  0.00  0.00    +0.000 A 
ATOM     14  C   UNL     1       6.805   5.558  15.668  0.00  0.00    +0.000 A 
ATOM     15  C   UNL     1       7.658   5.384  14.580  0.00  0.00    +0.000 A 
ATOM     16  C   UNL     1       7.251   4.612  13.494  0.00  0.00    +0.000 A 
ATOM     17  C   UNL     1       5.999   3.991  13.504  0.00  0.00    +0.000 A 
ATOM     18  C   UNL     1       5.154   4.127  14.609  0.00  0.00    +0.000 A 
ENDBRANCH   3  13
BRANCH   1  19
ATOM     19  C   UNL     1       1.996   7.054  18.323  0.00  0.00    +0.000 C 
BRANCH  19  21
ATOM     20  O   UNL     1       2.656   9.008  17.006  0.00  0.00    +0.000 OA
ATOM     21  C   UNL     1       2.228   8.508  18.036  0.00  0.00    +0.000 C 
ATOM     22  N   UNL     1       1.738   9.407  19.038  0.00  0.00    +0.000 N 
ATOM     23  C   UNL     1       1.463  10.853  18.805  0.00  0.00    +0.000 C 
ATOM     24  C   UNL     1      -0.019  10.965  19.230  0.00  0.00    +0.000 C 
ATOM     25  N   UNL     1      -0.045   9.973  20.310  0.00  0.00    +0.000 N 
ATOM     26  N   UNL     1      -0.279  10.190  21.606  0.00  0.00    +0.000 NA
ATOM     27  C   UNL     1       0.420   9.197  22.194  0.00  0.00    +0.000 A 
ATOM     28  C   UNL     1       1.153   8.385  21.275  0.00  0.00    +0.000 A 
ATOM     29  C   UNL     1       0.953   9.065  20.115  0.00  0.00    +0.000 A 
ENDBRANCH  19  21
ENDBRANCH   1  19
TORSDOF 4
ENDMDL
MODEL 4
REMARK VINA RESULT:      -7.9      2.826      7.338
REMARK  Name = 
REMARK  4 active torsions:
REMARK  status: ('A' for Active; 'I' for Inactive)
REMARK    1  A    between atoms: C_2  and  C_3
REMARK    2  A    between atoms: C_3  and  C_4
REMARK    3  A    between atoms: N_6  and  C_7
REMARK    4  A    between atoms: C_14  and  C_15
REMARK                            x       y       z     vdW  Elec       q    Type
REMARK                         _______ _______ _______ _____ _____    ______ ____
ROOT
ATOM      1  C   UNL     1       3.141   6.177  18.049  0.00  0.00    +0.000 A 
ATOM      2  C   UNL     1       4.078   6.441  17.080  0.00  0.00    +0.000 A 
ATOM      3  N   UNL     1       4.621   5.231  16.717  0.00  0.00    +0.000 N 
ATOM      4  N   UNL     1       4.144   4.223  17.485  0.00  0.00    +0.000 NA
ATOM      5  C   UNL     1       3.334   4.806  18.383  0.00  0.00    +0.000 A 
ENDROOT
BRANCH   5   6
ATOM      6  C   UNL     1       2.698   4.038  19.458  0.00  0.00    +0.000 A 
ATOM      7  C   UNL     1       1.298   3.982  19.572  0.00  0.00    +0.000 A 
ATOM      8  C   UNL     1       0.696   3.254  20.605  0.00  0.00    +0.000 A 
ATOM      9  C   UNL     1       1.492   2.611  21.541  0.00  0.00    +0.000 A 
ATOM     10  F   UNL     1       0.911   1.933  22.540  0.00  0.00    +0.000 F 
ATOM     11  C   UNL     1       2.874   2.664  21.457  0.00  0.00    +0.000 A 
ATOM     12  C   UNL     1       3.478   3.378  20.418  0.00  0.00    +0.000 A 
ENDBRANCH   5   6
BRANCH   3  13
ATOM     13  C   UNL     1       5.461   5.026  15.597  0.00  0.00    +0.000 A 
ATOM     14  C   UNL     1       5.006   4.250  14.520  0.00  0.00    +0.000 A 
ATOM     15  C   UNL     1       5.855   3.982  13.449  0.00  0.00    +0.000 A 
ATOM     16  C   UNL     1       7.165   4.456  13.463  0.00  0.00    +0.000 A 
ATOM     17  C   UNL     1       7.622   5.222  14.539  0.00  0.00    +0.000 A 
ATOM     18  C   UNL     1       6.765   5.531  15.598  0.00  0.00    +0.000 A 
ENDBRANCH   3  13
BRANCH   1  19
ATOM     19  C   UNL     1       2.070   7.087  18.492  0.00  0.00    +0.000 C 
BRANCH  19  21
ATOM     20  O   UNL     1       2.626   8.966  17.026  0.00  0.00    +0.000 OA
ATOM     21  C   UNL     1       2.230   8.525  18.096  0.00  0.00    +0.000 C 
ATOM     22  N   UNL     1       1.706   9.472  19.034  0.00  0.00    +0.000 N 
ATOM     23  C   UNL     1       1.360  10.882  18.696  0.00  0.00    +0.000 C 
ATOM     24  C   UNL     1      -0.122  10.955  19.129  0.00  0.00    +0.000 C 
ATOM     25  N   UNL     1      -0.092  10.047  20.281  0.00  0.00    +0.000 N 
ATOM     26  N   UNL     1      -0.326  10.350  21.560  0.00  0.00    +0.000 NA
ATOM     27  C   UNL     1       0.425   9.436  22.211  0.00  0.00    +0.000 A 
ATOM     28  C   UNL     1       1.188   8.594  21.347  0.00  0.00    +0.000 A 
ATOM     29  C   UNL     1       0.946   9.175  20.142  0.00  0.00    +0.000 A 
ENDBRANCH  19  21
ENDBRANCH   1  19
TORSDOF 4
ENDMDL
MODEL 5
REMARK VINA RESULT:      -7.8      1.179      1.390
REMARK  Name = 
REMARK  4 active torsions:
REMARK  status: ('A' for Active; 'I' for Inactive)
REMARK    1  A    between atoms: C_2  and  C_3
REMARK    2  A    between atoms: C_3  and  C_4
REMARK    3  A    between atoms: N_6  and  C_7
REMARK    4  A    between atoms: C_14  and  C_15
REMARK                            x       y       z     vdW  Elec       q    Type
REMARK                         _______ _______ _______ _____ _____    ______ ____
ROOT
ATOM      1  C   UNL     1       2.215   6.294  20.491  0.00  0.00    +0.000 A 
ATOM      2  C   UNL     1       1.515   7.414  20.868  0.00  0.00    +0.000 A 
ATOM      3  N   UNL     1       1.640   8.320  19.841  0.00  0.00    +0.000 N 
ATOM      4  N   UNL     1       2.474   7.864  18.876  0.00  0.00    +0.000 NA
ATOM      5  C   UNL     1       2.929   6.682  19.322  0.00  0.00    +0.000 A 
ENDROOT
BRANCH   5   6
ATOM      6  C   UNL     1       3.941   5.919  18.584  0.00  0.00    +0.000 A 
ATOM      7  C   UNL     1       5.145   5.537  19.200  0.00  0.00    +0.000 A 
ATOM      8  C   UNL     1       6.112   4.815  18.489  0.00  0.00    +0.000 A 
ATOM      9  C   UNL     1       5.889   4.506  17.155  0.00  0.00    +0.000 A 
ATOM     10  F   UNL     1       6.825   3.834  16.473  0.00  0.00    +0.000 F 
ATOM     11  C   UNL     1       4.715   4.885  16.523  0.00  0.00    +0.000 A 
ATOM     12  C   UNL     1       3.742   5.593  17.235  0.00  0.00    +0.000 A 
ENDBRANCH   5   6
BRANCH   3  13
ATOM     13  C   UNL     1       0.892   9.515  19.722  0.00  0.00    +0.000 A 
ATOM     14  C   UNL     1       0.624  10.283  20.866  0.00  0.00    +0.000 A 
ATOM     15  C   UNL     1      -0.175  11.420  20.767  0.00  0.00    +0.000 A 
ATOM     16  C   UNL     1      -0.734  11.774  19.541  0.00  0.00    +0.000 A 
ATOM     17  C   UNL     1      -0.474  11.005  18.404  0.00  0.00    +0.000 A 
ATOM     18  C   UNL     1       0.359   9.887  18.485  0.00  0.00    +0.000 A 
ENDBRANCH   3  13
BRANCH   1  19
ATOM     19  C   UNL     1       2.093   4.952  21.088  0.00  0.00    +0.000 C 
BRANCH  19  21
ATOM     20  O   UNL     1      -0.001   4.171  20.091  0.00  0.00    +0.000 OA
ATOM     21  C   UNL     1       1.176   4.002  20.377  0.00  0.00    +0.000 C 
ATOM     22  N   UNL     1       1.812   2.835  19.843  0.00  0.00    +0.000 N 
ATOM     23  C   UNL     1       1.233   1.984  18.764  0.00  0.00    +0.000 C 
ATOM     24  C   UNL     1       2.358   2.009  17.706  0.00  0.00    +0.000 C 
ATOM     25  N   UNL     1       3.530   2.069  18.587  0.00  0.00    +0.000 N 
ATOM     26  N   UNL     1       4.494   1.155  18.719  0.00  0.00    +0.000 NA
ATOM     27  C   UNL     1       4.892   1.343  19.995  0.00  0.00    +0.000 A 
ATOM     28  C   UNL     1       4.138   2.333  20.696  0.00  0.00    +0.000 A 
ATOM     29  C   UNL     1       3.167   2.610  19.784  0.00  0.00    +0.000 A 
ENDBRANCH  19  21
ENDBRANCH   1  19
TORSDOF 4
ENDMDL
MODEL 6
REMARK VINA RESULT:      -7.8      1.818      2.723
REMARK  Name = 
REMARK  4 active torsions:
REMARK  status: ('A' for Active; 'I' for Inactive)
REMARK    1  A    between atoms: C_2  and  C_3
REMARK    2  A    between atoms: C_3  and  C_4
REMARK    3  A    between atoms: N_6  and  C_7
REMARK    4  A    between atoms: C_14  and  C_15
REMARK                            x       y       z     vdW  Elec       q    Type
REMARK                         _______ _______ _______ _____ _____    ______ ____
ROOT
ATOM      1  C   UNL     1       2.154   5.509  18.195  0.00  0.00    +0.000 A 
ATOM      2  C   UNL     1       1.441   6.289  19.073  0.00  0.00    +0.000 A 
ATOM      3  N   UNL     1       2.126   7.475  19.190  0.00  0.00    +0.000 N 
ATOM      4  N   UNL     1       3.295   7.444  18.508  0.00  0.00    +0.000 NA
ATOM      5  C   UNL     1       3.381   6.204  17.999  0.00  0.00    +0.000 A 
ENDROOT
BRANCH   5   6
ATOM      6  C   UNL     1       4.569   5.755  17.266  0.00  0.00    +0.000 A 
ATOM      7  C   UNL     1       5.609   5.078  17.926  0.00  0.00    +0.000 A 
ATOM      8  C   UNL     1       6.745   4.658  17.223  0.00  0.00    +0.000 A 
ATOM      9  C   UNL     1       6.855   4.943  15.871  0.00  0.00    +0.000 A 
ATOM     10  F   UNL     1       7.952   4.557  15.207  0.00  0.00    +0.000 F 
ATOM     11  C   UNL     1       5.848   5.621  15.202  0.00  0.00    +0.000 A 
ATOM     12  C   UNL     1       4.706   6.030  15.898  0.00  0.00    +0.000 A 
ENDBRANCH   5   6
BRANCH   3  13
ATOM     13  C   UNL     1       1.624   8.639  19.820  0.00  0.00    +0.000 A 
ATOM     14  C   UNL     1       1.322   8.612  21.191  0.00  0.00    +0.000 A 
ATOM     15  C   UNL     1       0.757   9.730  21.801  0.00  0.00    +0.000 A 
ATOM     16  C   UNL     1       0.462  10.861  21.043  0.00  0.00    +0.000 A 
ATOM     17  C   UNL     1       0.754  10.886  19.676  0.00  0.00    +0.000 A 
ATOM     18  C   UNL     1       1.358   9.785  19.065  0.00  0.00    +0.000 A 
ENDBRANCH   3  13
BRANCH   1  19
ATOM     19  C   UNL     1       1.655   4.313  17.494  0.00  0.00    +0.000 C 
BRANCH  19  21
ATOM     20  O   UNL     1       3.309   2.797  16.519  0.00  0.00    +0.000 OA
ATOM     21  C   UNL     1       2.594   3.144  17.447  0.00  0.00    +0.000 C 
ATOM     22  N   UNL     1       2.773   2.463  18.694  0.00  0.00    +0.000 N 
ATOM     23  C   UNL     1       3.933   1.580  19.008  0.00  0.00    +0.000 C 
ATOM     24  C   UNL     1       4.493   2.237  20.289  0.00  0.00    +0.000 C 
ATOM     25  N   UNL     1       3.243   2.713  20.893  0.00  0.00    +0.000 N 
ATOM     26  N   UNL     1       2.701   2.325  22.049  0.00  0.00    +0.000 NA
ATOM     27  C   UNL     1       1.384   2.518  21.826  0.00  0.00    +0.000 A 
ATOM     28  C   UNL     1       1.082   2.968  20.504  0.00  0.00    +0.000 A 
ATOM     29  C   UNL     1       2.306   2.884  19.918  0.00  0.00    +0.000 A 
ENDBRANCH  19  21
ENDBRANCH   1  19
TORSDOF 4
ENDMDL
MODEL 7
REMARK VINA RESULT:      -7.7      3.369      6.759
REMARK  Name = 
REMARK  4 active torsions:
REMARK  status: ('A' for Active; 'I' for Inactive)
REMARK    1  A    between atoms: C_2  and  C_3
REMARK    2  A    between atoms: C_3  and  C_4
REMARK    3  A    between atoms: N_6  and  C_7
REMARK    4  A    between atoms: C_14  and  C_15
REMARK                            x       y       z     vdW  Elec       q    Type
REMARK                         _______ _______ _______ _____ _____    ______ ____
ROOT
ATOM      1  C   UNL     1       5.534   4.622  17.001  0.00  0.00    +0.000 A 
ATOM      2  C   UNL     1       5.055   4.034  15.855  0.00  0.00    +0.000 A 
ATOM      3  N   UNL     1       5.850   4.477  14.824  0.00  0.00    +0.000 N 
ATOM      4  N   UNL     1       6.746   5.400  15.248  0.00  0.00    +0.000 NA
ATOM      5  C   UNL     1       6.479   5.588  16.551  0.00  0.00    +0.000 A 
ENDROOT
BRANCH   5   6
ATOM      6  C   UNL     1       7.188   6.597  17.343  0.00  0.00    +0.000 A 
ATOM      7  C   UNL     1       7.245   7.937  16.920  0.00  0.00    +0.000 A 
ATOM      8  C   UNL     1       7.930   8.895  17.677  0.00  0.00    +0.000 A 
ATOM      9  C   UNL     1       8.586   8.508  18.836  0.00  0.00    +0.000 A 
ATOM     10  F   UNL     1       9.257   9.424  19.546  0.00  0.00    +0.000 F 
ATOM     11  C   UNL     1       8.556   7.191  19.265  0.00  0.00    +0.000 A 
ATOM     12  C   UNL     1       7.860   6.234  18.520  0.00  0.00    +0.000 A 
ENDBRANCH   5   6
BRANCH   3  13
ATOM     13  C   UNL     1       5.843   3.945  13.513  0.00  0.00    +0.000 A 
ATOM     14  C   UNL     1       4.624   3.596  12.911  0.00  0.00    +0.000 A 
ATOM     15  C   UNL     1       4.615   3.003  11.651  0.00  0.00    +0.000 A 
ATOM     16  C   UNL     1       5.818   2.725  11.004  0.00  0.00    +0.000 A 
ATOM     17  C   UNL     1       7.033   3.065  11.606  0.00  0.00    +0.000 A 
ATOM     18  C   UNL     1       7.049   3.698  12.851  0.00  0.00    +0.000 A 
ENDBRANCH   3  13
BRANCH   1  19
ATOM     19  C   UNL     1       5.241   4.198  18.381  0.00  0.00    +0.000 C 
BRANCH  19  21
ATOM     20  O   UNL     1       3.838   2.196  18.469  0.00  0.00    +0.000 OA
ATOM     21  C   UNL     1       3.981   3.406  18.568  0.00  0.00    +0.000 C 
ATOM     22  N   UNL     1       2.867   4.153  19.071  0.00  0.00    +0.000 N 
ATOM     23  C   UNL     1       1.677   3.542  19.729  0.00  0.00    +0.000 C 
ATOM     24  C   UNL     1       1.659   4.274  21.089  0.00  0.00    +0.000 C 
ATOM     25  N   UNL     1       2.167   5.586  20.675  0.00  0.00    +0.000 N 
ATOM     26  N   UNL     1       1.525   6.756  20.715  0.00  0.00    +0.000 NA
ATOM     27  C   UNL     1       2.101   7.433  19.699  0.00  0.00    +0.000 A 
ATOM     28  C   UNL     1       3.065   6.671  18.970  0.00  0.00    +0.000 A 
ATOM     29  C   UNL     1       2.908   5.446  19.539  0.00  0.00    +0.000 A 
ENDBRANCH  19  21
ENDBRANCH   1  19
TORSDOF 4
ENDMDL
MODEL 8
REMARK VINA RESULT:      -7.7      4.284      6.511
REMARK  Name = 
REMARK  4 active torsions:
REMARK  status: ('A' for Active; 'I' for Inactive)
REMARK    1  A    between atoms: C_2  and  C_3
REMARK    2  A    between atoms: C_3  and  C_4
REMARK    3  A    between atoms: N_6  and  C_7
REMARK    4  A    between atoms: C_14  and  C_15
REMARK                            x       y       z     vdW  Elec       q    Type
REMARK                         _______ _______ _______ _____ _____    ______ ____
ROOT
ATOM      1  C   UNL     1       5.147   5.466  16.868  0.00  0.00    +0.000 A 
ATOM      2  C   UNL     1       4.751   4.811  15.726  0.00  0.00    +0.000 A 
ATOM      3  N   UNL     1       5.818   4.851  14.860  0.00  0.00    +0.000 N 
ATOM      4  N   UNL     1       6.836   5.591  15.360  0.00  0.00    +0.000 NA
ATOM      5  C   UNL     1       6.389   6.074  16.531  0.00  0.00    +0.000 A 
ENDROOT
BRANCH   5   6
ATOM      6  C   UNL     1       7.185   7.009  17.331  0.00  0.00    +0.000 A 
ATOM      7  C   UNL     1       7.896   6.568  18.461  0.00  0.00    +0.000 A 
ATOM      8  C   UNL     1       8.648   7.466  19.227  0.00  0.00    +0.000 A 
ATOM      9  C   UNL     1       8.663   8.810  18.883  0.00  0.00    +0.000 A 
ATOM     10  F   UNL     1       9.368   9.669  19.631  0.00  0.00    +0.000 F 
ATOM     11  C   UNL     1       7.959   9.271  17.782  0.00  0.00    +0.000 A 
ATOM     12  C   UNL     1       7.218   8.374  17.007  0.00  0.00    +0.000 A 
ENDBRANCH   5   6
BRANCH   3  13
ATOM     13  C   UNL     1       5.914   4.106  13.662  0.00  0.00    +0.000 A 
ATOM     14  C   UNL     1       7.155   3.981  13.019  0.00  0.00    +0.000 A 
ATOM     15  C   UNL     1       7.243   3.312  11.799  0.00  0.00    +0.000 A 
ATOM     16  C   UNL     1       6.093   2.797  11.204  0.00  0.00    +0.000 A 
ATOM     17  C   UNL     1       4.855   2.928  11.840  0.00  0.00    +0.000 A 
ATOM     18  C   UNL     1       4.765   3.561  13.082  0.00  0.00    +0.000 A 
ENDBRANCH   3  13
BRANCH   1  19
ATOM     19  C   UNL     1       4.491   5.386  18.185  0.00  0.00    +0.000 C 
BRANCH  19  21
ATOM     20  O   UNL     1       6.008   4.085  19.596  0.00  0.00    +0.000 OA
ATOM     21  C   UNL     1       4.921   4.247  19.061  0.00  0.00    +0.000 C 
ATOM     22  N   UNL     1       3.876   3.338  19.425  0.00  0.00    +0.000 N 
ATOM     23  C   UNL     1       3.942   2.408  20.589  0.00  0.00    +0.000 C 
ATOM     24  C   UNL     1       2.675   2.804  21.381  0.00  0.00    +0.000 C 
ATOM     25  N   UNL     1       1.785   3.157  20.269  0.00  0.00    +0.000 N 
ATOM     26  N   UNL     1       0.648   2.553  19.917  0.00  0.00    +0.000 NA
ATOM     27  C   UNL     1       0.600   2.788  18.589  0.00  0.00    +0.000 A 
ATOM     28  C   UNL     1       1.739   3.485  18.084  0.00  0.00    +0.000 A 
ATOM     29  C   UNL     1       2.533   3.514  19.187  0.00  0.00    +0.000 A 
ENDBRANCH  19  21
ENDBRANCH   1  19
TORSDOF 4
ENDMDL
MODEL 9
REMARK VINA RESULT:      -7.7      4.297      6.655
REMARK  Name = 
REMARK  4 active torsions:
REMARK  status: ('A' for Active; 'I' for Inactive)
REMARK    1  A    between atoms: C_2  and  C_3
REMARK    2  A    between atoms: C_3  and  C_4
REMARK    3  A    between atoms: N_6  and  C_7
REMARK    4  A    between atoms: C_14  and  C_15
REMARK                            x       y       z     vdW  Elec       q    Type
REMARK                         _______ _______ _______ _____ _____    ______ ____
ROOT
ATOM      1  C   UNL     1       5.110   5.406  16.689  0.00  0.00    +0.000 A 
ATOM      2  C   UNL     1       4.756   4.777  15.520  0.00  0.00    +0.000 A 
ATOM      3  N   UNL     1       5.851   4.841  14.691  0.00  0.00    +0.000 N 
ATOM      4  N   UNL     1       6.849   5.572  15.242  0.00  0.00    +0.000 NA
ATOM      5  C   UNL     1       6.361   6.027  16.407  0.00  0.00    +0.000 A 
ENDROOT
BRANCH   5   6
ATOM      6  C   UNL     1       7.126   6.945  17.255  0.00  0.00    +0.000 A 
ATOM      7  C   UNL     1       7.221   8.311  16.936  0.00  0.00    +0.000 A 
ATOM      8  C   UNL     1       7.960   9.183  17.745  0.00  0.00    +0.000 A 
ATOM      9  C   UNL     1       8.630   8.684  18.852  0.00  0.00    +0.000 A 
ATOM     10  F   UNL     1       9.353   9.518  19.611  0.00  0.00    +0.000 F 
ATOM     11  C   UNL     1       8.563   7.339  19.178  0.00  0.00    +0.000 A 
ATOM     12  C   UNL     1       7.814   6.468  18.380  0.00  0.00    +0.000 A 
ENDBRANCH   5   6
BRANCH   3  13
ATOM     13  C   UNL     1       5.989   4.123  13.479  0.00  0.00    +0.000 A 
ATOM     14  C   UNL     1       4.882   3.448  12.941  0.00  0.00    +0.000 A 
ATOM     15  C   UNL     1       5.030   2.678  11.789  0.00  0.00    +0.000 A 
ATOM     16  C   UNL     1       6.283   2.553  11.193  0.00  0.00    +0.000 A 
ATOM     17  C   UNL     1       7.387   3.218  11.733  0.00  0.00    +0.000 A 
ATOM     18  C   UNL     1       7.240   4.025  12.863  0.00  0.00    +0.000 A 
ENDBRANCH   3  13
BRANCH   1  19
ATOM     19  C   UNL     1       4.412   5.294  17.981  0.00  0.00    +0.000 C 
BRANCH  19  21
ATOM     20  O   UNL     1       5.993   4.057  19.380  0.00  0.00    +0.000 OA
ATOM     21  C   UNL     1       4.883   4.194  18.885  0.00  0.00    +0.000 C 
ATOM     22  N   UNL     1       3.859   3.299  19.332  0.00  0.00    +0.000 N 
ATOM     23  C   UNL     1       3.978   2.420  20.531  0.00  0.00    +0.000 C 
ATOM     24  C   UNL     1       2.745   2.847  21.359  0.00  0.00    +0.000 C 
ATOM     25  N   UNL     1       1.807   3.150  20.272  0.00  0.00    +0.000 N 
ATOM     26  N   UNL     1       0.658   2.529  19.995  0.00  0.00    +0.000 NA
ATOM     27  C   UNL     1       0.552   2.707  18.662  0.00  0.00    +0.000 A 
ATOM     28  C   UNL     1       1.666   3.385  18.079  0.00  0.00    +0.000 A 
ATOM     29  C   UNL     1       2.506   3.462  19.145  0.00  0.00    +0.000 A 
ENDBRANCH  19  21
ENDBRANCH   1  19
TORSDOF 4
ENDMDL
