MODEL 1
REMARK VINA RESULT:      -7.9      0.000      0.000
REMARK  Name = 
REMARK  2 active torsions:
REMARK  status: ('A' for Active; 'I' for Inactive)
REMARK    1  A    between atoms: C_7  and  C_8
REMARK    2  A    between atoms: C_14  and  C_15
REMARK                            x       y       z     vdW  Elec       q    Type
REMARK                         _______ _______ _______ _____ _____    ______ ____
ROOT
ATOM      1  C   UNL     1       3.873   5.554  18.457  0.00  0.00    +0.000 C 
ATOM      2  O   UNL     1       3.298   4.485  18.241  0.00  0.00    +0.000 OA
ATOM      3  N   UNL     1       5.262   5.628  18.533  0.00  0.00    +0.000 N 
ATOM      4  C   UNL     1       6.098   6.826  18.643  0.00  0.00    +0.000 C 
ATOM      5  C   UNL     1       7.311   6.771  17.706  0.00  0.00    +0.000 C 
ATOM      6  O   UNL     1       8.017   5.521  17.742  0.00  0.00    +0.000 OA
ATOM      7  C   UNL     1       7.156   4.381  17.502  0.00  0.00    +0.000 C 
ATOM      8  C   UNL     1       6.035   4.381  18.567  0.00  0.00    +0.000 C 
ENDROOT
BRANCH   1  15
ATOM      9  O   UNL     1      -0.931  11.291  20.425  0.00  0.00    +0.000 OA
ATOM     10  C   UNL     1      -0.068  10.417  20.363  0.00  0.00    +0.000 C 
ATOM     11  C   UNL     1       0.483   9.727  21.589  0.00  0.00    +0.000 C 
ATOM     12  C   UNL     1       0.782   8.257  21.324  0.00  0.00    +0.000 C 
ATOM     13  C   UNL     1       1.529   8.066  20.029  0.00  0.00    +0.000 A 
ATOM     14  C   UNL     1       2.291   6.912  19.798  0.00  0.00    +0.000 A 
ATOM     15  C   UNL     1       3.001   6.748  18.594  0.00  0.00    +0.000 A 
ATOM     16  C   UNL     1       2.950   7.770  17.648  0.00  0.00    +0.000 A 
ATOM     17  F   UNL     1       3.709   7.736  16.543  0.00  0.00    +0.000 F 
ATOM     18  C   UNL     1       2.123   8.878  17.825  0.00  0.00    +0.000 A 
ATOM     19  C   UNL     1       1.409   9.020  19.014  0.00  0.00    +0.000 A 
ATOM     20  N   UNL     1       0.547  10.107  19.180  0.00  0.00    +0.000 N 
ATOM     21  H   UNL     1       0.300  10.691  18.390  0.00  0.00    +0.000 HD
ENDBRANCH   1  15
BRANCH   7  22
ATOM     22  C   UNL     1       6.720   4.287  16.039  0.00  0.00    +0.000 A 
ATOM     23  C   UNL     1       5.520   3.631  15.700  0.00  0.00    +0.000 A 
ATOM     24  C   UNL     1       5.111   3.520  14.368  0.00  0.00    +0.000 A 
ATOM     25  C   UNL     1       5.882   4.087  13.361  0.00  0.00    +0.000 A 
ATOM     26  F   UNL     1       5.476   3.960  12.088  0.00  0.00    +0.000 F 
ATOM     27  C   UNL     1       7.047   4.777  13.671  0.00  0.00    +0.000 A 
ATOM     28 CL   UNL     1       7.996   5.503  12.429  0.00  0.00    +0.000 Cl
ATOM     29  C   UNL     1       7.458   4.886  15.001  0.00  0.00    +0.000 A 
ENDBRANCH   7  22
TORSDOF 2
ENDMDL
MODEL 2
REMARK VINA RESULT:      -7.8      4.150      8.364
REMARK  Name = 
REMARK  2 active torsions:
REMARK  status: ('A' for Active; 'I' for Inactive)
REMARK    1  A    between atoms: C_7  and  C_8
REMARK    2  A    between atoms: C_14  and  C_15
REMARK                            x       y       z     vdW  Elec       q    Type
REMARK                         _______ _______ _______ _____ _____    ______ ____
ROOT
ATOM      1  C   UNL     1       2.198   8.826  18.287  0.00  0.00    +0.000 C 
ATOM      2  O   UNL     1       2.375   9.503  17.272  0.00  0.00    +0.000 OA
ATOM      3  N   UNL     1       1.568   9.354  19.411  0.00  0.00    +0.000 N 
ATOM      4  C   UNL     1       1.161   8.652  20.631  0.00  0.00    +0.000 C 
ATOM      5  C   UNL     1      -0.249   9.054  21.085  0.00  0.00    +0.000 C 
ATOM      6  O   UNL     1      -0.478  10.471  21.083  0.00  0.00    +0.000 OA
ATOM      7  C   UNL     1      -0.174  11.089  19.808  0.00  0.00    +0.000 C 
ATOM      8  C   UNL     1       1.304  10.797  19.461  0.00  0.00    +0.000 C 
ENDROOT
BRANCH   1  15
ATOM      9  O   UNL     1       3.396   1.185  18.490  0.00  0.00    +0.000 OA
ATOM     10  C   UNL     1       2.960   2.327  18.366  0.00  0.00    +0.000 C 
ATOM     11  C   UNL     1       1.484   2.646  18.414  0.00  0.00    +0.000 C 
ATOM     12  C   UNL     1       1.217   3.982  19.096  0.00  0.00    +0.000 C 
ATOM     13  C   UNL     1       2.139   5.060  18.588  0.00  0.00    +0.000 A 
ATOM     14  C   UNL     1       1.804   6.416  18.713  0.00  0.00    +0.000 A 
ATOM     15  C   UNL     1       2.662   7.417  18.220  0.00  0.00    +0.000 A 
ATOM     16  C   UNL     1       3.840   7.029  17.583  0.00  0.00    +0.000 A 
ATOM     17  F   UNL     1       4.631   7.924  16.975  0.00  0.00    +0.000 F 
ATOM     18  C   UNL     1       4.229   5.692  17.537  0.00  0.00    +0.000 A 
ATOM     19  C   UNL     1       3.379   4.710  18.046  0.00  0.00    +0.000 A 
ATOM     20  N   UNL     1       3.782   3.372  18.039  0.00  0.00    +0.000 N 
ATOM     21  H   UNL     1       4.744   3.128  17.836  0.00  0.00    +0.000 HD
ENDBRANCH   1  15
BRANCH   7  22
ATOM     22  C   UNL     1      -1.216  10.749  18.741  0.00  0.00    +0.000 A 
ATOM     23  C   UNL     1      -0.873   9.912  17.662  0.00  0.00    +0.000 A 
ATOM     24  C   UNL     1      -1.805   9.600  16.668  0.00  0.00    +0.000 A 
ATOM     25  C   UNL     1      -3.099  10.099  16.755  0.00  0.00    +0.000 A 
ATOM     26  F   UNL     1      -3.975   9.795  15.784  0.00  0.00    +0.000 F 
ATOM     27  C   UNL     1      -3.475  10.891  17.832  0.00  0.00    +0.000 A 
ATOM     28 CL   UNL     1      -5.085  11.493  17.959  0.00  0.00    +0.000 Cl
ATOM     29  C   UNL     1      -2.545  11.205  18.824  0.00  0.00    +0.000 A 
ENDBRANCH   7  22
TORSDOF 2
ENDMDL
MODEL 3
REMARK VINA RESULT:      -7.8      4.386      9.155
REMARK  Name = 
REMARK  2 active torsions:
REMARK  status: ('A' for Active; 'I' for Inactive)
REMARK    1  A    between atoms: C_7  and  C_8
REMARK    2  A    between atoms: C_14  and  C_15
REMARK                            x       y       z     vdW  Elec       q    Type
REMARK                         _______ _______ _______ _____ _____    ______ ____
ROOT
ATOM      1  C   UNL     1       0.753   9.922  20.785  0.00  0.00    +0.000 C 
ATOM      2  O   UNL     1       1.318  10.318  21.807  0.00  0.00    +0.000 OA
ATOM      3  N   UNL     1      -0.416  10.522  20.323  0.00  0.00    +0.000 N 
ATOM      4  C   UNL     1      -1.126  10.267  19.068  0.00  0.00    +0.000 C 
ATOM      5  C   UNL     1      -1.566  11.565  18.379  0.00  0.00    +0.000 C 
ATOM      6  O   UNL     1      -2.192  12.508  19.262  0.00  0.00    +0.000 OA
ATOM      7  C   UNL     1      -1.384  12.814  20.425  0.00  0.00    +0.000 C 
ATOM      8  C   UNL     1      -1.097  11.497  21.183  0.00  0.00    +0.000 C 
ENDROOT
BRANCH   1  15
ATOM      9  O   UNL     1       3.799   3.327  18.126  0.00  0.00    +0.000 OA
ATOM     10  C   UNL     1       3.103   4.215  18.611  0.00  0.00    +0.000 C 
ATOM     11  C   UNL     1       2.028   3.942  19.636  0.00  0.00    +0.000 C 
ATOM     12  C   UNL     1       1.935   5.057  20.670  0.00  0.00    +0.000 C 
ATOM     13  C   UNL     1       1.940   6.418  20.021  0.00  0.00    +0.000 A 
ATOM     14  C   UNL     1       1.421   7.537  20.687  0.00  0.00    +0.000 A 
ATOM     15  C   UNL     1       1.413   8.802  20.068  0.00  0.00    +0.000 A 
ATOM     16  C   UNL     1       1.908   8.910  18.770  0.00  0.00    +0.000 A 
ATOM     17  F   UNL     1       1.805  10.053  18.078  0.00  0.00    +0.000 F 
ATOM     18  C   UNL     1       2.510   7.826  18.134  0.00  0.00    +0.000 A 
ATOM     19  C   UNL     1       2.530   6.583  18.765  0.00  0.00    +0.000 A 
ATOM     20  N   UNL     1       3.169   5.503  18.150  0.00  0.00    +0.000 N 
ATOM     21  H   UNL     1       3.765   5.651  17.344  0.00  0.00    +0.000 HD
ENDBRANCH   1  15
BRANCH   7  22
ATOM     22  C   UNL     1      -0.179  13.689  20.073  0.00  0.00    +0.000 A 
ATOM     23  C   UNL     1      -0.311  14.722  19.124  0.00  0.00    +0.000 A 
ATOM     24  C   UNL     1       0.781  15.522  18.776  0.00  0.00    +0.000 A 
ATOM     25  C   UNL     1       2.010  15.318  19.392  0.00  0.00    +0.000 A 
ATOM     26  F   UNL     1       3.047  16.092  19.036  0.00  0.00    +0.000 F 
ATOM     27  C   UNL     1       2.155  14.335  20.362  0.00  0.00    +0.000 A 
ATOM     28 CL   UNL     1       3.670  14.092  21.148  0.00  0.00    +0.000 Cl
ATOM     29  C   UNL     1       1.066  13.533  20.709  0.00  0.00    +0.000 A 
ENDBRANCH   7  22
TORSDOF 2
ENDMDL
MODEL 4
REMARK VINA RESULT:      -7.8      5.153     10.388
REMARK  Name = 
REMARK  2 active torsions:
REMARK  status: ('A' for Active; 'I' for Inactive)
REMARK    1  A    between atoms: C_7  and  C_8
REMARK    2  A    between atoms: C_14  and  C_15
REMARK                            x       y       z     vdW  Elec       q    Type
REMARK                         _______ _______ _______ _____ _____    ______ ____
ROOT
ATOM      1  C   UNL     1      -0.131  10.869  19.147  0.00  0.00    +0.000 C 
ATOM      2  O   UNL     1      -1.322  10.711  18.867  0.00  0.00    +0.000 OA
ATOM      3  N   UNL     1       0.425  12.141  19.257  0.00  0.00    +0.000 N 
ATOM      4  C   UNL     1       1.770  12.502  19.713  0.00  0.00    +0.000 C 
ATOM      5  C   UNL     1       1.751  13.693  20.680  0.00  0.00    +0.000 C 
ATOM      6  O   UNL     1       0.935  14.788  20.238  0.00  0.00    +0.000 OA
ATOM      7  C   UNL     1      -0.421  14.388  19.921  0.00  0.00    +0.000 C 
ATOM      8  C   UNL     1      -0.367  13.299  18.825  0.00  0.00    +0.000 C 
ENDROOT
BRANCH   1  15
ATOM      9  O   UNL     1       4.377   4.582  19.129  0.00  0.00    +0.000 OA
ATOM     10  C   UNL     1       3.873   5.696  19.008  0.00  0.00    +0.000 C 
ATOM     11  C   UNL     1       4.295   6.669  17.932  0.00  0.00    +0.000 C 
ATOM     12  C   UNL     1       3.115   7.477  17.406  0.00  0.00    +0.000 C 
ATOM     13  C   UNL     1       2.266   8.015  18.529  0.00  0.00    +0.000 A 
ATOM     14  C   UNL     1       1.428   9.123  18.334  0.00  0.00    +0.000 A 
ATOM     15  C   UNL     1       0.651   9.631  19.392  0.00  0.00    +0.000 A 
ATOM     16  C   UNL     1       0.753   9.026  20.643  0.00  0.00    +0.000 A 
ATOM     17  F   UNL     1       0.146   9.543  21.720  0.00  0.00    +0.000 F 
ATOM     18  C   UNL     1       1.509   7.869  20.826  0.00  0.00    +0.000 A 
ATOM     19  C   UNL     1       2.259   7.363  19.765  0.00  0.00    +0.000 A 
ATOM     20  N   UNL     1       2.986   6.181  19.931  0.00  0.00    +0.000 N 
ATOM     21  H   UNL     1       2.836   5.597  20.746  0.00  0.00    +0.000 HD
ENDBRANCH   1  15
BRANCH   7  22
ATOM     22  C   UNL     1      -1.234  14.067  21.177  0.00  0.00    +0.000 A 
ATOM     23  C   UNL     1      -2.278  13.122  21.119  0.00  0.00    +0.000 A 
ATOM     24  C   UNL     1      -3.044  12.825  22.250  0.00  0.00    +0.000 A 
ATOM     25  C   UNL     1      -2.759  13.449  23.459  0.00  0.00    +0.000 A 
ATOM     26  F   UNL     1      -3.513  13.156  24.530  0.00  0.00    +0.000 F 
ATOM     27  C   UNL     1      -1.708  14.352  23.552  0.00  0.00    +0.000 A 
ATOM     28 CL   UNL     1      -1.333  15.111  25.054  0.00  0.00    +0.000 Cl
ATOM     29  C   UNL     1      -0.944  14.652  22.423  0.00  0.00    +0.000 A 
ENDBRANCH   7  22
TORSDOF 2
ENDMDL
MODEL 5
REMARK VINA RESULT:      -7.8      4.941     10.135
REMARK  Name = 
REMARK  2 active torsions:
REMARK  status: ('A' for Active; 'I' for Inactive)
REMARK    1  A    between atoms: C_7  and  C_8
REMARK    2  A    between atoms: C_14  and  C_15
REMARK                            x       y       z     vdW  Elec       q    Type
REMARK                         _______ _______ _______ _____ _____    ______ ____
ROOT
ATOM      1  C   UNL     1      -0.031  10.866  19.099  0.00  0.00    +0.000 C 
ATOM      2  O   UNL     1      -1.257  10.780  19.205  0.00  0.00    +0.000 OA
ATOM      3  N   UNL     1       0.588  12.075  18.795  0.00  0.00    +0.000 N 
ATOM      4  C   UNL     1       2.022  12.375  18.770  0.00  0.00    +0.000 C 
ATOM      5  C   UNL     1       2.344  13.712  19.450  0.00  0.00    +0.000 C 
ATOM      6  O   UNL     1       1.481  14.789  19.052  0.00  0.00    +0.000 OA
ATOM      7  C   UNL     1       0.076  14.477  19.217  0.00  0.00    +0.000 C 
ATOM      8  C   UNL     1      -0.246  13.213  18.387  0.00  0.00    +0.000 C 
ENDROOT
BRANCH   1  15
ATOM      9  O   UNL     1       4.381   4.510  19.108  0.00  0.00    +0.000 OA
ATOM     10  C   UNL     1       3.894   5.631  18.981  0.00  0.00    +0.000 C 
ATOM     11  C   UNL     1       4.324   6.588  17.894  0.00  0.00    +0.000 C 
ATOM     12  C   UNL     1       3.153   7.410  17.368  0.00  0.00    +0.000 C 
ATOM     13  C   UNL     1       2.319   7.971  18.492  0.00  0.00    +0.000 A 
ATOM     14  C   UNL     1       1.497   9.089  18.292  0.00  0.00    +0.000 A 
ATOM     15  C   UNL     1       0.734   9.618  19.350  0.00  0.00    +0.000 A 
ATOM     16  C   UNL     1       0.834   9.021  20.605  0.00  0.00    +0.000 A 
ATOM     17  F   UNL     1       0.241   9.557  21.681  0.00  0.00    +0.000 F 
ATOM     18  C   UNL     1       1.573   7.855  20.794  0.00  0.00    +0.000 A 
ATOM     19  C   UNL     1       2.309   7.329  19.733  0.00  0.00    +0.000 A 
ATOM     20  N   UNL     1       3.019   6.137  19.905  0.00  0.00    +0.000 N 
ATOM     21  H   UNL     1       2.865   5.563  20.725  0.00  0.00    +0.000 HD
ENDBRANCH   1  15
BRANCH   7  22
ATOM     22  C   UNL     1      -0.340  14.463  20.689  0.00  0.00    +0.000 A 
ATOM     23  C   UNL     1       0.083  15.493  21.552  0.00  0.00    +0.000 A 
ATOM     24  C   UNL     1      -0.272  15.492  22.903  0.00  0.00    +0.000 A 
ATOM     25  C   UNL     1      -1.077  14.476  23.404  0.00  0.00    +0.000 A 
ATOM     26  F   UNL     1      -1.398  14.490  24.708  0.00  0.00    +0.000 F 
ATOM     27  C   UNL     1      -1.543  13.472  22.566  0.00  0.00    +0.000 A 
ATOM     28 CL   UNL     1      -2.562  12.222  23.174  0.00  0.00    +0.000 Cl
ATOM     29  C   UNL     1      -1.187  13.470  21.216  0.00  0.00    +0.000 A 
ENDBRANCH   7  22
TORSDOF 2
ENDMDL
MODEL 6
REMARK VINA RESULT:      -7.7      4.647      9.214
REMARK  Name = 
REMARK  2 active torsions:
REMARK  status: ('A' for Active; 'I' for Inactive)
REMARK    1  A    between atoms: C_7  and  C_8
REMARK    2  A    between atoms: C_14  and  C_15
REMARK                            x       y       z     vdW  Elec       q    Type
REMARK                         _______ _______ _______ _____ _____    ______ ____
ROOT
ATOM      1  C   UNL     1       0.760  10.015  20.607  0.00  0.00    +0.000 C 
ATOM      2  O   UNL     1       1.356  10.494  21.574  0.00  0.00    +0.000 OA
ATOM      3  N   UNL     1      -0.441  10.556  20.155  0.00  0.00    +0.000 N 
ATOM      4  C   UNL     1      -1.197  10.198  18.952  0.00  0.00    +0.000 C 
ATOM      5  C   UNL     1      -1.696  11.436  18.195  0.00  0.00    +0.000 C 
ATOM      6  O   UNL     1      -2.308  12.424  19.037  0.00  0.00    +0.000 OA
ATOM      7  C   UNL     1      -1.461  12.829  20.140  0.00  0.00    +0.000 C 
ATOM      8  C   UNL     1      -1.110  11.574  20.974  0.00  0.00    +0.000 C 
ENDROOT
BRANCH   1  15
ATOM      9  O   UNL     1       3.814   3.305  18.262  0.00  0.00    +0.000 OA
ATOM     10  C   UNL     1       3.119   4.214  18.709  0.00  0.00    +0.000 C 
ATOM     11  C   UNL     1       2.063   3.990  19.765  0.00  0.00    +0.000 C 
ATOM     12  C   UNL     1       1.978   5.160  20.738  0.00  0.00    +0.000 C 
ATOM     13  C   UNL     1       1.961   6.482  20.016  0.00  0.00    +0.000 A 
ATOM     14  C   UNL     1       1.445   7.634  20.628  0.00  0.00    +0.000 A 
ATOM     15  C   UNL     1       1.417   8.862  19.942  0.00  0.00    +0.000 A 
ATOM     16  C   UNL     1       1.890   8.902  18.632  0.00  0.00    +0.000 A 
ATOM     17  F   UNL     1       1.767  10.005  17.879  0.00  0.00    +0.000 F 
ATOM     18  C   UNL     1       2.491   7.790  18.046  0.00  0.00    +0.000 A 
ATOM     19  C   UNL     1       2.531   6.583  18.743  0.00  0.00    +0.000 A 
ATOM     20  N   UNL     1       3.168   5.475  18.178  0.00  0.00    +0.000 N 
ATOM     21  H   UNL     1       3.750   5.583  17.355  0.00  0.00    +0.000 HD
ENDBRANCH   1  15
BRANCH   7  22
ATOM     22  C   UNL     1      -0.293  13.702  19.677  0.00  0.00    +0.000 A 
ATOM     23  C   UNL     1       1.019  13.190  19.691  0.00  0.00    +0.000 A 
ATOM     24  C   UNL     1       2.103  13.975  19.288  0.00  0.00    +0.000 A 
ATOM     25  C   UNL     1       1.885  15.272  18.839  0.00  0.00    +0.000 A 
ATOM     26  F   UNL     1       2.942  16.012  18.466  0.00  0.00    +0.000 F 
ATOM     27  C   UNL     1       0.597  15.786  18.774  0.00  0.00    +0.000 A 
ATOM     28 CL   UNL     1       0.317  17.385  18.196  0.00  0.00    +0.000 Cl
ATOM     29  C   UNL     1      -0.486  15.004  19.180  0.00  0.00    +0.000 A 
ENDBRANCH   7  22
TORSDOF 2
ENDMDL
MODEL 7
REMARK VINA RESULT:      -7.7      5.028     10.380
REMARK  Name = 
REMARK  2 active torsions:
REMARK  status: ('A' for Active; 'I' for Inactive)
REMARK    1  A    between atoms: C_7  and  C_8
REMARK    2  A    between atoms: C_14  and  C_15
REMARK                            x       y       z     vdW  Elec       q    Type
REMARK                         _______ _______ _______ _____ _____    ______ ____
ROOT
ATOM      1  C   UNL     1      -0.118  10.917  18.952  0.00  0.00    +0.000 C 
ATOM      2  O   UNL     1      -1.195  10.758  18.374  0.00  0.00    +0.000 OA
ATOM      3  N   UNL     1       0.329  12.184  19.317  0.00  0.00    +0.000 N 
ATOM      4  C   UNL     1       1.503  12.531  20.123  0.00  0.00    +0.000 C 
ATOM      5  C   UNL     1       1.189  13.612  21.165  0.00  0.00    +0.000 C 
ATOM      6  O   UNL     1       0.449  14.725  20.643  0.00  0.00    +0.000 OA
ATOM      7  C   UNL     1      -0.768  14.325  19.965  0.00  0.00    +0.000 C 
ATOM      8  C   UNL     1      -0.393  13.360  18.816  0.00  0.00    +0.000 C 
ENDROOT
BRANCH   1  15
ATOM      9  O   UNL     1       4.331   4.597  19.287  0.00  0.00    +0.000 OA
ATOM     10  C   UNL     1       3.843   5.711  19.114  0.00  0.00    +0.000 C 
ATOM     11  C   UNL     1       4.309   6.645  18.022  0.00  0.00    +0.000 C 
ATOM     12  C   UNL     1       3.155   7.446  17.431  0.00  0.00    +0.000 C 
ATOM     13  C   UNL     1       2.273   8.026  18.507  0.00  0.00    +0.000 A 
ATOM     14  C   UNL     1       1.452   9.133  18.249  0.00  0.00    +0.000 A 
ATOM     15  C   UNL     1       0.645   9.681  19.263  0.00  0.00    +0.000 A 
ATOM     16  C   UNL     1       0.699   9.115  20.535  0.00  0.00    +0.000 A 
ATOM     17  F   UNL     1       0.059   9.671  21.573  0.00  0.00    +0.000 F 
ATOM     18  C   UNL     1       1.437   7.959  20.780  0.00  0.00    +0.000 A 
ATOM     19  C   UNL     1       2.219   7.413  19.762  0.00  0.00    +0.000 A 
ATOM     20  N   UNL     1       2.929   6.231  19.990  0.00  0.00    +0.000 N 
ATOM     21  H   UNL     1       2.746   5.675  20.816  0.00  0.00    +0.000 HD
ENDBRANCH   1  15
BRANCH   7  22
ATOM     22  C   UNL     1      -1.843  13.853  20.944  0.00  0.00    +0.000 A 
ATOM     23  C   UNL     1      -1.649  14.003  22.332  0.00  0.00    +0.000 A 
ATOM     24  C   UNL     1      -2.611  13.564  23.245  0.00  0.00    +0.000 A 
ATOM     25  C   UNL     1      -3.791  12.994  22.783  0.00  0.00    +0.000 A 
ATOM     26  F   UNL     1      -4.697  12.571  23.679  0.00  0.00    +0.000 F 
ATOM     27  C   UNL     1      -4.026  12.874  21.420  0.00  0.00    +0.000 A 
ATOM     28 CL   UNL     1      -5.498  12.190  20.839  0.00  0.00    +0.000 Cl
ATOM     29  C   UNL     1      -3.065  13.309  20.506  0.00  0.00    +0.000 A 
ENDBRANCH   7  22
TORSDOF 2
ENDMDL
MODEL 8
REMARK VINA RESULT:      -7.6      4.626      8.618
REMARK  Name = 
REMARK  2 active torsions:
REMARK  status: ('A' for Active; 'I' for Inactive)
REMARK    1  A    between atoms: C_7  and  C_8
REMARK    2  A    between atoms: C_14  and  C_15
REMARK                            x       y       z     vdW  Elec       q    Type
REMARK                         _______ _______ _______ _____ _____    ______ ____
ROOT
ATOM      1  C   UNL     1       1.140   9.118  20.898  0.00  0.00    +0.000 C 
ATOM      2  O   UNL     1       1.766   9.474  21.899  0.00  0.00    +0.000 OA
ATOM      3  N   UNL     1       0.067   9.860  20.412  0.00  0.00    +0.000 N 
ATOM      4  C   UNL     1      -0.685   9.654  19.171  0.00  0.00    +0.000 C 
ATOM      5  C   UNL     1      -0.937  10.970  18.424  0.00  0.00    +0.000 C 
ATOM      6  O   UNL     1      -1.411  12.033  19.264  0.00  0.00    +0.000 OA
ATOM      7  C   UNL     1      -0.557  12.272  20.409  0.00  0.00    +0.000 C 
ATOM      8  C   UNL     1      -0.457  10.963  21.226  0.00  0.00    +0.000 C 
ENDROOT
BRANCH   1  15
ATOM      9  O   UNL     1       3.033   2.023  18.464  0.00  0.00    +0.000 OA
ATOM     10  C   UNL     1       2.488   3.037  18.894  0.00  0.00    +0.000 C 
ATOM     11  C   UNL     1       1.297   2.992  19.822  0.00  0.00    +0.000 C 
ATOM     12  C   UNL     1       1.340   4.115  20.852  0.00  0.00    +0.000 C 
ATOM     13  C   UNL     1       1.669   5.440  20.215  0.00  0.00    +0.000 A 
ATOM     14  C   UNL     1       1.329   6.648  20.842  0.00  0.00    +0.000 A 
ATOM     15  C   UNL     1       1.623   7.882  20.233  0.00  0.00    +0.000 A 
ATOM     16  C   UNL     1       2.238   7.876  18.982  0.00  0.00    +0.000 A 
ATOM     17  F   UNL     1       2.422   9.010  18.291  0.00  0.00    +0.000 F 
ATOM     18  C   UNL     1       2.665   6.688  18.393  0.00  0.00    +0.000 A 
ATOM     19  C   UNL     1       2.385   5.472  19.014  0.00  0.00    +0.000 A 
ATOM     20  N   UNL     1       2.847   4.280  18.449  0.00  0.00    +0.000 N 
ATOM     21  H   UNL     1       3.527   4.300  17.698  0.00  0.00    +0.000 HD
ENDBRANCH   1  15
BRANCH   7  22
ATOM     22  C   UNL     1       0.760  12.944  20.013  0.00  0.00    +0.000 A 
ATOM     23  C   UNL     1       0.971  13.351  18.681  0.00  0.00    +0.000 A 
ATOM     24  C   UNL     1       2.172  13.952  18.294  0.00  0.00    +0.000 A 
ATOM     25  C   UNL     1       3.165  14.180  19.240  0.00  0.00    +0.000 A 
ATOM     26  F   UNL     1       4.315  14.750  18.844  0.00  0.00    +0.000 F 
ATOM     27  C   UNL     1       2.964  13.827  20.568  0.00  0.00    +0.000 A 
ATOM     28 CL   UNL     1       4.182  14.128  21.750  0.00  0.00    +0.000 Cl
ATOM     29  C   UNL     1       1.767  13.223  20.955  0.00  0.00    +0.000 A 
ENDBRANCH   7  22
TORSDOF 2
ENDMDL
MODEL 9
REMARK VINA RESULT:      -7.5      4.297      8.398
REMARK  Name = 
REMARK  2 active torsions:
REMARK  status: ('A' for Active; 'I' for Inactive)
REMARK    1  A    between atoms: C_7  and  C_8
REMARK    2  A    between atoms: C_14  and  C_15
REMARK                            x       y       z     vdW  Elec       q    Type
REMARK                         _______ _______ _______ _____ _____    ______ ____
ROOT
ATOM      1  C   UNL     1       1.995   9.241  18.515  0.00  0.00    +0.000 C 
ATOM      2  O   UNL     1       2.217   9.790  17.433  0.00  0.00    +0.000 OA
ATOM      3  N   UNL     1       1.303   9.895  19.531  0.00  0.00    +0.000 N 
ATOM      4  C   UNL     1       0.840   9.344  20.808  0.00  0.00    +0.000 C 
ATOM      5  C   UNL     1      -0.594   9.777  21.137  0.00  0.00    +0.000 C 
ATOM      6  O   UNL     1      -0.837  11.178  20.945  0.00  0.00    +0.000 OA
ATOM      7  C   UNL     1      -0.474  11.638  19.620  0.00  0.00    +0.000 C 
ATOM      8  C   UNL     1       1.023  11.328  19.387  0.00  0.00    +0.000 C 
ENDROOT
BRANCH   1  15
ATOM      9  O   UNL     1       3.658   1.897  20.288  0.00  0.00    +0.000 OA
ATOM     10  C   UNL     1       3.138   2.985  20.053  0.00  0.00    +0.000 C 
ATOM     11  C   UNL     1       1.808   3.396  20.639  0.00  0.00    +0.000 C 
ATOM     12  C   UNL     1       1.772   4.883  20.971  0.00  0.00    +0.000 C 
ATOM     13  C   UNL     1       2.316   5.718  19.840  0.00  0.00    +0.000 A 
ATOM     14  C   UNL     1       1.979   7.074  19.716  0.00  0.00    +0.000 A 
ATOM     15  C   UNL     1       2.476   7.843  18.647  0.00  0.00    +0.000 A 
ATOM     16  C   UNL     1       3.290   7.221  17.703  0.00  0.00    +0.000 A 
ATOM     17  F   UNL     1       3.685   7.861  16.593  0.00  0.00    +0.000 F 
ATOM     18  C   UNL     1       3.708   5.902  17.866  0.00  0.00    +0.000 A 
ATOM     19  C   UNL     1       3.224   5.155  18.939  0.00  0.00    +0.000 A 
ATOM     20  N   UNL     1       3.671   3.845  19.131  0.00  0.00    +0.000 N 
ATOM     21  H   UNL     1       4.467   3.494  18.611  0.00  0.00    +0.000 HD
ENDBRANCH   1  15
BRANCH   7  22
ATOM     22  C   UNL     1      -1.457  11.150  18.554  0.00  0.00    +0.000 A 
ATOM     23  C   UNL     1      -1.075  10.137  17.653  0.00  0.00    +0.000 A 
ATOM     24  C   UNL     1      -1.951   9.687  16.662  0.00  0.00    +0.000 A 
ATOM     25  C   UNL     1      -3.229  10.225  16.575  0.00  0.00    +0.000 A 
ATOM     26  F   UNL     1      -4.051   9.785  15.609  0.00  0.00    +0.000 F 
ATOM     27  C   UNL     1      -3.646  11.194  17.478  0.00  0.00    +0.000 A 
ATOM     28 CL   UNL     1      -5.238  11.849  17.392  0.00  0.00    +0.000 Cl
ATOM     29  C   UNL     1      -2.771  11.647  18.468  0.00  0.00    +0.000 A 
ENDBRANCH   7  22
TORSDOF 2
ENDMDL
