MODEL 1
REMARK VINA RESULT:      -8.5      0.000      0.000
REMARK  Name = 
REMARK  7 active torsions:
REMARK  status: ('A' for Active; 'I' for Inactive)
REMARK    1  A    between atoms: C_1  and  C_2
REMARK    2  A    between atoms: N_4  and  C_5
REMARK    3  A    between atoms: C_5  and  C_6
REMARK    4  A    between atoms: C_10  and  C_11
REMARK    5  A    between atoms: C_11  and  N_12
REMARK    6  A    between atoms: C_13  and  C_15
REMARK    7  A    between atoms: C_17  and  N_18
REMARK                            x       y       z     vdW  Elec       q    Type
REMARK                         _______ _______ _______ _____ _____    ______ ____
ROOT
ATOM      1  C   UNL     1       1.942   6.804  21.201  0.00  0.00    +0.000 C 
ENDROOT
BRANCH   1   6
ATOM      2  C   UNL     1       2.714   4.534  18.218  0.00  0.00    +0.000 A 
ATOM      3  C   UNL     1       2.119   3.341  18.659  0.00  0.00    +0.000 A 
ATOM      4  C   UNL     1       1.350   3.316  19.820  0.00  0.00    +0.000 A 
ATOM      5  C   UNL     1       1.228   4.464  20.601  0.00  0.00    +0.000 A 
ATOM      6  C   UNL     1       1.890   5.645  20.237  0.00  0.00    +0.000 A 
ATOM      7  C   UNL     1       2.581   5.687  19.012  0.00  0.00    +0.000 A 
BRANCH   2   8
ATOM      8  C   UNL     1       3.517   4.546  16.928  0.00  0.00    +0.000 C 
BRANCH   8  12
ATOM      9  C   UNL     1       7.366   6.225  18.506  0.00  0.00    +0.000 C 
ATOM     10  C   UNL     1       6.790   6.541  17.127  0.00  0.00    +0.000 C 
ATOM     11  C   UNL     1       5.275   6.263  17.038  0.00  0.00    +0.000 C 
ATOM     12  N   UNL     1       4.958   4.818  17.092  0.00  0.00    +0.000 NA
ATOM     13  C   UNL     1       5.716   4.155  16.003  0.00  0.00    +0.000 C 
ATOM     14  C   UNL     1       7.224   4.448  16.075  0.00  0.00    +0.000 C 
ATOM     15  O   UNL     1       7.501   5.854  16.084  0.00  0.00    +0.000 OA
ENDBRANCH   8  12
ENDBRANCH   2   8
ENDBRANCH   1   6
BRANCH   1  16
ATOM     16  N   UNL     1       1.244   7.980  20.755  0.00  0.00    +0.000 N 
ATOM     17  C   UNL     1       1.209   9.122  21.535  0.00  0.00    +0.000 C 
ATOM     18  O   UNL     1       1.758   9.214  22.627  0.00  0.00    +0.000 OA
ATOM     19  H   UNL     1       0.751   7.995  19.870  0.00  0.00    +0.000 HD
BRANCH  17  20
ATOM     20  C   UNL     1       0.435  10.263  20.949  0.00  0.00    +0.000 A 
ATOM     21  C   UNL     1      -0.446  10.047  19.884  0.00  0.00    +0.000 A 
ATOM     22  C   UNL     1      -1.148  11.122  19.327  0.00  0.00    +0.000 A 
ATOM     23  C   UNL     1      -0.917  12.371  19.921  0.00  0.00    +0.000 A 
ATOM     24  C   UNL     1      -0.028  12.500  20.982  0.00  0.00    +0.000 A 
ATOM     25  N   UNL     1       0.660  11.477  21.514  0.00  0.00    +0.000 NA
BRANCH  22  26
ATOM     26  N   UNL     1      -2.010  10.982  18.262  0.00  0.00    +0.000 N 
ATOM     27  C   UNL     1      -3.326  11.605  18.143  0.00  0.00    +0.000 C 
ATOM     28  C   UNL     1      -4.130  10.569  17.368  0.00  0.00    +0.000 C 
ATOM     29  C   UNL     1      -3.113   9.991  16.399  0.00  0.00    +0.000 C 
ATOM     30  C   UNL     1      -1.795  10.025  17.171  0.00  0.00    +0.000 C 
ENDBRANCH  22  26
ENDBRANCH  17  20
ENDBRANCH   1  16
TORSDOF 6
ENDMDL
MODEL 2
REMARK VINA RESULT:      -8.4      0.781      1.095
REMARK  Name = 
REMARK  7 active torsions:
REMARK  status: ('A' for Active; 'I' for Inactive)
REMARK    1  A    between atoms: C_1  and  C_2
REMARK    2  A    between atoms: N_4  and  C_5
REMARK    3  A    between atoms: C_5  and  C_6
REMARK    4  A    between atoms: C_10  and  C_11
REMARK    5  A    between atoms: C_11  and  N_12
REMARK    6  A    between atoms: C_13  and  C_15
REMARK    7  A    between atoms: C_17  and  N_18
REMARK                            x       y       z     vdW  Elec       q    Type
REMARK                         _______ _______ _______ _____ _____    ______ ____
ROOT
ATOM      1  C   UNL     1       1.898   7.349  20.961  0.00  0.00    +0.000 C 
ENDROOT
BRANCH   1   6
ATOM      2  C   UNL     1       2.807   4.680  18.372  0.00  0.00    +0.000 A 
ATOM      3  C   UNL     1       2.321   3.535  19.022  0.00  0.00    +0.000 A 
ATOM      4  C   UNL     1       1.576   3.642  20.194  0.00  0.00    +0.000 A 
ATOM      5  C   UNL     1       1.373   4.892  20.778  0.00  0.00    +0.000 A 
ATOM      6  C   UNL     1       1.927   6.045  20.204  0.00  0.00    +0.000 A 
ATOM      7  C   UNL     1       2.592   5.936  18.968  0.00  0.00    +0.000 A 
BRANCH   2   8
ATOM      8  C   UNL     1       3.584   4.540  17.074  0.00  0.00    +0.000 C 
BRANCH   8  12
ATOM      9  C   UNL     1       7.448   6.405  18.384  0.00  0.00    +0.000 C 
ATOM     10  C   UNL     1       6.833   6.583  16.997  0.00  0.00    +0.000 C 
ATOM     11  C   UNL     1       5.320   6.280  16.975  0.00  0.00    +0.000 C 
ATOM     12  N   UNL     1       5.025   4.844  17.173  0.00  0.00    +0.000 NA
ATOM     13  C   UNL     1       5.764   4.089  16.131  0.00  0.00    +0.000 C 
ATOM     14  C   UNL     1       7.270   4.406  16.135  0.00  0.00    +0.000 C 
ATOM     15  O   UNL     1       7.527   5.810  16.004  0.00  0.00    +0.000 OA
ENDBRANCH   8  12
ENDBRANCH   2   8
ENDBRANCH   1   6
BRANCH   1  16
ATOM     16  N   UNL     1       1.280   8.435  20.250  0.00  0.00    +0.000 N 
ATOM     17  C   UNL     1       0.972   9.620  20.894  0.00  0.00    +0.000 C 
ATOM     18  O   UNL     1       1.203   9.827  22.080  0.00  0.00    +0.000 OA
ATOM     19  H   UNL     1       1.042   8.354  19.268  0.00  0.00    +0.000 HD
BRANCH  17  20
ATOM     20  C   UNL     1       0.321  10.657  20.031  0.00  0.00    +0.000 A 
ATOM     21  C   UNL     1      -0.788  10.327  19.245  0.00  0.00    +0.000 A 
ATOM     22  C   UNL     1      -1.377  11.295  18.424  0.00  0.00    +0.000 A 
ATOM     23  C   UNL     1      -0.798  12.571  18.478  0.00  0.00    +0.000 A 
ATOM     24  C   UNL     1       0.301  12.819  19.293  0.00  0.00    +0.000 A 
ATOM     25  N   UNL     1       0.881  11.893  20.073  0.00  0.00    +0.000 NA
BRANCH  22  26
ATOM     26  N   UNL     1      -2.453  11.030  17.606  0.00  0.00    +0.000 N 
ATOM     27  C   UNL     1      -2.391  10.379  16.299  0.00  0.00    +0.000 C 
ATOM     28  C   UNL     1      -3.513  11.056  15.522  0.00  0.00    +0.000 C 
ATOM     29  C   UNL     1      -4.586  11.274  16.575  0.00  0.00    +0.000 C 
ATOM     30  C   UNL     1      -3.805  11.542  17.860  0.00  0.00    +0.000 C 
ENDBRANCH  22  26
ENDBRANCH  17  20
ENDBRANCH   1  16
TORSDOF 6
ENDMDL
MODEL 3
REMARK VINA RESULT:      -8.4      2.091      3.668
REMARK  Name = 
REMARK  7 active torsions:
REMARK  status: ('A' for Active; 'I' for Inactive)
REMARK    1  A    between atoms: C_1  and  C_2
REMARK    2  A    between atoms: N_4  and  C_5
REMARK    3  A    between atoms: C_5  and  C_6
REMARK    4  A    between atoms: C_10  and  C_11
REMARK    5  A    between atoms: C_11  and  N_12
REMARK    6  A    between atoms: C_13  and  C_15
REMARK    7  A    between atoms: C_17  and  N_18
REMARK                            x       y       z     vdW  Elec       q    Type
REMARK                         _______ _______ _______ _____ _____    ______ ____
ROOT
ATOM      1  C   UNL     1       1.693   9.601  18.204  0.00  0.00    +0.000 C 
ENDROOT
BRANCH   1   6
ATOM      2  C   UNL     1       2.710   5.923  18.493  0.00  0.00    +0.000 A 
ATOM      3  C   UNL     1       2.568   5.739  19.876  0.00  0.00    +0.000 A 
ATOM      4  C   UNL     1       2.005   6.733  20.674  0.00  0.00    +0.000 A 
ATOM      5  C   UNL     1       1.648   7.957  20.112  0.00  0.00    +0.000 A 
ATOM      6  C   UNL     1       1.865   8.206  18.750  0.00  0.00    +0.000 A 
ATOM      7  C   UNL     1       2.342   7.161  17.936  0.00  0.00    +0.000 A 
BRANCH   2   8
ATOM      8  C   UNL     1       3.291   4.809  17.638  0.00  0.00    +0.000 C 
BRANCH   8  12
ATOM      9  C   UNL     1       6.587   5.122  14.610  0.00  0.00    +0.000 C 
ATOM     10  C   UNL     1       6.633   4.222  15.843  0.00  0.00    +0.000 C 
ATOM     11  C   UNL     1       5.231   3.922  16.412  0.00  0.00    +0.000 C 
ATOM     12  N   UNL     1       4.599   5.112  17.023  0.00  0.00    +0.000 NA
ATOM     13  C   UNL     1       5.527   5.628  18.059  0.00  0.00    +0.000 C 
ATOM     14  C   UNL     1       6.933   5.907  17.500  0.00  0.00    +0.000 C 
ATOM     15  O   UNL     1       7.498   4.756  16.859  0.00  0.00    +0.000 OA
ENDBRANCH   8  12
ENDBRANCH   2   8
ENDBRANCH   1   6
BRANCH   1  16
ATOM     16  N   UNL     1       0.400   9.859  17.628  0.00  0.00    +0.000 N 
ATOM     17  C   UNL     1      -0.613  10.421  18.383  0.00  0.00    +0.000 C 
ATOM     18  O   UNL     1      -0.486  10.737  19.561  0.00  0.00    +0.000 OA
ATOM     19  H   UNL     1       0.198   9.622  16.664  0.00  0.00    +0.000 HD
BRANCH  17  20
ATOM     20  C   UNL     1      -1.907  10.620  17.655  0.00  0.00    +0.000 A 
ATOM     21  C   UNL     1      -2.970  11.288  18.271  0.00  0.00    +0.000 A 
ATOM     22  C   UNL     1      -4.183  11.450  17.593  0.00  0.00    +0.000 A 
ATOM     23  C   UNL     1      -4.226  10.927  16.292  0.00  0.00    +0.000 A 
ATOM     24  C   UNL     1      -3.122  10.281  15.749  0.00  0.00    +0.000 A 
ATOM     25  N   UNL     1      -1.958  10.109  16.397  0.00  0.00    +0.000 NA
BRANCH  22  26
ATOM     26  N   UNL     1      -5.277  12.074  18.152  0.00  0.00    +0.000 N 
ATOM     27  C   UNL     1      -5.606  12.104  19.574  0.00  0.00    +0.000 C 
ATOM     28  C   UNL     1      -7.130  12.099  19.576  0.00  0.00    +0.000 C 
ATOM     29  C   UNL     1      -7.484  12.942  18.363  0.00  0.00    +0.000 C 
ATOM     30  C   UNL     1      -6.372  12.643  17.358  0.00  0.00    +0.000 C 
ENDBRANCH  22  26
ENDBRANCH  17  20
ENDBRANCH   1  16
TORSDOF 6
ENDMDL
MODEL 4
REMARK VINA RESULT:      -8.2      2.240      3.702
REMARK  Name = 
REMARK  7 active torsions:
REMARK  status: ('A' for Active; 'I' for Inactive)
REMARK    1  A    between atoms: C_1  and  C_2
REMARK    2  A    between atoms: N_4  and  C_5
REMARK    3  A    between atoms: C_5  and  C_6
REMARK    4  A    between atoms: C_10  and  C_11
REMARK    5  A    between atoms: C_11  and  N_12
REMARK    6  A    between atoms: C_13  and  C_15
REMARK    7  A    between atoms: C_17  and  N_18
REMARK                            x       y       z     vdW  Elec       q    Type
REMARK                         _______ _______ _______ _____ _____    ______ ____
ROOT
ATOM      1  C   UNL     1       1.439   9.890  17.930  0.00  0.00    +0.000 C 
ENDROOT
BRANCH   1   6
ATOM      2  C   UNL     1       2.826   6.343  18.311  0.00  0.00    +0.000 A 
ATOM      3  C   UNL     1       2.732   6.193  19.703  0.00  0.00    +0.000 A 
ATOM      4  C   UNL     1       2.089   7.152  20.482  0.00  0.00    +0.000 A 
ATOM      5  C   UNL     1       1.599   8.315  19.890  0.00  0.00    +0.000 A 
ATOM      6  C   UNL     1       1.763   8.538  18.516  0.00  0.00    +0.000 A 
ATOM      7  C   UNL     1       2.324   7.519  17.724  0.00  0.00    +0.000 A 
BRANCH   2   8
ATOM      8  C   UNL     1       3.498   5.265  17.478  0.00  0.00    +0.000 C 
BRANCH   8  12
ATOM      9  C   UNL     1       7.713   6.326  18.590  0.00  0.00    +0.000 C 
ATOM     10  C   UNL     1       7.057   6.686  17.258  0.00  0.00    +0.000 C 
ATOM     11  C   UNL     1       5.516   6.664  17.330  0.00  0.00    +0.000 C 
ATOM     12  N   UNL     1       4.974   5.297  17.488  0.00  0.00    +0.000 NA
ATOM     13  C   UNL     1       5.496   4.478  16.367  0.00  0.00    +0.000 C 
ATOM     14  C   UNL     1       7.031   4.516  16.278  0.00  0.00    +0.000 C 
ATOM     15  O   UNL     1       7.535   5.854  16.188  0.00  0.00    +0.000 OA
ENDBRANCH   8  12
ENDBRANCH   2   8
ENDBRANCH   1   6
BRANCH   1  16
ATOM     16  N   UNL     1       0.052  10.082  17.607  0.00  0.00    +0.000 N 
ATOM     17  C   UNL     1      -0.681  11.096  18.197  0.00  0.00    +0.000 C 
ATOM     18  O   UNL     1      -0.213  11.885  19.010  0.00  0.00    +0.000 OA
ATOM     19  H   UNL     1      -0.425   9.472  16.953  0.00  0.00    +0.000 HD
BRANCH  17  20
ATOM     20  C   UNL     1      -2.116  11.167  17.774  0.00  0.00    +0.000 A 
ATOM     21  C   UNL     1      -3.097  11.598  18.672  0.00  0.00    +0.000 A 
ATOM     22  C   UNL     1      -4.439  11.640  18.277  0.00  0.00    +0.000 A 
ATOM     23  C   UNL     1      -4.694  11.253  16.953  0.00  0.00    +0.000 A 
ATOM     24  C   UNL     1      -3.660  10.842  16.121  0.00  0.00    +0.000 A 
ATOM     25  N   UNL     1      -2.372  10.785  16.496  0.00  0.00    +0.000 NA
BRANCH  22  26
ATOM     26  N   UNL     1      -5.457  12.030  19.119  0.00  0.00    +0.000 N 
ATOM     27  C   UNL     1      -5.333  12.978  20.224  0.00  0.00    +0.000 C 
ATOM     28  C   UNL     1      -6.323  12.442  21.251  0.00  0.00    +0.000 C 
ATOM     29  C   UNL     1      -7.463  11.915  20.397  0.00  0.00    +0.000 C 
ATOM     30  C   UNL     1      -6.779  11.393  19.134  0.00  0.00    +0.000 C 
ENDBRANCH  22  26
ENDBRANCH  17  20
ENDBRANCH   1  16
TORSDOF 6
ENDMDL
MODEL 5
REMARK VINA RESULT:      -8.2      3.560      5.004
REMARK  Name = 
REMARK  7 active torsions:
REMARK  status: ('A' for Active; 'I' for Inactive)
REMARK    1  A    between atoms: C_1  and  C_2
REMARK    2  A    between atoms: N_4  and  C_5
REMARK    3  A    between atoms: C_5  and  C_6
REMARK    4  A    between atoms: C_10  and  C_11
REMARK    5  A    between atoms: C_11  and  N_12
REMARK    6  A    between atoms: C_13  and  C_15
REMARK    7  A    between atoms: C_17  and  N_18
REMARK                            x       y       z     vdW  Elec       q    Type
REMARK                         _______ _______ _______ _____ _____    ______ ____
ROOT
ATOM      1  C   UNL     1       0.106   8.810  21.308  0.00  0.00    +0.000 C 
ENDROOT
BRANCH   1   6
ATOM      2  C   UNL     1       2.550   7.485  18.677  0.00  0.00    +0.000 A 
ATOM      3  C   UNL     1       2.472   8.517  17.730  0.00  0.00    +0.000 A 
ATOM      4  C   UNL     1       1.768   9.688  18.007  0.00  0.00    +0.000 A 
ATOM      5  C   UNL     1       1.067   9.811  19.206  0.00  0.00    +0.000 A 
ATOM      6  C   UNL     1       1.048   8.759  20.131  0.00  0.00    +0.000 A 
ATOM      7  C   UNL     1       1.842   7.623  19.885  0.00  0.00    +0.000 A 
BRANCH   2   8
ATOM      8  C   UNL     1       3.355   6.235  18.367  0.00  0.00    +0.000 C 
BRANCH   8  12
ATOM      9  C   UNL     1       1.682   3.024  21.015  0.00  0.00    +0.000 C 
ATOM     10  C   UNL     1       2.957   2.879  20.187  0.00  0.00    +0.000 C 
ATOM     11  C   UNL     1       3.566   4.240  19.791  0.00  0.00    +0.000 C 
ATOM     12  N   UNL     1       2.736   4.969  18.806  0.00  0.00    +0.000 NA
ATOM     13  C   UNL     1       2.546   4.076  17.637  0.00  0.00    +0.000 C 
ATOM     14  C   UNL     1       1.961   2.710  18.031  0.00  0.00    +0.000 C 
ATOM     15  O   UNL     1       2.749   2.052  19.031  0.00  0.00    +0.000 OA
ENDBRANCH   8  12
ENDBRANCH   2   8
ENDBRANCH   1   6
BRANCH   1  16
ATOM     16  N   UNL     1      -0.475  10.103  21.548  0.00  0.00    +0.000 N 
ATOM     17  C   UNL     1      -0.532  10.629  22.826  0.00  0.00    +0.000 C 
ATOM     18  O   UNL     1      -0.097  10.052  23.817  0.00  0.00    +0.000 OA
ATOM     19  H   UNL     1      -0.869  10.651  20.792  0.00  0.00    +0.000 HD
BRANCH  17  20
ATOM     20  C   UNL     1      -1.175  11.978  22.926  0.00  0.00    +0.000 A 
ATOM     21  C   UNL     1      -2.565  12.092  23.034  0.00  0.00    +0.000 A 
ATOM     22  C   UNL     1      -3.161  13.356  23.104  0.00  0.00    +0.000 A 
ATOM     23  C   UNL     1      -2.278  14.445  23.082  0.00  0.00    +0.000 A 
ATOM     24  C   UNL     1      -0.906  14.246  22.978  0.00  0.00    +0.000 A 
ATOM     25  N   UNL     1      -0.327  13.038  22.897  0.00  0.00    +0.000 NA
BRANCH  22  26
ATOM     26  N   UNL     1      -4.524  13.539  23.185  0.00  0.00    +0.000 N 
ATOM     27  C   UNL     1      -5.278  14.616  22.549  0.00  0.00    +0.000 C 
ATOM     28  C   UNL     1      -6.405  14.881  23.540  0.00  0.00    +0.000 C 
ATOM     29  C   UNL     1      -6.732  13.497  24.076  0.00  0.00    +0.000 C 
ATOM     30  C   UNL     1      -5.388  12.770  24.088  0.00  0.00    +0.000 C 
ENDBRANCH  22  26
ENDBRANCH  17  20
ENDBRANCH   1  16
TORSDOF 6
ENDMDL
MODEL 6
REMARK VINA RESULT:      -8.0      2.897      4.829
REMARK  Name = 
REMARK  7 active torsions:
REMARK  status: ('A' for Active; 'I' for Inactive)
REMARK    1  A    between atoms: C_1  and  C_2
REMARK    2  A    between atoms: N_4  and  C_5
REMARK    3  A    between atoms: C_5  and  C_6
REMARK    4  A    between atoms: C_10  and  C_11
REMARK    5  A    between atoms: C_11  and  N_12
REMARK    6  A    between atoms: C_13  and  C_15
REMARK    7  A    between atoms: C_17  and  N_18
REMARK                            x       y       z     vdW  Elec       q    Type
REMARK                         _______ _______ _______ _____ _____    ______ ____
ROOT
ATOM      1  C   UNL     1       0.840  10.815  18.318  0.00  0.00    +0.000 C 
ENDROOT
BRANCH   1   6
ATOM      2  C   UNL     1       2.419   7.354  18.740  0.00  0.00    +0.000 A 
ATOM      3  C   UNL     1       2.211   7.157  20.113  0.00  0.00    +0.000 A 
ATOM      4  C   UNL     1       1.437   8.050  20.852  0.00  0.00    +0.000 A 
ATOM      5  C   UNL     1       0.926   9.196  20.246  0.00  0.00    +0.000 A 
ATOM      6  C   UNL     1       1.198   9.470  18.898  0.00  0.00    +0.000 A 
ATOM      7  C   UNL     1       1.895   8.512  18.137  0.00  0.00    +0.000 A 
BRANCH   2   8
ATOM      8  C   UNL     1       3.234   6.346  17.947  0.00  0.00    +0.000 C 
BRANCH   8  12
ATOM      9  C   UNL     1       4.078   2.279  19.642  0.00  0.00    +0.000 C 
ATOM     10  C   UNL     1       3.860   2.565  18.158  0.00  0.00    +0.000 C 
ATOM     11  C   UNL     1       4.095   4.047  17.797  0.00  0.00    +0.000 C 
ATOM     12  N   UNL     1       3.056   4.939  18.356  0.00  0.00    +0.000 NA
ATOM     13  C   UNL     1       1.741   4.446  17.877  0.00  0.00    +0.000 C 
ATOM     14  C   UNL     1       1.512   2.963  18.215  0.00  0.00    +0.000 C 
ATOM     15  O   UNL     1       2.564   2.127  17.716  0.00  0.00    +0.000 OA
ENDBRANCH   8  12
ENDBRANCH   2   8
ENDBRANCH   1   6
BRANCH   1  16
ATOM     16  N   UNL     1      -0.537  10.946  17.925  0.00  0.00    +0.000 N 
ATOM     17  C   UNL     1      -1.458  11.549  18.762  0.00  0.00    +0.000 C 
ATOM     18  O   UNL     1      -1.176  12.009  19.863  0.00  0.00    +0.000 OA
ATOM     19  H   UNL     1      -0.867  10.587  17.037  0.00  0.00    +0.000 HD
BRANCH  17  20
ATOM     20  C   UNL     1      -2.857  11.604  18.227  0.00  0.00    +0.000 A 
ATOM     21  C   UNL     1      -3.924  11.928  19.069  0.00  0.00    +0.000 A 
ATOM     22  C   UNL     1      -5.230  11.954  18.568  0.00  0.00    +0.000 A 
ATOM     23  C   UNL     1      -5.361  11.664  17.202  0.00  0.00    +0.000 A 
ATOM     24  C   UNL     1      -4.247  11.357  16.430  0.00  0.00    +0.000 A 
ATOM     25  N   UNL     1      -2.992  11.316  16.906  0.00  0.00    +0.000 NA
BRANCH  22  26
ATOM     26  N   UNL     1      -6.328  12.239  19.349  0.00  0.00    +0.000 N 
ATOM     27  C   UNL     1      -7.462  13.072  18.955  0.00  0.00    +0.000 C 
ATOM     28  C   UNL     1      -7.874  13.737  20.262  0.00  0.00    +0.000 C 
ATOM     29  C   UNL     1      -7.634  12.651  21.297  0.00  0.00    +0.000 C 
ATOM     30  C   UNL     1      -6.418  11.890  20.771  0.00  0.00    +0.000 C 
ENDBRANCH  22  26
ENDBRANCH  17  20
ENDBRANCH   1  16
TORSDOF 6
ENDMDL
MODEL 7
REMARK VINA RESULT:      -8.0      2.948      3.925
REMARK  Name = 
REMARK  7 active torsions:
REMARK  status: ('A' for Active; 'I' for Inactive)
REMARK    1  A    between atoms: C_1  and  C_2
REMARK    2  A    between atoms: N_4  and  C_5
REMARK    3  A    between atoms: C_5  and  C_6
REMARK    4  A    between atoms: C_10  and  C_11
REMARK    5  A    between atoms: C_11  and  N_12
REMARK    6  A    between atoms: C_13  and  C_15
REMARK    7  A    between atoms: C_17  and  N_18
REMARK                            x       y       z     vdW  Elec       q    Type
REMARK                         _______ _______ _______ _____ _____    ______ ____
ROOT
ATOM      1  C   UNL     1       1.029   8.420  21.463  0.00  0.00    +0.000 C 
ENDROOT
BRANCH   1   6
ATOM      2  C   UNL     1       2.666   6.628  18.504  0.00  0.00    +0.000 A 
ATOM      3  C   UNL     1       2.469   7.587  17.499  0.00  0.00    +0.000 A 
ATOM      4  C   UNL     1       1.961   8.848  17.806  0.00  0.00    +0.000 A 
ATOM      5  C   UNL     1       1.570   9.142  19.111  0.00  0.00    +0.000 A 
ATOM      6  C   UNL     1       1.666   8.172  20.119  0.00  0.00    +0.000 A 
ATOM      7  C   UNL     1       2.272   6.938  19.818  0.00  0.00    +0.000 A 
BRANCH   2   8
ATOM      8  C   UNL     1       3.257   5.274  18.150  0.00  0.00    +0.000 C 
BRANCH   8  12
ATOM      9  C   UNL     1       6.021   4.866  14.640  0.00  0.00    +0.000 C 
ATOM     10  C   UNL     1       6.131   4.044  15.923  0.00  0.00    +0.000 C 
ATOM     11  C   UNL     1       4.813   4.011  16.723  0.00  0.00    +0.000 C 
ATOM     12  N   UNL     1       4.477   5.322  17.320  0.00  0.00    +0.000 NA
ATOM     13  C   UNL     1       5.629   5.740  18.154  0.00  0.00    +0.000 C 
ATOM     14  C   UNL     1       6.950   5.753  17.366  0.00  0.00    +0.000 C 
ATOM     15  O   UNL     1       7.222   4.489  16.746  0.00  0.00    +0.000 OA
ENDBRANCH   8  12
ENDBRANCH   2   8
ENDBRANCH   1   6
BRANCH   1  16
ATOM     16  N   UNL     1       0.295   9.653  21.555  0.00  0.00    +0.000 N 
ATOM     17  C   UNL     1      -0.028  10.196  22.785  0.00  0.00    +0.000 C 
ATOM     18  O   UNL     1       0.285   9.686  23.855  0.00  0.00    +0.000 OA
ATOM     19  H   UNL     1      -0.015  10.143  20.724  0.00  0.00    +0.000 HD
BRANCH  17  20
ATOM     20  C   UNL     1      -0.805  11.476  22.726  0.00  0.00    +0.000 A 
ATOM     21  C   UNL     1      -2.193  11.469  22.895  0.00  0.00    +0.000 A 
ATOM     22  C   UNL     1      -2.915  12.665  22.816  0.00  0.00    +0.000 A 
ATOM     23  C   UNL     1      -2.152  13.820  22.588  0.00  0.00    +0.000 A 
ATOM     24  C   UNL     1      -0.773  13.742  22.437  0.00  0.00    +0.000 A 
ATOM     25  N   UNL     1      -0.074  12.597  22.497  0.00  0.00    +0.000 NA
BRANCH  22  26
ATOM     26  N   UNL     1      -4.285  12.724  22.947  0.00  0.00    +0.000 N 
ATOM     27  C   UNL     1      -5.240  12.863  21.850  0.00  0.00    +0.000 C 
ATOM     28  C   UNL     1      -6.360  13.689  22.471  0.00  0.00    +0.000 C 
ATOM     29  C   UNL     1      -6.417  13.182  23.902  0.00  0.00    +0.000 C 
ATOM     30  C   UNL     1      -4.966  12.844  24.240  0.00  0.00    +0.000 C 
ENDBRANCH  22  26
ENDBRANCH  17  20
ENDBRANCH   1  16
TORSDOF 6
ENDMDL
MODEL 8
REMARK VINA RESULT:      -7.9      2.969      3.900
REMARK  Name = 
REMARK  7 active torsions:
REMARK  status: ('A' for Active; 'I' for Inactive)
REMARK    1  A    between atoms: C_1  and  C_2
REMARK    2  A    between atoms: N_4  and  C_5
REMARK    3  A    between atoms: C_5  and  C_6
REMARK    4  A    between atoms: C_10  and  C_11
REMARK    5  A    between atoms: C_11  and  N_12
REMARK    6  A    between atoms: C_13  and  C_15
REMARK    7  A    between atoms: C_17  and  N_18
REMARK                            x       y       z     vdW  Elec       q    Type
REMARK                         _______ _______ _______ _____ _____    ______ ____
ROOT
ATOM      1  C   UNL     1       0.967   8.388  21.236  0.00  0.00    +0.000 C 
ENDROOT
BRANCH   1   6
ATOM      2  C   UNL     1       2.917   6.686  18.416  0.00  0.00    +0.000 A 
ATOM      3  C   UNL     1       2.761   7.641  17.400  0.00  0.00    +0.000 A 
ATOM      4  C   UNL     1       2.176   8.877  17.668  0.00  0.00    +0.000 A 
ATOM      5  C   UNL     1       1.666   9.146  18.938  0.00  0.00    +0.000 A 
ATOM      6  C   UNL     1       1.721   8.175  19.947  0.00  0.00    +0.000 A 
ATOM      7  C   UNL     1       2.403   6.970  19.694  0.00  0.00    +0.000 A 
BRANCH   2   8
ATOM      8  C   UNL     1       3.593   5.360  18.109  0.00  0.00    +0.000 C 
BRANCH   8  12
ATOM      9  C   UNL     1       7.871   6.647  18.518  0.00  0.00    +0.000 C 
ATOM     10  C   UNL     1       7.026   6.854  17.262  0.00  0.00    +0.000 C 
ATOM     11  C   UNL     1       5.511   6.795  17.549  0.00  0.00    +0.000 C 
ATOM     12  N   UNL     1       5.053   5.435  17.910  0.00  0.00    +0.000 NA
ATOM     13  C   UNL     1       5.453   4.524  16.810  0.00  0.00    +0.000 C 
ATOM     14  C   UNL     1       6.959   4.596  16.505  0.00  0.00    +0.000 C 
ATOM     15  O   UNL     1       7.388   5.933  16.219  0.00  0.00    +0.000 OA
ENDBRANCH   8  12
ENDBRANCH   2   8
ENDBRANCH   1   6
BRANCH   1  16
ATOM     16  N   UNL     1       0.343   9.678  21.353  0.00  0.00    +0.000 N 
ATOM     17  C   UNL     1       0.017  10.198  22.593  0.00  0.00    +0.000 C 
ATOM     18  O   UNL     1       0.237   9.617  23.650  0.00  0.00    +0.000 OA
ATOM     19  H   UNL     1       0.114  10.228  20.533  0.00  0.00    +0.000 HD
BRANCH  17  20
ATOM     20  C   UNL     1      -0.638  11.544  22.560  0.00  0.00    +0.000 A 
ATOM     21  C   UNL     1      -1.905  11.728  23.124  0.00  0.00    +0.000 A 
ATOM     22  C   UNL     1      -2.521  12.983  23.070  0.00  0.00    +0.000 A 
ATOM     23  C   UNL     1      -1.777  13.998  22.451  0.00  0.00    +0.000 A 
ATOM     24  C   UNL     1      -0.520  13.734  21.919  0.00  0.00    +0.000 A 
ATOM     25  N   UNL     1       0.073  12.530  21.954  0.00  0.00    +0.000 NA
BRANCH  22  26
ATOM     26  N   UNL     1      -3.776  13.225  23.583  0.00  0.00    +0.000 N 
ATOM     27  C   UNL     1      -4.420  12.468  24.653  0.00  0.00    +0.000 C 
ATOM     28  C   UNL     1      -5.894  12.511  24.269  0.00  0.00    +0.000 C 
ATOM     29  C   UNL     1      -6.059  13.897  23.670  0.00  0.00    +0.000 C 
ATOM     30  C   UNL     1      -4.722  14.173  22.984  0.00  0.00    +0.000 C 
ENDBRANCH  22  26
ENDBRANCH  17  20
ENDBRANCH   1  16
TORSDOF 6
ENDMDL
MODEL 9
REMARK VINA RESULT:      -7.8      2.325      3.113
REMARK  Name = 
REMARK  7 active torsions:
REMARK  status: ('A' for Active; 'I' for Inactive)
REMARK    1  A    between atoms: C_1  and  C_2
REMARK    2  A    between atoms: N_4  and  C_5
REMARK    3  A    between atoms: C_5  and  C_6
REMARK    4  A    between atoms: C_10  and  C_11
REMARK    5  A    between atoms: C_11  and  N_12
REMARK    6  A    between atoms: C_13  and  C_15
REMARK    7  A    between atoms: C_17  and  N_18
REMARK                            x       y       z     vdW  Elec       q    Type
REMARK                         _______ _______ _______ _____ _____    ______ ____
ROOT
ATOM      1  C   UNL     1       1.651  10.041  18.209  0.00  0.00    +0.000 C 
ENDROOT
BRANCH   1   6
ATOM      2  C   UNL     1       2.832   6.402  18.330  0.00  0.00    +0.000 A 
ATOM      3  C   UNL     1       2.642   6.129  19.693  0.00  0.00    +0.000 A 
ATOM      4  C   UNL     1       1.999   7.047  20.521  0.00  0.00    +0.000 A 
ATOM      5  C   UNL     1       1.606   8.286  20.015  0.00  0.00    +0.000 A 
ATOM      6  C   UNL     1       1.869   8.625  18.680  0.00  0.00    +0.000 A 
ATOM      7  C   UNL     1       2.428   7.653  17.829  0.00  0.00    +0.000 A 
BRANCH   2   8
ATOM      8  C   UNL     1       3.502   5.369  17.439  0.00  0.00    +0.000 C 
BRANCH   8  12
ATOM      9  C   UNL     1       7.716   6.444  18.540  0.00  0.00    +0.000 C 
ATOM     10  C   UNL     1       7.083   6.726  17.179  0.00  0.00    +0.000 C 
ATOM     11  C   UNL     1       5.541   6.729  17.229  0.00  0.00    +0.000 C 
ATOM     12  N   UNL     1       4.978   5.382  17.468  0.00  0.00    +0.000 NA
ATOM     13  C   UNL     1       5.503   4.485  16.411  0.00  0.00    +0.000 C 
ATOM     14  C   UNL     1       7.040   4.496  16.342  0.00  0.00    +0.000 C 
ATOM     15  O   UNL     1       7.563   5.820  16.172  0.00  0.00    +0.000 OA
ENDBRANCH   8  12
ENDBRANCH   2   8
ENDBRANCH   1   6
BRANCH   1  16
ATOM     16  N   UNL     1       0.580  10.732  18.874  0.00  0.00    +0.000 N 
ATOM     17  C   UNL     1      -0.724  10.616  18.429  0.00  0.00    +0.000 C 
ATOM     18  O   UNL     1      -1.053   9.931  17.466  0.00  0.00    +0.000 OA
ATOM     19  H   UNL     1       0.757  11.329  19.674  0.00  0.00    +0.000 HD
BRANCH  17  20
ATOM     20  C   UNL     1      -1.731  11.401  19.212  0.00  0.00    +0.000 A 
ATOM     21  C   UNL     1      -3.009  11.627  18.693  0.00  0.00    +0.000 A 
ATOM     22  C   UNL     1      -3.938  12.381  19.420  0.00  0.00    +0.000 A 
ATOM     23  C   UNL     1      -3.498  12.845  20.668  0.00  0.00    +0.000 A 
ATOM     24  C   UNL     1      -2.210  12.571  21.115  0.00  0.00    +0.000 A 
ATOM     25  N   UNL     1      -1.309  11.861  20.418  0.00  0.00    +0.000 NA
BRANCH  22  26
ATOM     26  N   UNL     1      -5.204  12.662  18.955  0.00  0.00    +0.000 N 
ATOM     27  C   UNL     1      -6.280  13.272  19.732  0.00  0.00    +0.000 C 
ATOM     28  C   UNL     1      -7.532  12.615  19.162  0.00  0.00    +0.000 C 
ATOM     29  C   UNL     1      -7.208  12.469  17.685  0.00  0.00    +0.000 C 
ATOM     30  C   UNL     1      -5.703  12.210  17.652  0.00  0.00    +0.000 C 
ENDBRANCH  22  26
ENDBRANCH  17  20
ENDBRANCH   1  16
TORSDOF 6
ENDMDL
