MODEL 1
REMARK VINA RESULT:      -8.5      0.000      0.000
REMARK  Name = 
REMARK  5 active torsions:
REMARK  status: ('A' for Active; 'I' for Inactive)
REMARK    1  A    between atoms: C_1  and  N_2
REMARK    2  A    between atoms: C_6  and  C_7
REMARK    3  A    between atoms: C_7  and  C_8
REMARK    4  A    between atoms: C_8  and  C_9
REMARK    5  A    between atoms: C_13  and  N_14
REMARK                            x       y       z     vdW  Elec       q    Type
REMARK                         _______ _______ _______ _____ _____    ______ ____
ROOT
ATOM      1  C   UNL     1       5.274   6.232  18.057  0.00  0.00    +0.000 A 
ATOM      2  C   UNL     1       4.665   7.321  17.404  0.00  0.00    +0.000 A 
ATOM      3  C   UNL     1       3.280   7.439  17.318  0.00  0.00    +0.000 A 
ATOM      4  C   UNL     1       2.466   6.464  17.883  0.00  0.00    +0.000 A 
ATOM      5  C   UNL     1       3.019   5.389  18.589  0.00  0.00    +0.000 A 
ATOM      6  C   UNL     1       4.410   5.313  18.696  0.00  0.00    +0.000 A 
ENDROOT
BRANCH   5   7
ATOM      7  N   UNL     1       2.161   4.412  19.184  0.00  0.00    +0.000 N 
ATOM      8  C   UNL     1       1.480   3.418  18.349  0.00  0.00    +0.000 C 
ATOM      9  C   UNL     1       1.976   1.970  18.477  0.00  0.00    +0.000 C 
ATOM     10  C   UNL     1       3.486   1.812  18.669  0.00  0.00    +0.000 C 
ATOM     11  C   UNL     1       4.041   1.971  20.065  0.00  0.00    +0.000 C 
ATOM     12  C   UNL     1       3.441   2.411  21.182  0.00  0.00    +0.000 C 
ATOM     13  C   UNL     1       2.086   3.008  21.197  0.00  0.00    +0.000 C 
ATOM     14  O   UNL     1       1.120   2.481  21.710  0.00  0.00    +0.000 OA
ATOM     15  C   UNL     1       2.037   4.390  20.575  0.00  0.00    +0.000 C 
ATOM     16  O   UNL     1       2.096   5.349  21.335  0.00  0.00    +0.000 OA
ENDBRANCH   5   7
BRANCH   1  17
ATOM     17  C   UNL     1       6.862   5.969  17.987  0.00  0.00    +0.000 C 
ATOM     18  C   UNL     1       7.766   7.190  17.643  0.00  0.00    +0.000 C 
ATOM     19  O   UNL     1       8.474   7.097  18.898  0.00  0.00    +0.000 OA
ATOM     20  C   UNL     1       7.597   6.053  19.358  0.00  0.00    +0.000 C 
BRANCH  17  21
ATOM     21  C   UNL     1       7.214   4.673  17.230  0.00  0.00    +0.000 C 
BRANCH  21  27
ATOM     22  C   UNL     1       4.752   3.455  15.707  0.00  0.00    +0.000 C 
ATOM     23  N   UNL     1       5.859   4.166  15.124  0.00  0.00    +0.000 N 
ATOM     24  C   UNL     1       6.034   4.406  13.798  0.00  0.00    +0.000 A 
ATOM     25  N   UNL     1       7.149   5.067  13.612  0.00  0.00    +0.000 NA
ATOM     26  N   UNL     1       7.727   5.253  14.836  0.00  0.00    +0.000 NA
ATOM     27  C   UNL     1       6.949   4.725  15.763  0.00  0.00    +0.000 A 
ENDBRANCH  21  27
ENDBRANCH  17  21
ENDBRANCH   1  17
TORSDOF 4
ENDMDL
MODEL 2
REMARK VINA RESULT:      -8.4      1.972      3.121
REMARK  Name = 
REMARK  5 active torsions:
REMARK  status: ('A' for Active; 'I' for Inactive)
REMARK    1  A    between atoms: C_1  and  N_2
REMARK    2  A    between atoms: C_6  and  C_7
REMARK    3  A    between atoms: C_7  and  C_8
REMARK    4  A    between atoms: C_8  and  C_9
REMARK    5  A    between atoms: C_13  and  N_14
REMARK                            x       y       z     vdW  Elec       q    Type
REMARK                         _______ _______ _______ _____ _____    ______ ____
ROOT
ATOM      1  C   UNL     1       4.675   5.725  16.814  0.00  0.00    +0.000 A 
ATOM      2  C   UNL     1       4.322   7.089  16.839  0.00  0.00    +0.000 A 
ATOM      3  C   UNL     1       3.234   7.548  17.579  0.00  0.00    +0.000 A 
ATOM      4  C   UNL     1       2.467   6.649  18.312  0.00  0.00    +0.000 A 
ATOM      5  C   UNL     1       2.807   5.292  18.364  0.00  0.00    +0.000 A 
ATOM      6  C   UNL     1       3.924   4.861  17.645  0.00  0.00    +0.000 A 
ENDROOT
BRANCH   5   7
ATOM      7  N   UNL     1       2.018   4.392  19.146  0.00  0.00    +0.000 N 
ATOM      8  C   UNL     1       1.179   3.382  18.492  0.00  0.00    +0.000 C 
ATOM      9  C   UNL     1       1.637   1.924  18.635  0.00  0.00    +0.000 C 
ATOM     10  C   UNL     1       3.151   1.708  18.601  0.00  0.00    +0.000 C 
ATOM     11  C   UNL     1       3.925   1.923  19.881  0.00  0.00    +0.000 C 
ATOM     12  C   UNL     1       3.525   2.454  21.046  0.00  0.00    +0.000 C 
ATOM     13  C   UNL     1       2.211   3.112  21.232  0.00  0.00    +0.000 C 
ATOM     14  O   UNL     1       1.319   2.660  21.922  0.00  0.00    +0.000 OA
ATOM     15  C   UNL     1       2.115   4.456  20.538  0.00  0.00    +0.000 C 
ATOM     16  O   UNL     1       2.327   5.454  21.216  0.00  0.00    +0.000 OA
ENDBRANCH   5   7
BRANCH   1  17
ATOM     17  C   UNL     1       5.791   5.147  15.807  0.00  0.00    +0.000 C 
ATOM     18  C   UNL     1       5.743   3.621  15.498  0.00  0.00    +0.000 C 
ATOM     19  O   UNL     1       5.539   3.850  14.087  0.00  0.00    +0.000 OA
ATOM     20  C   UNL     1       5.432   5.270  14.296  0.00  0.00    +0.000 C 
BRANCH  17  21
ATOM     21  C   UNL     1       7.200   5.701  16.105  0.00  0.00    +0.000 C 
BRANCH  21  27
ATOM     22  C   UNL     1       7.902   8.232  17.825  0.00  0.00    +0.000 C 
ATOM     23  N   UNL     1       7.871   6.866  18.278  0.00  0.00    +0.000 N 
ATOM     24  C   UNL     1       8.171   6.442  19.533  0.00  0.00    +0.000 A 
ATOM     25  N   UNL     1       8.053   5.139  19.598  0.00  0.00    +0.000 NA
ATOM     26  N   UNL     1       7.682   4.696  18.360  0.00  0.00    +0.000 NA
ATOM     27  C   UNL     1       7.554   5.733  17.553  0.00  0.00    +0.000 A 
ENDBRANCH  21  27
ENDBRANCH  17  21
ENDBRANCH   1  17
TORSDOF 4
ENDMDL
MODEL 3
REMARK VINA RESULT:      -8.3      4.778      7.451
REMARK  Name = 
REMARK  5 active torsions:
REMARK  status: ('A' for Active; 'I' for Inactive)
REMARK    1  A    between atoms: C_1  and  N_2
REMARK    2  A    between atoms: C_6  and  C_7
REMARK    3  A    between atoms: C_7  and  C_8
REMARK    4  A    between atoms: C_8  and  C_9
REMARK    5  A    between atoms: C_13  and  N_14
REMARK                            x       y       z     vdW  Elec       q    Type
REMARK                         _______ _______ _______ _____ _____    ______ ____
ROOT
ATOM      1  C   UNL     1       1.375   8.544  20.070  0.00  0.00    +0.000 A 
ATOM      2  C   UNL     1       1.637   8.930  18.740  0.00  0.00    +0.000 A 
ATOM      3  C   UNL     1       2.326   8.099  17.861  0.00  0.00    +0.000 A 
ATOM      4  C   UNL     1       2.776   6.856  18.292  0.00  0.00    +0.000 A 
ATOM      5  C   UNL     1       2.496   6.401  19.587  0.00  0.00    +0.000 A 
ATOM      6  C   UNL     1       1.770   7.237  20.438  0.00  0.00    +0.000 A 
ENDROOT
BRANCH   5   7
ATOM      7  N   UNL     1       2.947   5.109  19.999  0.00  0.00    +0.000 N 
ATOM      8  C   UNL     1       2.050   4.211  20.734  0.00  0.00    +0.000 C 
ATOM      9  C   UNL     1       1.555   2.973  19.973  0.00  0.00    +0.000 C 
ATOM     10  C   UNL     1       1.266   3.193  18.486  0.00  0.00    +0.000 C 
ATOM     11  C   UNL     1       2.429   3.139  17.523  0.00  0.00    +0.000 C 
ATOM     12  C   UNL     1       3.747   3.099  17.772  0.00  0.00    +0.000 C 
ATOM     13  C   UNL     1       4.326   3.275  19.124  0.00  0.00    +0.000 C 
ATOM     14  O   UNL     1       4.880   2.390  19.744  0.00  0.00    +0.000 OA
ATOM     15  C   UNL     1       4.231   4.700  19.631  0.00  0.00    +0.000 C 
ATOM     16  O   UNL     1       5.218   5.413  19.488  0.00  0.00    +0.000 OA
ENDBRANCH   5   7
BRANCH   1  17
ATOM     17  C   UNL     1       0.769   9.567  21.156  0.00  0.00    +0.000 C 
ATOM     18  C   UNL     1      -0.520   9.118  21.908  0.00  0.00    +0.000 C 
ATOM     19  O   UNL     1       0.134   9.177  23.193  0.00  0.00    +0.000 OA
ATOM     20  C   UNL     1       1.403   9.461  22.575  0.00  0.00    +0.000 C 
BRANCH  17  21
ATOM     21  C   UNL     1       0.746  11.023  20.649  0.00  0.00    +0.000 C 
BRANCH  21  27
ATOM     22  C   UNL     1      -0.927  12.819  22.608  0.00  0.00    +0.000 C 
ATOM     23  N   UNL     1      -1.335  12.351  21.310  0.00  0.00    +0.000 N 
ATOM     24  C   UNL     1      -2.537  12.591  20.724  0.00  0.00    +0.000 A 
ATOM     25  N   UNL     1      -2.581  12.009  19.551  0.00  0.00    +0.000 NA
ATOM     26  N   UNL     1      -1.392  11.362  19.367  0.00  0.00    +0.000 NA
ATOM     27  C   UNL     1      -0.621  11.573  20.418  0.00  0.00    +0.000 A 
ENDBRANCH  21  27
ENDBRANCH  17  21
ENDBRANCH   1  17
TORSDOF 4
ENDMDL
MODEL 4
REMARK VINA RESULT:      -8.3      4.525      7.174
REMARK  Name = 
REMARK  5 active torsions:
REMARK  status: ('A' for Active; 'I' for Inactive)
REMARK    1  A    between atoms: C_1  and  N_2
REMARK    2  A    between atoms: C_6  and  C_7
REMARK    3  A    between atoms: C_7  and  C_8
REMARK    4  A    between atoms: C_8  and  C_9
REMARK    5  A    between atoms: C_13  and  N_14
REMARK                            x       y       z     vdW  Elec       q    Type
REMARK                         _______ _______ _______ _____ _____    ______ ____
ROOT
ATOM      1  C   UNL     1       1.473   8.424  19.905  0.00  0.00    +0.000 A 
ATOM      2  C   UNL     1       1.837   8.774  18.590  0.00  0.00    +0.000 A 
ATOM      3  C   UNL     1       2.589   7.919  17.788  0.00  0.00    +0.000 A 
ATOM      4  C   UNL     1       3.000   6.687  18.285  0.00  0.00    +0.000 A 
ATOM      5  C   UNL     1       2.620   6.268  19.566  0.00  0.00    +0.000 A 
ATOM      6  C   UNL     1       1.834   7.126  20.337  0.00  0.00    +0.000 A 
ENDROOT
BRANCH   5   7
ATOM      7  N   UNL     1       3.033   4.986  20.045  0.00  0.00    +0.000 N 
ATOM      8  C   UNL     1       2.129   4.175  20.867  0.00  0.00    +0.000 C 
ATOM      9  C   UNL     1       1.557   2.914  20.205  0.00  0.00    +0.000 C 
ATOM     10  C   UNL     1       1.223   3.051  18.718  0.00  0.00    +0.000 C 
ATOM     11  C   UNL     1       2.347   2.887  17.722  0.00  0.00    +0.000 C 
ATOM     12  C   UNL     1       3.670   2.807  17.928  0.00  0.00    +0.000 C 
ATOM     13  C   UNL     1       4.305   3.044  19.245  0.00  0.00    +0.000 C 
ATOM     14  O   UNL     1       4.846   2.177  19.902  0.00  0.00    +0.000 OA
ATOM     15  C   UNL     1       4.286   4.501  19.661  0.00  0.00    +0.000 C 
ATOM     16  O   UNL     1       5.294   5.161  19.439  0.00  0.00    +0.000 OA
ENDBRANCH   5   7
BRANCH   1  17
ATOM     17  C   UNL     1       0.789   9.476  20.915  0.00  0.00    +0.000 C 
ATOM     18  C   UNL     1      -0.522   9.024  21.625  0.00  0.00    +0.000 C 
ATOM     19  O   UNL     1       0.069   9.159  22.935  0.00  0.00    +0.000 OA
ATOM     20  C   UNL     1       1.357   9.452  22.364  0.00  0.00    +0.000 C 
BRANCH  17  21
ATOM     21  C   UNL     1       0.751  10.907  20.341  0.00  0.00    +0.000 C 
BRANCH  21  27
ATOM     22  C   UNL     1      -1.298  10.492  17.998  0.00  0.00    +0.000 C 
ATOM     23  N   UNL     1      -1.490  11.296  19.176  0.00  0.00    +0.000 N 
ATOM     24  C   UNL     1      -2.593  12.037  19.456  0.00  0.00    +0.000 A 
ATOM     25  N   UNL     1      -2.432  12.653  20.601  0.00  0.00    +0.000 NA
ATOM     26  N   UNL     1      -1.194  12.323  21.076  0.00  0.00    +0.000 NA
ATOM     27  C   UNL     1      -0.618  11.490  20.230  0.00  0.00    +0.000 A 
ENDBRANCH  21  27
ENDBRANCH  17  21
ENDBRANCH   1  17
TORSDOF 4
ENDMDL
MODEL 5
REMARK VINA RESULT:      -8.1      4.528      7.012
REMARK  Name = 
REMARK  5 active torsions:
REMARK  status: ('A' for Active; 'I' for Inactive)
REMARK    1  A    between atoms: C_1  and  N_2
REMARK    2  A    between atoms: C_6  and  C_7
REMARK    3  A    between atoms: C_7  and  C_8
REMARK    4  A    between atoms: C_8  and  C_9
REMARK    5  A    between atoms: C_13  and  N_14
REMARK                            x       y       z     vdW  Elec       q    Type
REMARK                         _______ _______ _______ _____ _____    ______ ____
ROOT
ATOM      1  C   UNL     1       1.342   8.483  19.828  0.00  0.00    +0.000 A 
ATOM      2  C   UNL     1       1.754   8.869  18.538  0.00  0.00    +0.000 A 
ATOM      3  C   UNL     1       2.581   8.059  17.763  0.00  0.00    +0.000 A 
ATOM      4  C   UNL     1       3.021   6.839  18.263  0.00  0.00    +0.000 A 
ATOM      5  C   UNL     1       2.597   6.384  19.518  0.00  0.00    +0.000 A 
ATOM      6  C   UNL     1       1.737   7.196  20.261  0.00  0.00    +0.000 A 
ENDROOT
BRANCH   5   7
ATOM      7  N   UNL     1       3.042   5.114  20.000  0.00  0.00    +0.000 N 
ATOM      8  C   UNL     1       2.157   4.281  20.821  0.00  0.00    +0.000 C 
ATOM      9  C   UNL     1       1.619   3.005  20.159  0.00  0.00    +0.000 C 
ATOM     10  C   UNL     1       1.285   3.131  18.671  0.00  0.00    +0.000 C 
ATOM     11  C   UNL     1       2.415   2.995  17.678  0.00  0.00    +0.000 C 
ATOM     12  C   UNL     1       3.740   2.949  17.887  0.00  0.00    +0.000 C 
ATOM     13  C   UNL     1       4.365   3.204  19.206  0.00  0.00    +0.000 C 
ATOM     14  O   UNL     1       4.926   2.352  19.865  0.00  0.00    +0.000 OA
ATOM     15  C   UNL     1       4.308   4.661  19.620  0.00  0.00    +0.000 C 
ATOM     16  O   UNL     1       5.299   5.346  19.400  0.00  0.00    +0.000 OA
ENDBRANCH   5   7
BRANCH   1  17
ATOM     17  C   UNL     1       0.563   9.489  20.816  0.00  0.00    +0.000 C 
ATOM     18  C   UNL     1      -0.448   8.856  21.818  0.00  0.00    +0.000 C 
ATOM     19  O   UNL     1       0.281   9.350  22.962  0.00  0.00    +0.000 OA
ATOM     20  C   UNL     1       1.336   9.850  22.120  0.00  0.00    +0.000 C 
BRANCH  17  21
ATOM     21  C   UNL     1       0.049  10.750  20.092  0.00  0.00    +0.000 C 
BRANCH  21  27
ATOM     22  C   UNL     1       2.237  12.334  18.491  0.00  0.00    +0.000 C 
ATOM     23  N   UNL     1       1.695  12.679  19.778  0.00  0.00    +0.000 N 
ATOM     24  C   UNL     1       2.066  13.747  20.532  0.00  0.00    +0.000 A 
ATOM     25  N   UNL     1       1.383  13.757  21.649  0.00  0.00    +0.000 NA
ATOM     26  N   UNL     1       0.557  12.669  21.638  0.00  0.00    +0.000 NA
ATOM     27  C   UNL     1       0.725  12.015  20.503  0.00  0.00    +0.000 A 
ENDBRANCH  21  27
ENDBRANCH  17  21
ENDBRANCH   1  17
TORSDOF 4
ENDMDL
MODEL 6
REMARK VINA RESULT:      -8.1      4.786      7.340
REMARK  Name = 
REMARK  5 active torsions:
REMARK  status: ('A' for Active; 'I' for Inactive)
REMARK    1  A    between atoms: C_1  and  N_2
REMARK    2  A    between atoms: C_6  and  C_7
REMARK    3  A    between atoms: C_7  and  C_8
REMARK    4  A    between atoms: C_8  and  C_9
REMARK    5  A    between atoms: C_13  and  N_14
REMARK                            x       y       z     vdW  Elec       q    Type
REMARK                         _______ _______ _______ _____ _____    ______ ____
ROOT
ATOM      1  C   UNL     1       1.445   8.394  19.801  0.00  0.00    +0.000 A 
ATOM      2  C   UNL     1       1.889   8.744  18.511  0.00  0.00    +0.000 A 
ATOM      3  C   UNL     1       2.713   7.901  17.769  0.00  0.00    +0.000 A 
ATOM      4  C   UNL     1       3.117   6.683  18.302  0.00  0.00    +0.000 A 
ATOM      5  C   UNL     1       2.662   6.263  19.558  0.00  0.00    +0.000 A 
ATOM      6  C   UNL     1       1.805   7.109  20.267  0.00  0.00    +0.000 A 
ENDROOT
BRANCH   5   7
ATOM      7  N   UNL     1       3.071   4.995  20.075  0.00  0.00    +0.000 N 
ATOM      8  C   UNL     1       2.177   4.227  20.947  0.00  0.00    +0.000 C 
ATOM      9  C   UNL     1       1.574   2.949  20.345  0.00  0.00    +0.000 C 
ATOM     10  C   UNL     1       1.206   3.036  18.863  0.00  0.00    +0.000 C 
ATOM     11  C   UNL     1       2.304   2.821  17.847  0.00  0.00    +0.000 C 
ATOM     12  C   UNL     1       3.631   2.731  18.025  0.00  0.00    +0.000 C 
ATOM     13  C   UNL     1       4.299   3.009  19.317  0.00  0.00    +0.000 C 
ATOM     14  O   UNL     1       4.845   2.159  19.993  0.00  0.00    +0.000 OA
ATOM     15  C   UNL     1       4.308   4.480  19.680  0.00  0.00    +0.000 C 
ATOM     16  O   UNL     1       5.319   5.118  19.410  0.00  0.00    +0.000 OA
ENDBRANCH   5   7
BRANCH   1  17
ATOM     17  C   UNL     1       0.671   9.437  20.753  0.00  0.00    +0.000 C 
ATOM     18  C   UNL     1      -0.471   8.866  21.646  0.00  0.00    +0.000 C 
ATOM     19  O   UNL     1       0.195   9.267  22.862  0.00  0.00    +0.000 OA
ATOM     20  C   UNL     1       1.356   9.697  22.128  0.00  0.00    +0.000 C 
BRANCH  17  21
ATOM     21  C   UNL     1       0.326  10.755  20.030  0.00  0.00    +0.000 C 
BRANCH  21  27
ATOM     22  C   UNL     1      -1.956  12.233  21.602  0.00  0.00    +0.000 C 
ATOM     23  N   UNL     1      -0.568  12.608  21.546  0.00  0.00    +0.000 N 
ATOM     24  C   UNL     1      -0.017  13.693  22.149  0.00  0.00    +0.000 A 
ATOM     25  N   UNL     1       1.265  13.743  21.884  0.00  0.00    +0.000 NA
ATOM     26  N   UNL     1       1.561  12.680  21.078  0.00  0.00    +0.000 NA
ATOM     27  C   UNL     1       0.462  11.975  20.877  0.00  0.00    +0.000 A 
ENDBRANCH  21  27
ENDBRANCH  17  21
ENDBRANCH   1  17
TORSDOF 4
ENDMDL
MODEL 7
REMARK VINA RESULT:      -8.0      4.938      7.529
REMARK  Name = 
REMARK  5 active torsions:
REMARK  status: ('A' for Active; 'I' for Inactive)
REMARK    1  A    between atoms: C_1  and  N_2
REMARK    2  A    between atoms: C_6  and  C_7
REMARK    3  A    between atoms: C_7  and  C_8
REMARK    4  A    between atoms: C_8  and  C_9
REMARK    5  A    between atoms: C_13  and  N_14
REMARK                            x       y       z     vdW  Elec       q    Type
REMARK                         _______ _______ _______ _____ _____    ______ ____
ROOT
ATOM      1  C   UNL     1       1.369   8.790  19.961  0.00  0.00    +0.000 A 
ATOM      2  C   UNL     1       1.555   9.128  18.606  0.00  0.00    +0.000 A 
ATOM      3  C   UNL     1       2.184   8.259  17.717  0.00  0.00    +0.000 A 
ATOM      4  C   UNL     1       2.647   7.027  18.164  0.00  0.00    +0.000 A 
ATOM      5  C   UNL     1       2.440   6.620  19.488  0.00  0.00    +0.000 A 
ATOM      6  C   UNL     1       1.772   7.492  20.351  0.00  0.00    +0.000 A 
ENDROOT
BRANCH   5   7
ATOM      7  N   UNL     1       2.902   5.338  19.918  0.00  0.00    +0.000 N 
ATOM      8  C   UNL     1       1.999   4.422  20.622  0.00  0.00    +0.000 C 
ATOM      9  C   UNL     1       1.557   3.174  19.845  0.00  0.00    +0.000 C 
ATOM     10  C   UNL     1       1.316   3.386  18.349  0.00  0.00    +0.000 C 
ATOM     11  C   UNL     1       2.514   3.356  17.428  0.00  0.00    +0.000 C 
ATOM     12  C   UNL     1       3.823   3.343  17.725  0.00  0.00    +0.000 C 
ATOM     13  C   UNL     1       4.349   3.532  19.096  0.00  0.00    +0.000 C 
ATOM     14  O   UNL     1       4.899   2.659  19.737  0.00  0.00    +0.000 OA
ATOM     15  C   UNL     1       4.207   4.956  19.597  0.00  0.00    +0.000 C 
ATOM     16  O   UNL     1       5.183   5.688  19.488  0.00  0.00    +0.000 OA
ENDBRANCH   5   7
BRANCH   1  17
ATOM     17  C   UNL     1       0.837   9.856  21.044  0.00  0.00    +0.000 C 
ATOM     18  C   UNL     1      -0.610   9.653  21.586  0.00  0.00    +0.000 C 
ATOM     19  O   UNL     1      -0.146   9.498  22.944  0.00  0.00    +0.000 OA
ATOM     20  C   UNL     1       1.228   9.538  22.518  0.00  0.00    +0.000 C 
BRANCH  17  21
ATOM     21  C   UNL     1       1.184  11.310  20.664  0.00  0.00    +0.000 C 
BRANCH  21  27
ATOM     22  C   UNL     1      -1.077  12.335  18.742  0.00  0.00    +0.000 C 
ATOM     23  N   UNL     1      -0.858  12.740  20.105  0.00  0.00    +0.000 N 
ATOM     24  C   UNL     1      -1.588  13.665  20.782  0.00  0.00    +0.000 A 
ATOM     25  N   UNL     1      -1.113  13.800  21.995  0.00  0.00    +0.000 NA
ATOM     26  N   UNL     1      -0.041  12.960  22.115  0.00  0.00    +0.000 NA
ATOM     27  C   UNL     1       0.115  12.301  20.981  0.00  0.00    +0.000 A 
ENDBRANCH  21  27
ENDBRANCH  17  21
ENDBRANCH   1  17
TORSDOF 4
ENDMDL
MODEL 8
REMARK VINA RESULT:      -8.0      4.816      7.299
REMARK  Name = 
REMARK  5 active torsions:
REMARK  status: ('A' for Active; 'I' for Inactive)
REMARK    1  A    between atoms: C_1  and  N_2
REMARK    2  A    between atoms: C_6  and  C_7
REMARK    3  A    between atoms: C_7  and  C_8
REMARK    4  A    between atoms: C_8  and  C_9
REMARK    5  A    between atoms: C_13  and  N_14
REMARK                            x       y       z     vdW  Elec       q    Type
REMARK                         _______ _______ _______ _____ _____    ______ ____
ROOT
ATOM      1  C   UNL     1       1.251   8.657  19.546  0.00  0.00    +0.000 A 
ATOM      2  C   UNL     1       1.773   9.038  18.294  0.00  0.00    +0.000 A 
ATOM      3  C   UNL     1       2.688   8.240  17.611  0.00  0.00    +0.000 A 
ATOM      4  C   UNL     1       3.109   7.038  18.169  0.00  0.00    +0.000 A 
ATOM      5  C   UNL     1       2.581   6.587  19.385  0.00  0.00    +0.000 A 
ATOM      6  C   UNL     1       1.636   7.386  20.032  0.00  0.00    +0.000 A 
ENDROOT
BRANCH   5   7
ATOM      7  N   UNL     1       3.010   5.335  19.925  0.00  0.00    +0.000 N 
ATOM      8  C   UNL     1       2.104   4.538  20.758  0.00  0.00    +0.000 C 
ATOM      9  C   UNL     1       1.574   3.239  20.135  0.00  0.00    +0.000 C 
ATOM     10  C   UNL     1       1.271   3.309  18.637  0.00  0.00    +0.000 C 
ATOM     11  C   UNL     1       2.421   3.130  17.673  0.00  0.00    +0.000 C 
ATOM     12  C   UNL     1       3.741   3.087  17.912  0.00  0.00    +0.000 C 
ATOM     13  C   UNL     1       4.340   3.390  19.232  0.00  0.00    +0.000 C 
ATOM     14  O   UNL     1       4.883   2.562  19.936  0.00  0.00    +0.000 OA
ATOM     15  C   UNL     1       4.281   4.862  19.589  0.00  0.00    +0.000 C 
ATOM     16  O   UNL     1       5.280   5.534  19.363  0.00  0.00    +0.000 OA
ENDBRANCH   5   7
BRANCH   1  17
ATOM     17  C   UNL     1       0.360   9.655  20.442  0.00  0.00    +0.000 C 
ATOM     18  C   UNL     1      -0.025   9.169  21.872  0.00  0.00    +0.000 C 
ATOM     19  O   UNL     1       0.656  10.276  22.499  0.00  0.00    +0.000 OA
ATOM     20  C   UNL     1       1.173  10.723  21.232  0.00  0.00    +0.000 C 
BRANCH  17  21
ATOM     21  C   UNL     1      -0.796  10.293  19.645  0.00  0.00    +0.000 C 
BRANCH  21  27
ATOM     22  C   UNL     1      -2.159  12.429  21.501  0.00  0.00    +0.000 C 
ATOM     23  N   UNL     1      -1.336  12.689  20.349  0.00  0.00    +0.000 N 
ATOM     24  C   UNL     1      -1.034  13.918  19.855  0.00  0.00    +0.000 A 
ATOM     25  N   UNL     1      -0.275  13.793  18.795  0.00  0.00    +0.000 NA
ATOM     26  N   UNL     1      -0.087  12.457  18.577  0.00  0.00    +0.000 NA
ATOM     27  C   UNL     1      -0.712  11.777  19.521  0.00  0.00    +0.000 A 
ENDBRANCH  21  27
ENDBRANCH  17  21
ENDBRANCH   1  17
TORSDOF 4
ENDMDL
MODEL 9
REMARK VINA RESULT:      -7.8      4.521      7.041
REMARK  Name = 
REMARK  5 active torsions:
REMARK  status: ('A' for Active; 'I' for Inactive)
REMARK    1  A    between atoms: C_1  and  N_2
REMARK    2  A    between atoms: C_6  and  C_7
REMARK    3  A    between atoms: C_7  and  C_8
REMARK    4  A    between atoms: C_8  and  C_9
REMARK    5  A    between atoms: C_13  and  N_14
REMARK                            x       y       z     vdW  Elec       q    Type
REMARK                         _______ _______ _______ _____ _____    ______ ____
ROOT
ATOM      1  C   UNL     1       1.349   8.719  20.130  0.00  0.00    +0.000 A 
ATOM      2  C   UNL     1       1.536   9.114  18.791  0.00  0.00    +0.000 A 
ATOM      3  C   UNL     1       2.173   8.288  17.868  0.00  0.00    +0.000 A 
ATOM      4  C   UNL     1       2.645   7.042  18.265  0.00  0.00    +0.000 A 
ATOM      5  C   UNL     1       2.438   6.579  19.570  0.00  0.00    +0.000 A 
ATOM      6  C   UNL     1       1.762   7.409  20.467  0.00  0.00    +0.000 A 
ENDROOT
BRANCH   5   7
ATOM      7  N   UNL     1       2.909   5.283  19.947  0.00  0.00    +0.000 N 
ATOM      8  C   UNL     1       2.021   4.345  20.641  0.00  0.00    +0.000 C 
ATOM      9  C   UNL     1       1.562   3.122  19.834  0.00  0.00    +0.000 C 
ATOM     10  C   UNL     1       1.288   3.384  18.351  0.00  0.00    +0.000 C 
ATOM     11  C   UNL     1       2.465   3.384  17.404  0.00  0.00    +0.000 C 
ATOM     12  C   UNL     1       3.780   3.362  17.670  0.00  0.00    +0.000 C 
ATOM     13  C   UNL     1       4.337   3.506  19.035  0.00  0.00    +0.000 C 
ATOM     14  O   UNL     1       4.901   2.613  19.634  0.00  0.00    +0.000 OA
ATOM     15  C   UNL     1       4.207   4.912  19.585  0.00  0.00    +0.000 C 
ATOM     16  O   UNL     1       5.180   5.649  19.479  0.00  0.00    +0.000 OA
ENDBRANCH   5   7
BRANCH   1  17
ATOM     17  C   UNL     1       0.806   9.735  21.256  0.00  0.00    +0.000 C 
ATOM     18  C   UNL     1      -0.601   9.439  21.856  0.00  0.00    +0.000 C 
ATOM     19  O   UNL     1      -0.068   9.290  23.190  0.00  0.00    +0.000 OA
ATOM     20  C   UNL     1       1.281   9.416  22.704  0.00  0.00    +0.000 C 
BRANCH  17  21
ATOM     21  C   UNL     1       1.052  11.213  20.888  0.00  0.00    +0.000 C 
BRANCH  21  27
ATOM     22  C   UNL     1       1.719  12.995  18.390  0.00  0.00    +0.000 C 
ATOM     23  N   UNL     1       0.414  12.562  18.814  0.00  0.00    +0.000 N 
ATOM     24  C   UNL     1      -0.760  12.881  18.209  0.00  0.00    +0.000 A 
ATOM     25  N   UNL     1      -1.755  12.331  18.860  0.00  0.00    +0.000 NA
ATOM     26  N   UNL     1      -1.228  11.649  19.920  0.00  0.00    +0.000 NA
ATOM     27  C   UNL     1       0.086  11.769  19.896  0.00  0.00    +0.000 A 
ENDBRANCH  21  27
ENDBRANCH  17  21
ENDBRANCH   1  17
TORSDOF 4
ENDMDL
