MODEL 1
REMARK VINA RESULT:      -8.2      0.000      0.000
REMARK  Name = 
REMARK  7 active torsions:
REMARK  status: ('A' for Active; 'I' for Inactive)
REMARK    1  A    between atoms: C_1  and  C_2
REMARK    2  A    between atoms: N_4  and  C_5
REMARK    3  A    between atoms: C_5  and  C_6
REMARK    4  A    between atoms: C_9  and  C_10
REMARK    5  A    between atoms: C_10  and  N_11
REMARK    6  A    between atoms: C_12  and  C_14
REMARK    7  A    between atoms: C_27  and  C_28
REMARK                            x       y       z     vdW  Elec       q    Type
REMARK                         _______ _______ _______ _____ _____    ______ ____
ROOT
ATOM      1  C   UNL     1       2.697   5.775  18.639  0.00  0.00    +0.000 A 
ATOM      2  C   UNL     1       2.648   7.077  18.114  0.00  0.00    +0.000 A 
ATOM      3  C   UNL     1       2.163   8.143  18.876  0.00  0.00    +0.000 A 
ATOM      4  C   UNL     1       1.697   7.933  20.179  0.00  0.00    +0.000 A 
ATOM      5  C   UNL     1       1.683   6.624  20.684  0.00  0.00    +0.000 A 
ATOM      6  C   UNL     1       2.193   5.560  19.929  0.00  0.00    +0.000 A 
ENDROOT
BRANCH   1   7
ATOM      7  C   UNL     1       3.294   4.642  17.823  0.00  0.00    +0.000 C 
BRANCH   7  11
ATOM      8  C   UNL     1       6.308   4.918  14.474  0.00  0.00    +0.000 C 
ATOM      9  C   UNL     1       6.511   4.148  15.778  0.00  0.00    +0.000 C 
ATOM     10  C   UNL     1       5.183   3.804  16.488  0.00  0.00    +0.000 C 
ATOM     11  N   UNL     1       4.512   4.992  17.061  0.00  0.00    +0.000 NA
ATOM     12  C   UNL     1       5.485   5.665  17.960  0.00  0.00    +0.000 C 
ATOM     13  C   UNL     1       6.812   6.006  17.245  0.00  0.00    +0.000 C 
ATOM     14  C   UNL     1       7.829   6.587  18.222  0.00  0.00    +0.000 C 
ATOM     15  O   UNL     1       7.408   4.836  16.663  0.00  0.00    +0.000 OA
ENDBRANCH   7  11
ENDBRANCH   1   7
BRANCH   4  16
ATOM     16  C   UNL     1       1.237   9.094  21.021  0.00  0.00    +0.000 C 
BRANCH  16  17
ATOM     17  N   UNL     1      -0.045   9.604  20.598  0.00  0.00    +0.000 N 
ATOM     18  C   UNL     1      -0.194  10.914  20.216  0.00  0.00    +0.000 C 
ATOM     19  O   UNL     1       0.723  11.730  20.268  0.00  0.00    +0.000 OA
ATOM     20  H   UNL     1      -0.797   8.941  20.419  0.00  0.00    +0.000 HD
BRANCH  18  21
ATOM     21  C   UNL     1      -1.546  11.296  19.725  0.00  0.00    +0.000 A 
ATOM     22  C   UNL     1      -2.293  12.130  20.475  0.00  0.00    +0.000 A 
ATOM     23  N   UNL     1      -3.554  12.585  20.166  0.00  0.00    +0.000 NA
ATOM     24  C   UNL     1      -4.015  12.183  19.030  0.00  0.00    +0.000 A 
ATOM     25  S   UNL     1      -5.581  12.627  18.370  0.00  0.00    +0.000 S 
ATOM     26  C   UNL     1      -5.271  11.681  16.938  0.00  0.00    +0.000 A 
ATOM     27  C   UNL     1      -4.079  11.079  16.996  0.00  0.00    +0.000 A 
ATOM     28  N   UNL     1      -3.373  11.345  18.150  0.00  0.00    +0.000 N 
ATOM     29  C   UNL     1      -2.134  10.825  18.446  0.00  0.00    +0.000 A 
ATOM     30  O   UNL     1      -1.534  10.022  17.728  0.00  0.00    +0.000 OA
ENDBRANCH  18  21
ENDBRANCH  16  17
ENDBRANCH   4  16
TORSDOF 5
ENDMDL
MODEL 2
REMARK VINA RESULT:      -8.2      0.902      1.729
REMARK  Name = 
REMARK  7 active torsions:
REMARK  status: ('A' for Active; 'I' for Inactive)
REMARK    1  A    between atoms: C_1  and  C_2
REMARK    2  A    between atoms: N_4  and  C_5
REMARK    3  A    between atoms: C_5  and  C_6
REMARK    4  A    between atoms: C_9  and  C_10
REMARK    5  A    between atoms: C_10  and  N_11
REMARK    6  A    between atoms: C_12  and  C_14
REMARK    7  A    between atoms: C_27  and  C_28
REMARK                            x       y       z     vdW  Elec       q    Type
REMARK                         _______ _______ _______ _____ _____    ______ ____
ROOT
ATOM      1  C   UNL     1       2.703   5.988  18.520  0.00  0.00    +0.000 A 
ATOM      2  C   UNL     1       2.326   5.717  19.845  0.00  0.00    +0.000 A 
ATOM      3  C   UNL     1       1.794   6.718  20.661  0.00  0.00    +0.000 A 
ATOM      4  C   UNL     1       1.639   8.023  20.179  0.00  0.00    +0.000 A 
ATOM      5  C   UNL     1       2.075   8.313  18.878  0.00  0.00    +0.000 A 
ATOM      6  C   UNL     1       2.586   7.304  18.052  0.00  0.00    +0.000 A 
ENDROOT
BRANCH   1   7
ATOM      7  C   UNL     1       3.214   4.872  17.625  0.00  0.00    +0.000 C 
BRANCH   7  11
ATOM      8  C   UNL     1       6.541   4.902  14.575  0.00  0.00    +0.000 C 
ATOM      9  C   UNL     1       6.572   4.145  15.902  0.00  0.00    +0.000 C 
ATOM     10  C   UNL     1       5.164   3.896  16.487  0.00  0.00    +0.000 C 
ATOM     11  N   UNL     1       4.518   5.133  16.978  0.00  0.00    +0.000 NA
ATOM     12  C   UNL     1       5.442   5.762  17.957  0.00  0.00    +0.000 C 
ATOM     13  C   UNL     1       6.849   6.009  17.367  0.00  0.00    +0.000 C 
ATOM     14  C   UNL     1       7.804   6.544  18.429  0.00  0.00    +0.000 C 
ATOM     15  O   UNL     1       7.423   4.794  16.860  0.00  0.00    +0.000 OA
ENDBRANCH   7  11
ENDBRANCH   1   7
BRANCH   4  16
ATOM     16  C   UNL     1       1.004   9.084  21.039  0.00  0.00    +0.000 C 
BRANCH  16  17
ATOM     17  N   UNL     1      -0.240   9.565  20.489  0.00  0.00    +0.000 N 
ATOM     18  C   UNL     1      -0.310  10.780  19.856  0.00  0.00    +0.000 C 
ATOM     19  O   UNL     1       0.650  11.544  19.776  0.00  0.00    +0.000 OA
ATOM     20  H   UNL     1      -1.023   8.918  20.420  0.00  0.00    +0.000 HD
BRANCH  18  21
ATOM     21  C   UNL     1      -1.629  11.127  19.261  0.00  0.00    +0.000 A 
ATOM     22  C   UNL     1      -1.950  10.612  18.058  0.00  0.00    +0.000 A 
ATOM     23  N   UNL     1      -3.125  10.825  17.375  0.00  0.00    +0.000 NA
ATOM     24  C   UNL     1      -3.987  11.562  17.990  0.00  0.00    +0.000 A 
ATOM     25  S   UNL     1      -5.577  11.977  17.368  0.00  0.00    +0.000 S 
ATOM     26  C   UNL     1      -5.928  12.892  18.811  0.00  0.00    +0.000 A 
ATOM     27  C   UNL     1      -4.898  12.878  19.664  0.00  0.00    +0.000 A 
ATOM     28  N   UNL     1      -3.815  12.149  19.221  0.00  0.00    +0.000 N 
ATOM     29  C   UNL     1      -2.634  12.004  19.913  0.00  0.00    +0.000 A 
ATOM     30  O   UNL     1      -2.396  12.553  20.991  0.00  0.00    +0.000 OA
ENDBRANCH  18  21
ENDBRANCH  16  17
ENDBRANCH   4  16
TORSDOF 5
ENDMDL
MODEL 3
REMARK VINA RESULT:      -8.1      3.557     10.453
REMARK  Name = 
REMARK  7 active torsions:
REMARK  status: ('A' for Active; 'I' for Inactive)
REMARK    1  A    between atoms: C_1  and  C_2
REMARK    2  A    between atoms: N_4  and  C_5
REMARK    3  A    between atoms: C_5  and  C_6
REMARK    4  A    between atoms: C_9  and  C_10
REMARK    5  A    between atoms: C_10  and  N_11
REMARK    6  A    between atoms: C_12  and  C_14
REMARK    7  A    between atoms: C_27  and  C_28
REMARK                            x       y       z     vdW  Elec       q    Type
REMARK                         _______ _______ _______ _____ _____    ______ ____
ROOT
ATOM      1  C   UNL     1      -3.093  10.684  17.876  0.00  0.00    +0.000 A 
ATOM      2  C   UNL     1      -2.133   9.912  17.201  0.00  0.00    +0.000 A 
ATOM      3  C   UNL     1      -0.820   9.825  17.671  0.00  0.00    +0.000 A 
ATOM      4  C   UNL     1      -0.426  10.521  18.820  0.00  0.00    +0.000 A 
ATOM      5  C   UNL     1      -1.365  11.345  19.458  0.00  0.00    +0.000 A 
ATOM      6  C   UNL     1      -2.687  11.413  19.002  0.00  0.00    +0.000 A 
ENDROOT
BRANCH   1   7
ATOM      7  C   UNL     1      -4.531  10.711  17.391  0.00  0.00    +0.000 C 
BRANCH   7  11
ATOM      8  C   UNL     1      -6.938  13.050  20.410  0.00  0.00    +0.000 C 
ATOM      9  C   UNL     1      -7.520  12.306  19.209  0.00  0.00    +0.000 C 
ATOM     10  C   UNL     1      -6.577  11.210  18.665  0.00  0.00    +0.000 C 
ATOM     11  N   UNL     1      -5.378  11.762  17.996  0.00  0.00    +0.000 NA
ATOM     12  C   UNL     1      -5.846  12.694  16.936  0.00  0.00    +0.000 C 
ATOM     13  C   UNL     1      -6.789  13.788  17.486  0.00  0.00    +0.000 C 
ATOM     14  C   UNL     1      -7.343  14.653  16.359  0.00  0.00    +0.000 C 
ATOM     15  O   UNL     1      -7.914  13.213  18.167  0.00  0.00    +0.000 OA
ENDBRANCH   7  11
ENDBRANCH   1   7
BRANCH   4  16
ATOM     16  C   UNL     1       0.972  10.372  19.361  0.00  0.00    +0.000 C 
BRANCH  16  17
ATOM     17  N   UNL     1       1.512   9.055  19.128  0.00  0.00    +0.000 N 
ATOM     18  C   UNL     1       1.681   8.167  20.160  0.00  0.00    +0.000 C 
ATOM     19  O   UNL     1       1.443   8.456  21.331  0.00  0.00    +0.000 OA
ATOM     20  H   UNL     1       1.603   8.730  18.167  0.00  0.00    +0.000 HD
BRANCH  18  21
ATOM     21  C   UNL     1       2.171   6.815  19.779  0.00  0.00    +0.000 A 
ATOM     22  C   UNL     1       1.850   5.767  20.563  0.00  0.00    +0.000 A 
ATOM     23  N   UNL     1       2.215   4.457  20.351  0.00  0.00    +0.000 NA
ATOM     24  C   UNL     1       2.896   4.248  19.276  0.00  0.00    +0.000 A 
ATOM     25  S   UNL     1       3.471   2.676  18.742  0.00  0.00    +0.000 S 
ATOM     26  C   UNL     1       4.186   3.394  17.322  0.00  0.00    +0.000 A 
ATOM     27  C   UNL     1       4.001   4.718  17.295  0.00  0.00    +0.000 A 
ATOM     28  N   UNL     1       3.291   5.206  18.372  0.00  0.00    +0.000 N 
ATOM     29  C   UNL     1       2.993   6.534  18.575  0.00  0.00    +0.000 A 
ATOM     30  O   UNL     1       3.370   7.445  17.834  0.00  0.00    +0.000 OA
ENDBRANCH  18  21
ENDBRANCH  16  17
ENDBRANCH   4  16
TORSDOF 5
ENDMDL
MODEL 4
REMARK VINA RESULT:      -8.1      1.247      1.738
REMARK  Name = 
REMARK  7 active torsions:
REMARK  status: ('A' for Active; 'I' for Inactive)
REMARK    1  A    between atoms: C_1  and  C_2
REMARK    2  A    between atoms: N_4  and  C_5
REMARK    3  A    between atoms: C_5  and  C_6
REMARK    4  A    between atoms: C_9  and  C_10
REMARK    5  A    between atoms: C_10  and  N_11
REMARK    6  A    between atoms: C_12  and  C_14
REMARK    7  A    between atoms: C_27  and  C_28
REMARK                            x       y       z     vdW  Elec       q    Type
REMARK                         _______ _______ _______ _____ _____    ______ ____
ROOT
ATOM      1  C   UNL     1       2.255   7.054  18.601  0.00  0.00    +0.000 A 
ATOM      2  C   UNL     1       1.982   7.328  19.951  0.00  0.00    +0.000 A 
ATOM      3  C   UNL     1       1.578   8.601  20.361  0.00  0.00    +0.000 A 
ATOM      4  C   UNL     1       1.453   9.642  19.432  0.00  0.00    +0.000 A 
ATOM      5  C   UNL     1       1.788   9.389  18.094  0.00  0.00    +0.000 A 
ATOM      6  C   UNL     1       2.168   8.106  17.680  0.00  0.00    +0.000 A 
ENDROOT
BRANCH   1   7
ATOM      7  C   UNL     1       2.622   5.647  18.164  0.00  0.00    +0.000 C 
BRANCH   7  11
ATOM      8  C   UNL     1       5.696   4.731  14.988  0.00  0.00    +0.000 C 
ATOM      9  C   UNL     1       5.563   3.995  16.320  0.00  0.00    +0.000 C 
ATOM     10  C   UNL     1       4.167   4.157  16.961  0.00  0.00    +0.000 C 
ATOM     11  N   UNL     1       3.920   5.526  17.464  0.00  0.00    +0.000 NA
ATOM     12  C   UNL     1       5.023   5.865  18.400  0.00  0.00    +0.000 C 
ATOM     13  C   UNL     1       6.418   5.701  17.754  0.00  0.00    +0.000 C 
ATOM     14  C   UNL     1       7.527   5.942  18.772  0.00  0.00    +0.000 C 
ATOM     15  O   UNL     1       6.601   4.374  17.238  0.00  0.00    +0.000 OA
ENDBRANCH   7  11
ENDBRANCH   1   7
BRANCH   4  16
ATOM     16  C   UNL     1       0.955  10.995  19.866  0.00  0.00    +0.000 C 
BRANCH  16  17
ATOM     17  N   UNL     1      -0.485  11.078  19.857  0.00  0.00    +0.000 N 
ATOM     18  C   UNL     1      -1.123  12.293  19.842  0.00  0.00    +0.000 C 
ATOM     19  O   UNL     1      -0.519  13.362  19.896  0.00  0.00    +0.000 OA
ATOM     20  H   UNL     1      -1.020  10.228  19.686  0.00  0.00    +0.000 HD
BRANCH  18  21
ATOM     21  C   UNL     1      -2.608  12.244  19.753  0.00  0.00    +0.000 A 
ATOM     22  C   UNL     1      -3.333  12.739  20.775  0.00  0.00    +0.000 A 
ATOM     23  N   UNL     1      -4.706  12.778  20.848  0.00  0.00    +0.000 NA
ATOM     24  C   UNL     1      -5.321  12.320  19.810  0.00  0.00    +0.000 A 
ATOM     25  S   UNL     1      -7.066  12.270  19.618  0.00  0.00    +0.000 S 
ATOM     26  C   UNL     1      -6.895  11.570  18.030  0.00  0.00    +0.000 A 
ATOM     27  C   UNL     1      -5.609  11.387  17.710  0.00  0.00    +0.000 A 
ATOM     28  N   UNL     1      -4.726  11.794  18.688  0.00  0.00    +0.000 N 
ATOM     29  C   UNL     1      -3.357  11.689  18.598  0.00  0.00    +0.000 A 
ATOM     30  O   UNL     1      -2.767  11.172  17.645  0.00  0.00    +0.000 OA
ENDBRANCH  18  21
ENDBRANCH  16  17
ENDBRANCH   4  16
TORSDOF 5
ENDMDL
MODEL 5
REMARK VINA RESULT:      -8.0      2.776      3.590
REMARK  Name = 
REMARK  7 active torsions:
REMARK  status: ('A' for Active; 'I' for Inactive)
REMARK    1  A    between atoms: C_1  and  C_2
REMARK    2  A    between atoms: N_4  and  C_5
REMARK    3  A    between atoms: C_5  and  C_6
REMARK    4  A    between atoms: C_9  and  C_10
REMARK    5  A    between atoms: C_10  and  N_11
REMARK    6  A    between atoms: C_12  and  C_14
REMARK    7  A    between atoms: C_27  and  C_28
REMARK                            x       y       z     vdW  Elec       q    Type
REMARK                         _______ _______ _______ _____ _____    ______ ____
ROOT
ATOM      1  C   UNL     1       2.782   5.787  18.503  0.00  0.00    +0.000 A 
ATOM      2  C   UNL     1       2.330   5.453  19.790  0.00  0.00    +0.000 A 
ATOM      3  C   UNL     1       1.722   6.406  20.611  0.00  0.00    +0.000 A 
ATOM      4  C   UNL     1       1.564   7.726  20.172  0.00  0.00    +0.000 A 
ATOM      5  C   UNL     1       2.072   8.080  18.914  0.00  0.00    +0.000 A 
ATOM      6  C   UNL     1       2.659   7.118  18.082  0.00  0.00    +0.000 A 
ENDROOT
BRANCH   1   7
ATOM      7  C   UNL     1       3.376   4.722  17.599  0.00  0.00    +0.000 C 
BRANCH   7  11
ATOM      8  C   UNL     1       6.892   5.150  14.802  0.00  0.00    +0.000 C 
ATOM      9  C   UNL     1       6.788   4.127  15.932  0.00  0.00    +0.000 C 
ATOM     10  C   UNL     1       5.332   3.866  16.376  0.00  0.00    +0.000 C 
ATOM     11  N   UNL     1       4.734   5.015  17.091  0.00  0.00    +0.000 NA
ATOM     12  C   UNL     1       5.629   5.348  18.230  0.00  0.00    +0.000 C 
ATOM     13  C   UNL     1       7.085   5.608  17.780  0.00  0.00    +0.000 C 
ATOM     14  C   UNL     1       7.999   5.830  18.980  0.00  0.00    +0.000 C 
ATOM     15  O   UNL     1       7.613   4.490  17.050  0.00  0.00    +0.000 OA
ENDBRANCH   7  11
ENDBRANCH   1   7
BRANCH   4  16
ATOM     16  C   UNL     1       0.848   8.735  21.032  0.00  0.00    +0.000 C 
BRANCH  16  17
ATOM     17  N   UNL     1       1.096  10.091  20.609  0.00  0.00    +0.000 N 
ATOM     18  C   UNL     1       0.146  10.801  19.918  0.00  0.00    +0.000 C 
ATOM     19  O   UNL     1      -0.928  10.314  19.573  0.00  0.00    +0.000 OA
ATOM     20  H   UNL     1       1.913  10.574  20.979  0.00  0.00    +0.000 HD
BRANCH  18  21
ATOM     21  C   UNL     1       0.491  12.215  19.609  0.00  0.00    +0.000 A 
ATOM     22  C   UNL     1      -0.300  13.193  20.091  0.00  0.00    +0.000 A 
ATOM     23  N   UNL     1      -0.120  14.545  19.904  0.00  0.00    +0.000 NA
ATOM     24  C   UNL     1       0.932  14.867  19.231  0.00  0.00    +0.000 A 
ATOM     25  S   UNL     1       1.424  16.513  18.865  0.00  0.00    +0.000 S 
ATOM     26  C   UNL     1       2.835  15.929  18.022  0.00  0.00    +0.000 A 
ATOM     27  C   UNL     1       2.889  14.592  18.023  0.00  0.00    +0.000 A 
ATOM     28  N   UNL     1       1.841  13.990  18.686  0.00  0.00    +0.000 N 
ATOM     29  C   UNL     1       1.667  12.630  18.804  0.00  0.00    +0.000 A 
ATOM     30  O   UNL     1       2.412  11.794  18.287  0.00  0.00    +0.000 OA
ENDBRANCH  18  21
ENDBRANCH  16  17
ENDBRANCH   4  16
TORSDOF 5
ENDMDL
MODEL 6
REMARK VINA RESULT:      -8.0      3.023      3.664
REMARK  Name = 
REMARK  7 active torsions:
REMARK  status: ('A' for Active; 'I' for Inactive)
REMARK    1  A    between atoms: C_1  and  C_2
REMARK    2  A    between atoms: N_4  and  C_5
REMARK    3  A    between atoms: C_5  and  C_6
REMARK    4  A    between atoms: C_9  and  C_10
REMARK    5  A    between atoms: C_10  and  N_11
REMARK    6  A    between atoms: C_12  and  C_14
REMARK    7  A    between atoms: C_27  and  C_28
REMARK                            x       y       z     vdW  Elec       q    Type
REMARK                         _______ _______ _______ _____ _____    ______ ____
ROOT
ATOM      1  C   UNL     1       2.958   7.597  18.008  0.00  0.00    +0.000 A 
ATOM      2  C   UNL     1       2.946   6.627  19.023  0.00  0.00    +0.000 A 
ATOM      3  C   UNL     1       2.168   6.796  20.171  0.00  0.00    +0.000 A 
ATOM      4  C   UNL     1       1.393   7.949  20.343  0.00  0.00    +0.000 A 
ATOM      5  C   UNL     1       1.454   8.949  19.362  0.00  0.00    +0.000 A 
ATOM      6  C   UNL     1       2.214   8.769  18.200  0.00  0.00    +0.000 A 
ENDROOT
BRANCH   1   7
ATOM      7  C   UNL     1       3.754   7.364  16.735  0.00  0.00    +0.000 C 
BRANCH   7  11
ATOM      8  C   UNL     1       7.424   5.409  18.491  0.00  0.00    +0.000 C 
ATOM      9  C   UNL     1       7.423   6.365  17.299  0.00  0.00    +0.000 C 
ATOM     10  C   UNL     1       6.160   7.252  17.240  0.00  0.00    +0.000 C 
ATOM     11  N   UNL     1       4.940   6.492  16.887  0.00  0.00    +0.000 NA
ATOM     12  C   UNL     1       5.206   5.788  15.606  0.00  0.00    +0.000 C 
ATOM     13  C   UNL     1       6.471   4.902  15.671  0.00  0.00    +0.000 C 
ATOM     14  C   UNL     1       6.782   4.288  14.310  0.00  0.00    +0.000 C 
ATOM     15  O   UNL     1       7.623   5.665  16.061  0.00  0.00    +0.000 OA
ENDBRANCH   7  11
ENDBRANCH   1   7
BRANCH   4  16
ATOM     16  C   UNL     1       0.505   8.097  21.550  0.00  0.00    +0.000 C 
BRANCH  16  17
ATOM     17  N   UNL     1      -0.157   9.378  21.590  0.00  0.00    +0.000 N 
ATOM     18  C   UNL     1      -0.202  10.116  22.746  0.00  0.00    +0.000 C 
ATOM     19  O   UNL     1       0.258   9.710  23.811  0.00  0.00    +0.000 OA
ATOM     20  H   UNL     1      -0.439   9.807  20.710  0.00  0.00    +0.000 HD
BRANCH  18  21
ATOM     21  C   UNL     1      -0.843  11.454  22.638  0.00  0.00    +0.000 A 
ATOM     22  C   UNL     1      -2.049  11.640  23.209  0.00  0.00    +0.000 A 
ATOM     23  N   UNL     1      -2.773  12.810  23.207  0.00  0.00    +0.000 NA
ATOM     24  C   UNL     1      -2.197  13.807  22.625  0.00  0.00    +0.000 A 
ATOM     25  S   UNL     1      -2.875  15.422  22.496  0.00  0.00    +0.000 S 
ATOM     26  C   UNL     1      -1.457  15.974  21.644  0.00  0.00    +0.000 A 
ATOM     27  C   UNL     1      -0.571  14.987  21.473  0.00  0.00    +0.000 A 
ATOM     28  N   UNL     1      -0.968  13.780  22.009  0.00  0.00    +0.000 N 
ATOM     29  C   UNL     1      -0.237  12.617  21.942  0.00  0.00    +0.000 A 
ATOM     30  O   UNL     1       0.841  12.514  21.352  0.00  0.00    +0.000 OA
ENDBRANCH  18  21
ENDBRANCH  16  17
ENDBRANCH   4  16
TORSDOF 5
ENDMDL
MODEL 7
REMARK VINA RESULT:      -8.0      3.235      4.211
REMARK  Name = 
REMARK  7 active torsions:
REMARK  status: ('A' for Active; 'I' for Inactive)
REMARK    1  A    between atoms: C_1  and  C_2
REMARK    2  A    between atoms: N_4  and  C_5
REMARK    3  A    between atoms: C_5  and  C_6
REMARK    4  A    between atoms: C_9  and  C_10
REMARK    5  A    between atoms: C_10  and  N_11
REMARK    6  A    between atoms: C_12  and  C_14
REMARK    7  A    between atoms: C_27  and  C_28
REMARK                            x       y       z     vdW  Elec       q    Type
REMARK                         _______ _______ _______ _____ _____    ______ ____
ROOT
ATOM      1  C   UNL     1       2.759   6.410  18.396  0.00  0.00    +0.000 A 
ATOM      2  C   UNL     1       2.456   6.240  19.757  0.00  0.00    +0.000 A 
ATOM      3  C   UNL     1       1.828   7.253  20.486  0.00  0.00    +0.000 A 
ATOM      4  C   UNL     1       1.501   8.471  19.878  0.00  0.00    +0.000 A 
ATOM      5  C   UNL     1       1.861   8.668  18.537  0.00  0.00    +0.000 A 
ATOM      6  C   UNL     1       2.468   7.644  17.799  0.00  0.00    +0.000 A 
ENDROOT
BRANCH   1   7
ATOM      7  C   UNL     1       3.377   5.272  17.602  0.00  0.00    +0.000 C 
BRANCH   7  11
ATOM      8  C   UNL     1       7.719   5.993  18.602  0.00  0.00    +0.000 C 
ATOM      9  C   UNL     1       6.931   6.736  17.525  0.00  0.00    +0.000 C 
ATOM     10  C   UNL     1       5.403   6.662  17.738  0.00  0.00    +0.000 C 
ATOM     11  N   UNL     1       4.852   5.311  17.493  0.00  0.00    +0.000 NA
ATOM     12  C   UNL     1       5.259   4.904  16.123  0.00  0.00    +0.000 C 
ATOM     13  C   UNL     1       6.789   4.980  15.915  0.00  0.00    +0.000 C 
ATOM     14  C   UNL     1       7.163   4.670  14.469  0.00  0.00    +0.000 C 
ATOM     15  O   UNL     1       7.291   6.292  16.207  0.00  0.00    +0.000 OA
ENDBRANCH   7  11
ENDBRANCH   1   7
BRANCH   4  16
ATOM     16  C   UNL     1       0.765   9.534  20.649  0.00  0.00    +0.000 C 
BRANCH  16  17
ATOM     17  N   UNL     1       1.098  10.865  20.204  0.00  0.00    +0.000 N 
ATOM     18  C   UNL     1       0.187  11.632  19.522  0.00  0.00    +0.000 C 
ATOM     19  O   UNL     1      -0.926  11.217  19.205  0.00  0.00    +0.000 OA
ATOM     20  H   UNL     1       1.954  11.294  20.551  0.00  0.00    +0.000 HD
BRANCH  18  21
ATOM     21  C   UNL     1       0.624  13.014  19.188  0.00  0.00    +0.000 A 
ATOM     22  C   UNL     1      -0.180  14.044  19.520  0.00  0.00    +0.000 A 
ATOM     23  N   UNL     1       0.076  15.376  19.290  0.00  0.00    +0.000 NA
ATOM     24  C   UNL     1       1.214  15.625  18.736  0.00  0.00    +0.000 A 
ATOM     25  S   UNL     1       1.812  17.231  18.352  0.00  0.00    +0.000 S 
ATOM     26  C   UNL     1       3.290  16.555  17.720  0.00  0.00    +0.000 A 
ATOM     27  C   UNL     1       3.290  15.220  17.794  0.00  0.00    +0.000 A 
ATOM     28  N   UNL     1       2.145  14.690  18.351  0.00  0.00    +0.000 N 
ATOM     29  C   UNL     1       1.905  13.345  18.515  0.00  0.00    +0.000 A 
ATOM     30  O   UNL     1       2.672  12.458  18.135  0.00  0.00    +0.000 OA
ENDBRANCH  18  21
ENDBRANCH  16  17
ENDBRANCH   4  16
TORSDOF 5
ENDMDL
MODEL 8
REMARK VINA RESULT:      -7.9      2.967      3.949
REMARK  Name = 
REMARK  7 active torsions:
REMARK  status: ('A' for Active; 'I' for Inactive)
REMARK    1  A    between atoms: C_1  and  C_2
REMARK    2  A    between atoms: N_4  and  C_5
REMARK    3  A    between atoms: C_5  and  C_6
REMARK    4  A    between atoms: C_9  and  C_10
REMARK    5  A    between atoms: C_10  and  N_11
REMARK    6  A    between atoms: C_12  and  C_14
REMARK    7  A    between atoms: C_27  and  C_28
REMARK                            x       y       z     vdW  Elec       q    Type
REMARK                         _______ _______ _______ _____ _____    ______ ____
ROOT
ATOM      1  C   UNL     1       2.573   6.089  18.726  0.00  0.00    +0.000 A 
ATOM      2  C   UNL     1       2.175   5.864  20.054  0.00  0.00    +0.000 A 
ATOM      3  C   UNL     1       1.614   6.888  20.821  0.00  0.00    +0.000 A 
ATOM      4  C   UNL     1       1.450   8.171  20.286  0.00  0.00    +0.000 A 
ATOM      5  C   UNL     1       1.906   8.417  18.983  0.00  0.00    +0.000 A 
ATOM      6  C   UNL     1       2.446   7.384  18.206  0.00  0.00    +0.000 A 
ENDROOT
BRANCH   1   7
ATOM      7  C   UNL     1       3.115   4.947  17.885  0.00  0.00    +0.000 C 
BRANCH   7  11
ATOM      8  C   UNL     1       6.570   5.165  14.989  0.00  0.00    +0.000 C 
ATOM      9  C   UNL     1       6.438   4.152  16.124  0.00  0.00    +0.000 C 
ATOM     10  C   UNL     1       4.983   3.977  16.610  0.00  0.00    +0.000 C 
ATOM     11  N   UNL     1       4.473   5.160  17.338  0.00  0.00    +0.000 NA
ATOM     12  C   UNL     1       5.418   5.442  18.450  0.00  0.00    +0.000 C 
ATOM     13  C   UNL     1       6.873   5.616  17.958  0.00  0.00    +0.000 C 
ATOM     14  C   UNL     1       7.833   5.787  19.131  0.00  0.00    +0.000 C 
ATOM     15  O   UNL     1       7.315   4.468  17.218  0.00  0.00    +0.000 OA
ENDBRANCH   7  11
ENDBRANCH   1   7
BRANCH   4  16
ATOM     16  C   UNL     1       0.784   9.254  21.093  0.00  0.00    +0.000 C 
BRANCH  16  17
ATOM     17  N   UNL     1       1.000  10.566  20.534  0.00  0.00    +0.000 N 
ATOM     18  C   UNL     1       0.068  11.562  20.686  0.00  0.00    +0.000 C 
ATOM     19  O   UNL     1      -1.012  11.382  21.243  0.00  0.00    +0.000 OA
ATOM     20  H   UNL     1       1.926  10.796  20.178  0.00  0.00    +0.000 HD
BRANCH  18  21
ATOM     21  C   UNL     1       0.444  12.891  20.133  0.00  0.00    +0.000 A 
ATOM     22  C   UNL     1      -0.386  13.482  19.252  0.00  0.00    +0.000 A 
ATOM     23  N   UNL     1      -0.192  14.706  18.654  0.00  0.00    +0.000 NA
ATOM     24  C   UNL     1       0.874  15.330  19.023  0.00  0.00    +0.000 A 
ATOM     25  S   UNL     1       1.359  16.917  18.446  0.00  0.00    +0.000 S 
ATOM     26  C   UNL     1       2.777  16.880  19.460  0.00  0.00    +0.000 A 
ATOM     27  C   UNL     1       2.855  15.738  20.153  0.00  0.00    +0.000 A 
ATOM     28  N   UNL     1       1.810  14.869  19.918  0.00  0.00    +0.000 N 
ATOM     29  C   UNL     1       1.681  13.627  20.497  0.00  0.00    +0.000 A 
ATOM     30  O   UNL     1       2.515  13.133  21.259  0.00  0.00    +0.000 OA
ENDBRANCH  18  21
ENDBRANCH  16  17
ENDBRANCH   4  16
TORSDOF 5
ENDMDL
MODEL 9
REMARK VINA RESULT:      -7.8      3.727     10.242
REMARK  Name = 
REMARK  7 active torsions:
REMARK  status: ('A' for Active; 'I' for Inactive)
REMARK    1  A    between atoms: C_1  and  C_2
REMARK    2  A    between atoms: N_4  and  C_5
REMARK    3  A    between atoms: C_5  and  C_6
REMARK    4  A    between atoms: C_9  and  C_10
REMARK    5  A    between atoms: C_10  and  N_11
REMARK    6  A    between atoms: C_12  and  C_14
REMARK    7  A    between atoms: C_27  and  C_28
REMARK                            x       y       z     vdW  Elec       q    Type
REMARK                         _______ _______ _______ _____ _____    ______ ____
ROOT
ATOM      1  C   UNL     1      -2.672  11.300  17.865  0.00  0.00    +0.000 A 
ATOM      2  C   UNL     1      -2.131  10.041  17.563  0.00  0.00    +0.000 A 
ATOM      3  C   UNL     1      -0.799   9.740  17.860  0.00  0.00    +0.000 A 
ATOM      4  C   UNL     1       0.033  10.698  18.451  0.00  0.00    +0.000 A 
ATOM      5  C   UNL     1      -0.486  11.978  18.694  0.00  0.00    +0.000 A 
ATOM      6  C   UNL     1      -1.828  12.271  18.420  0.00  0.00    +0.000 A 
ENDROOT
BRANCH   1   7
ATOM      7  C   UNL     1      -4.140  11.586  17.601  0.00  0.00    +0.000 C 
BRANCH   7  11
ATOM      8  C   UNL     1      -7.332   9.743  20.208  0.00  0.00    +0.000 C 
ATOM      9  C   UNL     1      -7.424  11.115  19.543  0.00  0.00    +0.000 C 
ATOM     10  C   UNL     1      -6.465  11.269  18.342  0.00  0.00    +0.000 C 
ATOM     11  N   UNL     1      -5.044  11.339  18.746  0.00  0.00    +0.000 NA
ATOM     12  C   UNL     1      -4.912  12.445  19.730  0.00  0.00    +0.000 C 
ATOM     13  C   UNL     1      -5.874  12.286  20.930  0.00  0.00    +0.000 C 
ATOM     14  C   UNL     1      -5.798  13.493  21.858  0.00  0.00    +0.000 C 
ATOM     15  O   UNL     1      -7.237  12.175  20.494  0.00  0.00    +0.000 OA
ENDBRANCH   7  11
ENDBRANCH   1   7
BRANCH   4  16
ATOM     16  C   UNL     1       1.449  10.348  18.830  0.00  0.00    +0.000 C 
BRANCH  16  17
ATOM     17  N   UNL     1       1.617   8.938  19.082  0.00  0.00    +0.000 N 
ATOM     18  C   UNL     1       2.342   8.148  18.225  0.00  0.00    +0.000 C 
ATOM     19  O   UNL     1       2.831   8.574  17.181  0.00  0.00    +0.000 OA
ATOM     20  H   UNL     1       1.340   8.571  19.991  0.00  0.00    +0.000 HD
BRANCH  18  21
ATOM     21  C   UNL     1       2.509   6.729  18.638  0.00  0.00    +0.000 A 
ATOM     22  C   UNL     1       3.097   5.872  17.780  0.00  0.00    +0.000 A 
ATOM     23  N   UNL     1       3.333   4.535  18.006  0.00  0.00    +0.000 NA
ATOM     24  C   UNL     1       2.977   4.108  19.170  0.00  0.00    +0.000 A 
ATOM     25  S   UNL     1       3.181   2.459  19.739  0.00  0.00    +0.000 S 
ATOM     26  C   UNL     1       2.475   2.877  21.278  0.00  0.00    +0.000 A 
ATOM     27  C   UNL     1       2.110   4.163  21.317  0.00  0.00    +0.000 A 
ATOM     28  N   UNL     1       2.378   4.857  20.155  0.00  0.00    +0.000 N 
ATOM     29  C   UNL     1       2.077   6.184  19.949  0.00  0.00    +0.000 A 
ATOM     30  O   UNL     1       1.487   6.891  20.769  0.00  0.00    +0.000 OA
ENDBRANCH  18  21
ENDBRANCH  16  17
ENDBRANCH   4  16
TORSDOF 5
ENDMDL
