MODEL 1
REMARK VINA RESULT:      -7.8      0.000      0.000
REMARK  Name = 
REMARK  4 active torsions:
REMARK  status: ('A' for Active; 'I' for Inactive)
REMARK    1  A    between atoms: C_1  and  C_2
REMARK    2  A    between atoms: C_6  and  C_7
REMARK    3  A    between atoms: C_7  and  N_8
REMARK    4  A    between atoms: N_28  and  C_29
REMARK                            x       y       z     vdW  Elec       q    Type
REMARK                         _______ _______ _______ _____ _____    ______ ____
ROOT
ATOM      1  N   UNL     1      -0.860  13.587  21.501  0.00  0.00    +0.000 N 
ATOM      2  C   UNL     1      -1.227  14.825  20.971  0.00  0.00    +0.000 A 
ATOM      3  N   UNL     1      -0.409  15.575  20.161  0.00  0.00    +0.000 N 
ATOM      4  C   UNL     1      -0.992  16.679  19.354  0.00  0.00    +0.000 C 
ATOM      5  C   UNL     1       0.038  17.790  19.002  0.00  0.00    +0.000 C 
ATOM      6  C   UNL     1       1.273  17.156  18.410  0.00  0.00    +0.000 A 
ATOM      7  C   UNL     1       1.926  17.600  17.261  0.00  0.00    +0.000 A 
ATOM      8  C   UNL     1       3.004  16.868  16.751  0.00  0.00    +0.000 A 
ATOM      9  C   UNL     1       3.439  15.705  17.391  0.00  0.00    +0.000 A 
ATOM     10  C   UNL     1       2.816  15.287  18.568  0.00  0.00    +0.000 A 
ATOM     11  C   UNL     1       1.744  16.026  19.087  0.00  0.00    +0.000 A 
ATOM     12  C   UNL     1       1.042  15.659  20.370  0.00  0.00    +0.000 C 
ATOM     13  N   UNL     1      -2.487  15.081  21.326  0.00  0.00    +0.000 NA
ATOM     14  C   UNL     1      -2.871  14.060  22.160  0.00  0.00    +0.000 A 
ATOM     15  C   UNL     1      -1.865  13.162  22.325  0.00  0.00    +0.000 A 
ATOM     16  C   UNL     1      -1.974  12.001  23.135  0.00  0.00    +0.000 A 
ATOM     17  O   UNL     1      -1.092  11.171  23.317  0.00  0.00    +0.000 OA
ATOM     18  N   UNL     1      -3.213  11.866  23.701  0.00  0.00    +0.000 N 
ATOM     19  C   UNL     1      -4.300  12.695  23.524  0.00  0.00    +0.000 A 
ATOM     20  O   UNL     1      -5.377  12.365  24.024  0.00  0.00    +0.000 OA
ATOM     21  N   UNL     1      -4.107  13.849  22.756  0.00  0.00    +0.000 N 
ATOM     22  C   UNL     1      -5.233  14.731  22.535  0.00  0.00    +0.000 C 
ATOM     23  H   UNL     1      -3.369  11.041  24.253  0.00  0.00    +0.000 HD
ENDROOT
BRANCH   1  24
ATOM     24  C   UNL     1       0.213  12.701  21.075  0.00  0.00    +0.000 C 
BRANCH  24  30
ATOM     25  C   UNL     1       1.830   9.238  17.897  0.00  0.00    +0.000 C 
ATOM     26  C   UNL     1       0.689  10.079  18.383  0.00  0.00    +0.000 A 
ATOM     27  C   UNL     1      -0.603   9.924  17.874  0.00  0.00    +0.000 A 
ATOM     28  C   UNL     1      -1.644  10.724  18.344  0.00  0.00    +0.000 A 
ATOM     29  C   UNL     1      -1.405  11.677  19.337  0.00  0.00    +0.000 A 
ATOM     30  C   UNL     1      -0.119  11.825  19.886  0.00  0.00    +0.000 A 
ATOM     31  C   UNL     1       0.921  11.032  19.380  0.00  0.00    +0.000 A 
ENDBRANCH  24  30
ENDBRANCH   1  24
TORSDOF 2
ENDMDL
MODEL 2
REMARK VINA RESULT:      -7.5      3.013      6.169
REMARK  Name = 
REMARK  4 active torsions:
REMARK  status: ('A' for Active; 'I' for Inactive)
REMARK    1  A    between atoms: C_1  and  C_2
REMARK    2  A    between atoms: C_6  and  C_7
REMARK    3  A    between atoms: C_7  and  N_8
REMARK    4  A    between atoms: N_28  and  C_29
REMARK                            x       y       z     vdW  Elec       q    Type
REMARK                         _______ _______ _______ _____ _____    ______ ____
ROOT
ATOM      1  N   UNL     1      -1.663  12.073  20.109  0.00  0.00    +0.000 N 
ATOM      2  C   UNL     1      -2.914  12.607  20.419  0.00  0.00    +0.000 A 
ATOM      3  N   UNL     1      -3.164  13.342  21.552  0.00  0.00    +0.000 N 
ATOM      4  C   UNL     1      -4.396  14.171  21.630  0.00  0.00    +0.000 C 
ATOM      5  C   UNL     1      -4.871  14.428  23.089  0.00  0.00    +0.000 C 
ATOM      6  C   UNL     1      -3.711  14.938  23.909  0.00  0.00    +0.000 A 
ATOM      7  C   UNL     1      -3.764  16.028  24.776  0.00  0.00    +0.000 A 
ATOM      8  C   UNL     1      -2.595  16.470  25.406  0.00  0.00    +0.000 A 
ATOM      9  C   UNL     1      -1.379  15.820  25.182  0.00  0.00    +0.000 A 
ATOM     10  C   UNL     1      -1.335  14.699  24.352  0.00  0.00    +0.000 A 
ATOM     11  C   UNL     1      -2.508  14.248  23.730  0.00  0.00    +0.000 A 
ATOM     12  C   UNL     1      -2.547  13.026  22.848  0.00  0.00    +0.000 C 
ATOM     13  N   UNL     1      -3.749  12.341  19.414  0.00  0.00    +0.000 NA
ATOM     14  C   UNL     1      -3.054  11.556  18.528  0.00  0.00    +0.000 A 
ATOM     15  C   UNL     1      -1.788  11.332  18.966  0.00  0.00    +0.000 A 
ATOM     16  C   UNL     1      -0.837  10.552  18.256  0.00  0.00    +0.000 A 
ATOM     17  O   UNL     1       0.310  10.320  18.617  0.00  0.00    +0.000 OA
ATOM     18  N   UNL     1      -1.323  10.081  17.066  0.00  0.00    +0.000 N 
ATOM     19  C   UNL     1      -2.568  10.324  16.525  0.00  0.00    +0.000 A 
ATOM     20  O   UNL     1      -2.804   9.910  15.389  0.00  0.00    +0.000 OA
ATOM     21  N   UNL     1      -3.473  11.056  17.302  0.00  0.00    +0.000 N 
ATOM     22  C   UNL     1      -4.781  11.344  16.756  0.00  0.00    +0.000 C 
ATOM     23  H   UNL     1      -0.686   9.556  16.495  0.00  0.00    +0.000 HD
ENDROOT
BRANCH   1  24
ATOM     24  C   UNL     1      -0.362  12.434  20.654  0.00  0.00    +0.000 C 
BRANCH  24  30
ATOM     25  C   UNL     1      -0.600  16.906  18.499  0.00  0.00    +0.000 C 
ATOM     26  C   UNL     1       0.242  15.729  18.886  0.00  0.00    +0.000 A 
ATOM     27  C   UNL     1       1.625  15.721  18.687  0.00  0.00    +0.000 A 
ATOM     28  C   UNL     1       2.381  14.609  19.055  0.00  0.00    +0.000 A 
ATOM     29  C   UNL     1       1.763  13.500  19.639  0.00  0.00    +0.000 A 
ATOM     30  C   UNL     1       0.378  13.502  19.879  0.00  0.00    +0.000 A 
ATOM     31  C   UNL     1      -0.370  14.618  19.475  0.00  0.00    +0.000 A 
ENDBRANCH  24  30
ENDBRANCH   1  24
TORSDOF 2
ENDMDL
MODEL 3
REMARK VINA RESULT:      -7.5      3.000      6.025
REMARK  Name = 
REMARK  4 active torsions:
REMARK  status: ('A' for Active; 'I' for Inactive)
REMARK    1  A    between atoms: C_1  and  C_2
REMARK    2  A    between atoms: C_6  and  C_7
REMARK    3  A    between atoms: C_7  and  N_8
REMARK    4  A    between atoms: N_28  and  C_29
REMARK                            x       y       z     vdW  Elec       q    Type
REMARK                         _______ _______ _______ _____ _____    ______ ____
ROOT
ATOM      1  N   UNL     1      -1.662  12.069  20.126  0.00  0.00    +0.000 N 
ATOM      2  C   UNL     1      -2.913  12.607  20.428  0.00  0.00    +0.000 A 
ATOM      3  N   UNL     1      -3.170  13.340  21.561  0.00  0.00    +0.000 N 
ATOM      4  C   UNL     1      -4.399  14.172  21.631  0.00  0.00    +0.000 C 
ATOM      5  C   UNL     1      -4.885  14.427  23.086  0.00  0.00    +0.000 C 
ATOM      6  C   UNL     1      -3.730  14.931  23.917  0.00  0.00    +0.000 A 
ATOM      7  C   UNL     1      -3.787  16.019  24.787  0.00  0.00    +0.000 A 
ATOM      8  C   UNL     1      -2.622  16.455  25.427  0.00  0.00    +0.000 A 
ATOM      9  C   UNL     1      -1.406  15.801  25.212  0.00  0.00    +0.000 A 
ATOM     10  C   UNL     1      -1.359  14.682  24.379  0.00  0.00    +0.000 A 
ATOM     11  C   UNL     1      -2.528  14.237  23.747  0.00  0.00    +0.000 A 
ATOM     12  C   UNL     1      -2.565  13.018  22.860  0.00  0.00    +0.000 C 
ATOM     13  N   UNL     1      -3.742  12.346  19.415  0.00  0.00    +0.000 NA
ATOM     14  C   UNL     1      -3.042  11.561  18.533  0.00  0.00    +0.000 A 
ATOM     15  C   UNL     1      -1.780  11.332  18.981  0.00  0.00    +0.000 A 
ATOM     16  C   UNL     1      -0.826  10.550  18.277  0.00  0.00    +0.000 A 
ATOM     17  O   UNL     1       0.316  10.313  18.646  0.00  0.00    +0.000 OA
ATOM     18  N   UNL     1      -1.305  10.084  17.081  0.00  0.00    +0.000 N 
ATOM     19  C   UNL     1      -2.544  10.332  16.531  0.00  0.00    +0.000 A 
ATOM     20  O   UNL     1      -2.773   9.922  15.392  0.00  0.00    +0.000 OA
ATOM     21  N   UNL     1      -3.452  11.065  17.302  0.00  0.00    +0.000 N 
ATOM     22  C   UNL     1      -4.755  11.360  16.747  0.00  0.00    +0.000 C 
ATOM     23  H   UNL     1      -0.664   9.558  16.514  0.00  0.00    +0.000 HD
ENDROOT
BRANCH   1  24
ATOM     24  C   UNL     1      -0.364  12.424  20.683  0.00  0.00    +0.000 C 
BRANCH  24  30
ATOM     25  C   UNL     1       3.524  14.337  18.248  0.00  0.00    +0.000 C 
ATOM     26  C   UNL     1       2.162  14.556  18.835  0.00  0.00    +0.000 A 
ATOM     27  C   UNL     1       1.486  15.768  18.681  0.00  0.00    +0.000 A 
ATOM     28  C   UNL     1       0.221  15.943  19.242  0.00  0.00    +0.000 A 
ATOM     29  C   UNL     1      -0.383  14.903  19.950  0.00  0.00    +0.000 A 
ATOM     30  C   UNL     1       0.265  13.664  20.087  0.00  0.00    +0.000 A 
ATOM     31  C   UNL     1       1.549  13.516  19.541  0.00  0.00    +0.000 A 
ENDBRANCH  24  30
ENDBRANCH   1  24
TORSDOF 2
ENDMDL
MODEL 4
REMARK VINA RESULT:      -7.4      4.374      7.297
REMARK  Name = 
REMARK  4 active torsions:
REMARK  status: ('A' for Active; 'I' for Inactive)
REMARK    1  A    between atoms: C_1  and  C_2
REMARK    2  A    between atoms: C_6  and  C_7
REMARK    3  A    between atoms: C_7  and  N_8
REMARK    4  A    between atoms: N_28  and  C_29
REMARK                            x       y       z     vdW  Elec       q    Type
REMARK                         _______ _______ _______ _____ _____    ______ ____
ROOT
ATOM      1  N   UNL     1       0.958   9.620  19.503  0.00  0.00    +0.000 N 
ATOM      2  C   UNL     1       0.499   9.386  20.799  0.00  0.00    +0.000 A 
ATOM      3  N   UNL     1      -0.253  10.289  21.512  0.00  0.00    +0.000 N 
ATOM      4  C   UNL     1      -0.999   9.833  22.714  0.00  0.00    +0.000 C 
ATOM      5  C   UNL     1      -1.269  10.973  23.737  0.00  0.00    +0.000 C 
ATOM      6  C   UNL     1      -1.880  12.153  23.020  0.00  0.00    +0.000 A 
ATOM      7  C   UNL     1      -2.991  12.869  23.465  0.00  0.00    +0.000 A 
ATOM      8  C   UNL     1      -3.530  13.880  22.662  0.00  0.00    +0.000 A 
ATOM      9  C   UNL     1      -2.955  14.186  21.425  0.00  0.00    +0.000 A 
ATOM     10  C   UNL     1      -1.815  13.502  21.002  0.00  0.00    +0.000 A 
ATOM     11  C   UNL     1      -1.267  12.497  21.812  0.00  0.00    +0.000 A 
ATOM     12  C   UNL     1      -0.019  11.738  21.440  0.00  0.00    +0.000 C 
ATOM     13  N   UNL     1       0.851   8.150  21.158  0.00  0.00    +0.000 NA
ATOM     14  C   UNL     1       1.615   7.651  20.132  0.00  0.00    +0.000 A 
ATOM     15  C   UNL     1       1.740   8.562  19.131  0.00  0.00    +0.000 A 
ATOM     16  C   UNL     1       2.476   8.324  17.940  0.00  0.00    +0.000 A 
ATOM     17  O   UNL     1       2.620   9.117  17.019  0.00  0.00    +0.000 OA
ATOM     18  N   UNL     1       3.015   7.066  17.895  0.00  0.00    +0.000 N 
ATOM     19  C   UNL     1       2.873   6.069  18.836  0.00  0.00    +0.000 A 
ATOM     20  O   UNL     1       3.337   4.956  18.585  0.00  0.00    +0.000 OA
ATOM     21  N   UNL     1       2.180   6.389  20.008  0.00  0.00    +0.000 N 
ATOM     22  C   UNL     1       1.997   5.360  21.009  0.00  0.00    +0.000 C 
ATOM     23  H   UNL     1       3.514   6.820  17.058  0.00  0.00    +0.000 HD
ENDROOT
BRANCH   1  24
ATOM     24  C   UNL     1       0.494  10.609  18.541  0.00  0.00    +0.000 C 
BRANCH  24  30
ATOM     25  C   UNL     1      -4.291  11.935  18.773  0.00  0.00    +0.000 C 
ATOM     26  C   UNL     1      -3.237  11.100  18.111  0.00  0.00    +0.000 A 
ATOM     27  C   UNL     1      -3.523  10.311  16.995  0.00  0.00    +0.000 A 
ATOM     28  C   UNL     1      -2.522   9.542  16.403  0.00  0.00    +0.000 A 
ATOM     29  C   UNL     1      -1.223   9.566  16.914  0.00  0.00    +0.000 A 
ATOM     30  C   UNL     1      -0.906  10.379  18.016  0.00  0.00    +0.000 A 
ATOM     31  C   UNL     1      -1.933  11.122  18.616  0.00  0.00    +0.000 A 
ENDBRANCH  24  30
ENDBRANCH   1  24
TORSDOF 2
ENDMDL
MODEL 5
REMARK VINA RESULT:      -7.4      0.381      1.338
REMARK  Name = 
REMARK  4 active torsions:
REMARK  status: ('A' for Active; 'I' for Inactive)
REMARK    1  A    between atoms: C_1  and  C_2
REMARK    2  A    between atoms: C_6  and  C_7
REMARK    3  A    between atoms: C_7  and  N_8
REMARK    4  A    between atoms: N_28  and  C_29
REMARK                            x       y       z     vdW  Elec       q    Type
REMARK                         _______ _______ _______ _____ _____    ______ ____
ROOT
ATOM      1  N   UNL     1      -0.894  13.553  21.520  0.00  0.00    +0.000 N 
ATOM      2  C   UNL     1      -1.255  14.796  20.999  0.00  0.00    +0.000 A 
ATOM      3  N   UNL     1      -0.434  15.547  20.192  0.00  0.00    +0.000 N 
ATOM      4  C   UNL     1      -1.012  16.659  19.394  0.00  0.00    +0.000 C 
ATOM      5  C   UNL     1       0.024  17.767  19.047  0.00  0.00    +0.000 C 
ATOM      6  C   UNL     1       1.254  17.130  18.449  0.00  0.00    +0.000 A 
ATOM      7  C   UNL     1       1.908  17.578  17.301  0.00  0.00    +0.000 A 
ATOM      8  C   UNL     1       2.981  16.843  16.785  0.00  0.00    +0.000 A 
ATOM      9  C   UNL     1       3.410  15.673  17.417  0.00  0.00    +0.000 A 
ATOM     10  C   UNL     1       2.787  15.251  18.592  0.00  0.00    +0.000 A 
ATOM     11  C   UNL     1       1.720  15.993  19.118  0.00  0.00    +0.000 A 
ATOM     12  C   UNL     1       1.019  15.621  20.399  0.00  0.00    +0.000 C 
ATOM     13  N   UNL     1      -2.512  15.058  21.358  0.00  0.00    +0.000 NA
ATOM     14  C   UNL     1      -2.901  14.033  22.186  0.00  0.00    +0.000 A 
ATOM     15  C   UNL     1      -1.900  13.128  22.343  0.00  0.00    +0.000 A 
ATOM     16  C   UNL     1      -2.014  11.963  23.146  0.00  0.00    +0.000 A 
ATOM     17  O   UNL     1      -1.136  11.127  23.321  0.00  0.00    +0.000 OA
ATOM     18  N   UNL     1      -3.253  11.831  23.713  0.00  0.00    +0.000 N 
ATOM     19  C   UNL     1      -4.335  12.667  23.543  0.00  0.00    +0.000 A 
ATOM     20  O   UNL     1      -5.413  12.341  24.043  0.00  0.00    +0.000 OA
ATOM     21  N   UNL     1      -4.137  13.825  22.782  0.00  0.00    +0.000 N 
ATOM     22  C   UNL     1      -5.258  14.715  22.569  0.00  0.00    +0.000 C 
ATOM     23  H   UNL     1      -3.412  11.004  24.261  0.00  0.00    +0.000 HD
ENDROOT
BRANCH   1  24
ATOM     24  C   UNL     1       0.173  12.664  21.087  0.00  0.00    +0.000 C 
BRANCH  24  30
ATOM     25  C   UNL     1      -3.213  11.374  17.684  0.00  0.00    +0.000 C 
ATOM     26  C   UNL     1      -1.873  11.113  18.302  0.00  0.00    +0.000 A 
ATOM     27  C   UNL     1      -1.008  10.142  17.791  0.00  0.00    +0.000 A 
ATOM     28  C   UNL     1       0.231   9.920  18.390  0.00  0.00    +0.000 A 
ATOM     29  C   UNL     1       0.622  10.675  19.497  0.00  0.00    +0.000 A 
ATOM     30  C   UNL     1      -0.218  11.679  20.007  0.00  0.00    +0.000 A 
ATOM     31  C   UNL     1      -1.473  11.868  19.409  0.00  0.00    +0.000 A 
ENDBRANCH  24  30
ENDBRANCH   1  24
TORSDOF 2
ENDMDL
MODEL 6
REMARK VINA RESULT:      -7.3      0.975      1.625
REMARK  Name = 
REMARK  4 active torsions:
REMARK  status: ('A' for Active; 'I' for Inactive)
REMARK    1  A    between atoms: C_1  and  C_2
REMARK    2  A    between atoms: C_6  and  C_7
REMARK    3  A    between atoms: C_7  and  N_8
REMARK    4  A    between atoms: N_28  and  C_29
REMARK                            x       y       z     vdW  Elec       q    Type
REMARK                         _______ _______ _______ _____ _____    ______ ____
ROOT
ATOM      1  N   UNL     1      -1.190  13.422  21.402  0.00  0.00    +0.000 N 
ATOM      2  C   UNL     1      -1.260  14.549  20.582  0.00  0.00    +0.000 A 
ATOM      3  N   UNL     1      -0.176  15.076  19.923  0.00  0.00    +0.000 N 
ATOM      4  C   UNL     1      -0.392  16.029  18.803  0.00  0.00    +0.000 C 
ATOM      5  C   UNL     1       0.811  16.988  18.574  0.00  0.00    +0.000 C 
ATOM      6  C   UNL     1       2.083  16.181  18.483  0.00  0.00    +0.000 A 
ATOM      7  C   UNL     1       3.068  16.351  17.511  0.00  0.00    +0.000 A 
ATOM      8  C   UNL     1       4.157  15.473  17.468  0.00  0.00    +0.000 A 
ATOM      9  C   UNL     1       4.270  14.437  18.399  0.00  0.00    +0.000 A 
ATOM     10  C   UNL     1       3.309  14.296  19.401  0.00  0.00    +0.000 A 
ATOM     11  C   UNL     1       2.224  15.183  19.452  0.00  0.00    +0.000 A 
ATOM     12  C   UNL     1       1.165  15.117  20.523  0.00  0.00    +0.000 C 
ATOM     13  N   UNL     1      -2.533  14.941  20.509  0.00  0.00    +0.000 NA
ATOM     14  C   UNL     1      -3.239  14.129  21.361  0.00  0.00    +0.000 A 
ATOM     15  C   UNL     1      -2.421  13.226  21.963  0.00  0.00    +0.000 A 
ATOM     16  C   UNL     1      -2.873  12.257  22.897  0.00  0.00    +0.000 A 
ATOM     17  O   UNL     1      -2.170  11.431  23.466  0.00  0.00    +0.000 OA
ATOM     18  N   UNL     1      -4.226  12.307  23.097  0.00  0.00    +0.000 N 
ATOM     19  C   UNL     1      -5.126  13.144  22.473  0.00  0.00    +0.000 A 
ATOM     20  O   UNL     1      -6.328  12.982  22.692  0.00  0.00    +0.000 OA
ATOM     21  N   UNL     1      -4.606  14.110  21.604  0.00  0.00    +0.000 N 
ATOM     22  C   UNL     1      -5.525  14.993  20.919  0.00  0.00    +0.000 C 
ATOM     23  H   UNL     1      -4.616  11.618  23.716  0.00  0.00    +0.000 HD
ENDROOT
BRANCH   1  24
ATOM     24  C   UNL     1      -0.146  12.410  21.464  0.00  0.00    +0.000 C 
BRANCH  24  30
ATOM     25  C   UNL     1      -2.703  10.136  17.859  0.00  0.00    +0.000 C 
ATOM     26  C   UNL     1      -1.369  10.429  18.476  0.00  0.00    +0.000 A 
ATOM     27  C   UNL     1      -0.179  10.005  17.881  0.00  0.00    +0.000 A 
ATOM     28  C   UNL     1       1.047  10.290  18.481  0.00  0.00    +0.000 A 
ATOM     29  C   UNL     1       1.094  11.014  19.675  0.00  0.00    +0.000 A 
ATOM     30  C   UNL     1      -0.091  11.479  20.272  0.00  0.00    +0.000 A 
ATOM     31  C   UNL     1      -1.316  11.157  19.669  0.00  0.00    +0.000 A 
ENDBRANCH  24  30
ENDBRANCH   1  24
TORSDOF 2
ENDMDL
MODEL 7
REMARK VINA RESULT:      -7.2      4.067      7.254
REMARK  Name = 
REMARK  4 active torsions:
REMARK  status: ('A' for Active; 'I' for Inactive)
REMARK    1  A    between atoms: C_1  and  C_2
REMARK    2  A    between atoms: C_6  and  C_7
REMARK    3  A    between atoms: C_7  and  N_8
REMARK    4  A    between atoms: N_28  and  C_29
REMARK                            x       y       z     vdW  Elec       q    Type
REMARK                         _______ _______ _______ _____ _____    ______ ____
ROOT
ATOM      1  N   UNL     1      -3.194  12.361  19.255  0.00  0.00    +0.000 N 
ATOM      2  C   UNL     1      -2.760  12.755  20.521  0.00  0.00    +0.000 A 
ATOM      3  N   UNL     1      -3.472  13.602  21.337  0.00  0.00    +0.000 N 
ATOM      4  C   UNL     1      -3.135  13.681  22.782  0.00  0.00    +0.000 C 
ATOM      5  C   UNL     1      -3.533  15.037  23.431  0.00  0.00    +0.000 C 
ATOM      6  C   UNL     1      -4.972  15.347  23.097  0.00  0.00    +0.000 A 
ATOM      7  C   UNL     1      -5.928  15.786  24.013  0.00  0.00    +0.000 A 
ATOM      8  C   UNL     1      -7.257  15.942  23.606  0.00  0.00    +0.000 A 
ATOM      9  C   UNL     1      -7.632  15.674  22.286  0.00  0.00    +0.000 A 
ATOM     10  C   UNL     1      -6.667  15.281  21.358  0.00  0.00    +0.000 A 
ATOM     11  C   UNL     1      -5.332  15.136  21.762  0.00  0.00    +0.000 A 
ATOM     12  C   UNL     1      -4.228  14.748  20.812  0.00  0.00    +0.000 C 
ATOM     13  N   UNL     1      -1.620  12.120  20.796  0.00  0.00    +0.000 NA
ATOM     14  C   UNL     1      -1.287  11.413  19.667  0.00  0.00    +0.000 A 
ATOM     15  C   UNL     1      -2.213  11.594  18.689  0.00  0.00    +0.000 A 
ATOM     16  C   UNL     1      -2.132  10.987  17.409  0.00  0.00    +0.000 A 
ATOM     17  O   UNL     1      -2.938  11.128  16.498  0.00  0.00    +0.000 OA
ATOM     18  N   UNL     1      -1.041  10.170  17.279  0.00  0.00    +0.000 N 
ATOM     19  C   UNL     1      -0.101   9.883  18.246  0.00  0.00    +0.000 A 
ATOM     20  O   UNL     1       0.761   9.039  17.995  0.00  0.00    +0.000 OA
ATOM     21  N   UNL     1      -0.212  10.558  19.467  0.00  0.00    +0.000 N 
ATOM     22  C   UNL     1       0.747  10.266  20.511  0.00  0.00    +0.000 C 
ATOM     23  H   UNL     1      -0.947   9.676  16.409  0.00  0.00    +0.000 HD
ENDROOT
BRANCH   1  24
ATOM     24  C   UNL     1      -4.533  12.436  18.691  0.00  0.00    +0.000 C 
BRANCH  24  30
ATOM     25  C   UNL     1      -7.916  11.729  22.264  0.00  0.00    +0.000 C 
ATOM     26  C   UNL     1      -7.238  11.199  21.037  0.00  0.00    +0.000 A 
ATOM     27  C   UNL     1      -7.638  10.002  20.439  0.00  0.00    +0.000 A 
ATOM     28  C   UNL     1      -6.985   9.533  19.300  0.00  0.00    +0.000 A 
ATOM     29  C   UNL     1      -5.934  10.263  18.742  0.00  0.00    +0.000 A 
ATOM     30  C   UNL     1      -5.538  11.487  19.308  0.00  0.00    +0.000 A 
ATOM     31  C   UNL     1      -6.188  11.928  20.471  0.00  0.00    +0.000 A 
ENDBRANCH  24  30
ENDBRANCH   1  24
TORSDOF 2
ENDMDL
MODEL 8
REMARK VINA RESULT:      -7.1      3.264      6.076
REMARK  Name = 
REMARK  4 active torsions:
REMARK  status: ('A' for Active; 'I' for Inactive)
REMARK    1  A    between atoms: C_1  and  C_2
REMARK    2  A    between atoms: C_6  and  C_7
REMARK    3  A    between atoms: C_7  and  N_8
REMARK    4  A    between atoms: N_28  and  C_29
REMARK                            x       y       z     vdW  Elec       q    Type
REMARK                         _______ _______ _______ _____ _____    ______ ____
ROOT
ATOM      1  N   UNL     1      -2.041  14.659  21.567  0.00  0.00    +0.000 N 
ATOM      2  C   UNL     1      -3.136  14.238  22.322  0.00  0.00    +0.000 A 
ATOM      3  N   UNL     1      -4.194  13.535  21.797  0.00  0.00    +0.000 N 
ATOM      4  C   UNL     1      -5.121  12.817  22.710  0.00  0.00    +0.000 C 
ATOM      5  C   UNL     1      -6.540  12.613  22.107  0.00  0.00    +0.000 C 
ATOM      6  C   UNL     1      -6.415  12.011  20.729  0.00  0.00    +0.000 A 
ATOM      7  C   UNL     1      -7.167  10.935  20.256  0.00  0.00    +0.000 A 
ATOM      8  C   UNL     1      -6.888  10.398  18.994  0.00  0.00    +0.000 A 
ATOM      9  C   UNL     1      -5.874  10.939  18.200  0.00  0.00    +0.000 A 
ATOM     10  C   UNL     1      -5.154  12.046  18.653  0.00  0.00    +0.000 A 
ATOM     11  C   UNL     1      -5.440  12.593  19.912  0.00  0.00    +0.000 A 
ATOM     12  C   UNL     1      -4.730  13.806  20.456  0.00  0.00    +0.000 C 
ATOM     13  N   UNL     1      -2.924  14.567  23.597  0.00  0.00    +0.000 NA
ATOM     14  C   UNL     1      -1.753  15.283  23.623  0.00  0.00    +0.000 A 
ATOM     15  C   UNL     1      -1.225  15.399  22.377  0.00  0.00    +0.000 A 
ATOM     16  C   UNL     1      -0.016  16.088  22.096  0.00  0.00    +0.000 A 
ATOM     17  O   UNL     1       0.490  16.222  20.990  0.00  0.00    +0.000 OA
ATOM     18  N   UNL     1       0.579  16.591  23.223  0.00  0.00    +0.000 N 
ATOM     19  C   UNL     1       0.141  16.453  24.523  0.00  0.00    +0.000 A 
ATOM     20  O   UNL     1       0.858  16.878  25.431  0.00  0.00    +0.000 OA
ATOM     21  N   UNL     1      -1.085  15.808  24.721  0.00  0.00    +0.000 N 
ATOM     22  C   UNL     1      -1.564  15.631  26.075  0.00  0.00    +0.000 C 
ATOM     23  H   UNL     1       1.461  17.054  23.098  0.00  0.00    +0.000 HD
ENDROOT
BRANCH   1  24
ATOM     24  C   UNL     1      -1.608  14.190  20.259  0.00  0.00    +0.000 C 
BRANCH  24  30
ATOM     25  C   UNL     1      -1.693  10.006  17.577  0.00  0.00    +0.000 C 
ATOM     26  C   UNL     1      -1.245  10.703  18.826  0.00  0.00    +0.000 A 
ATOM     27  C   UNL     1      -0.417  10.073  19.758  0.00  0.00    +0.000 A 
ATOM     28  C   UNL     1      -0.019  10.747  20.912  0.00  0.00    +0.000 A 
ATOM     29  C   UNL     1      -0.436  12.060  21.138  0.00  0.00    +0.000 A 
ATOM     30  C   UNL     1      -1.242  12.723  20.197  0.00  0.00    +0.000 A 
ATOM     31  C   UNL     1      -1.655  12.020  19.056  0.00  0.00    +0.000 A 
ENDBRANCH  24  30
ENDBRANCH   1  24
TORSDOF 2
ENDMDL
MODEL 9
REMARK VINA RESULT:      -7.1      4.022      8.230
REMARK  Name = 
REMARK  4 active torsions:
REMARK  status: ('A' for Active; 'I' for Inactive)
REMARK    1  A    between atoms: C_1  and  C_2
REMARK    2  A    between atoms: C_6  and  C_7
REMARK    3  A    between atoms: C_7  and  N_8
REMARK    4  A    between atoms: N_28  and  C_29
REMARK                            x       y       z     vdW  Elec       q    Type
REMARK                         _______ _______ _______ _____ _____    ______ ____
ROOT
ATOM      1  N   UNL     1       3.035  15.485  19.594  0.00  0.00    +0.000 N 
ATOM      2  C   UNL     1       3.240  14.233  19.014  0.00  0.00    +0.000 A 
ATOM      3  N   UNL     1       2.271  13.260  18.948  0.00  0.00    +0.000 N 
ATOM      4  C   UNL     1       2.443  12.120  18.010  0.00  0.00    +0.000 C 
ATOM      5  C   UNL     1       1.668  10.844  18.449  0.00  0.00    +0.000 C 
ATOM      6  C   UNL     1       0.235  11.208  18.748  0.00  0.00    +0.000 A 
ATOM      7  C   UNL     1      -0.880  10.499  18.300  0.00  0.00    +0.000 A 
ATOM      8  C   UNL     1      -2.163  10.993  18.557  0.00  0.00    +0.000 A 
ATOM      9  C   UNL     1      -2.337  12.183  19.269  0.00  0.00    +0.000 A 
ATOM     10  C   UNL     1      -1.224  12.867  19.758  0.00  0.00    +0.000 A 
ATOM     11  C   UNL     1       0.063  12.367  19.512  0.00  0.00    +0.000 A 
ATOM     12  C   UNL     1       1.312  13.030  20.036  0.00  0.00    +0.000 C 
ATOM     13  N   UNL     1       4.469  14.201  18.499  0.00  0.00    +0.000 NA
ATOM     14  C   UNL     1       5.067  15.387  18.846  0.00  0.00    +0.000 A 
ATOM     15  C   UNL     1       4.220  16.166  19.569  0.00  0.00    +0.000 A 
ATOM     16  C   UNL     1       4.565  17.450  20.066  0.00  0.00    +0.000 A 
ATOM     17  O   UNL     1       3.836  18.180  20.726  0.00  0.00    +0.000 OA
ATOM     18  N   UNL     1       5.829  17.834  19.707  0.00  0.00    +0.000 N 
ATOM     19  C   UNL     1       6.716  17.131  18.920  0.00  0.00    +0.000 A 
ATOM     20  O   UNL     1       7.777  17.673  18.604  0.00  0.00    +0.000 OA
ATOM     21  N   UNL     1       6.332  15.850  18.508  0.00  0.00    +0.000 N 
ATOM     22  C   UNL     1       7.232  15.093  17.666  0.00  0.00    +0.000 C 
ATOM     23  H   UNL     1       6.120  18.752  19.992  0.00  0.00    +0.000 HD
ENDROOT
BRANCH   1  24
ATOM     24  C   UNL     1       1.775  16.145  19.905  0.00  0.00    +0.000 C 
BRANCH  24  30
ATOM     25  C   UNL     1      -2.221  18.568  18.212  0.00  0.00    +0.000 C 
ATOM     26  C   UNL     1      -0.803  18.145  17.981  0.00  0.00    +0.000 A 
ATOM     27  C   UNL     1      -0.084  18.577  16.864  0.00  0.00    +0.000 A 
ATOM     28  C   UNL     1       1.234  18.163  16.674  0.00  0.00    +0.000 A 
ATOM     29  C   UNL     1       1.849  17.326  17.606  0.00  0.00    +0.000 A 
ATOM     30  C   UNL     1       1.155  16.907  18.754  0.00  0.00    +0.000 A 
ATOM     31  C   UNL     1      -0.179  17.310  18.913  0.00  0.00    +0.000 A 
ENDBRANCH  24  30
ENDBRANCH   1  24
TORSDOF 2
ENDMDL
