MODEL 1
REMARK VINA RESULT:      -8.5      0.000      0.000
REMARK  Name = 
REMARK  7 active torsions:
REMARK  status: ('A' for Active; 'I' for Inactive)
REMARK    1  A    between atoms: C_1  and  C_2
REMARK    2  A    between atoms: C_4  and  C_5
REMARK    3  A    between atoms: N_6  and  C_7
REMARK    4  A    between atoms: C_11  and  N_12
REMARK    5  A    between atoms: C_13  and  C_15
REMARK    6  A    between atoms: C_18  and  S_19
REMARK    7  A    between atoms: S_19  and  C_22
REMARK                            x       y       z     vdW  Elec       q    Type
REMARK                         _______ _______ _______ _____ _____    ______ ____
ROOT
ATOM      1  N   UNL     1       1.265   9.038  18.682  0.00  0.00    +0.000 N 
ATOM      2  C   UNL     1       1.518   8.369  19.873  0.00  0.00    +0.000 C 
ATOM      3  O   UNL     1       1.277   8.790  21.000  0.00  0.00    +0.000 OA
ATOM      4  H   UNL     1       1.469   8.558  17.816  0.00  0.00    +0.000 HD
ENDROOT
BRANCH   1   9
ATOM      5  C   UNL     1      -1.431  11.558  18.164  0.00  0.00    +0.000 A 
ATOM      6  C   UNL     1      -0.740  12.760  18.362  0.00  0.00    +0.000 A 
ATOM      7  C   UNL     1       0.610  12.738  18.690  0.00  0.00    +0.000 A 
ATOM      8  C   UNL     1       1.287  11.522  18.803  0.00  0.00    +0.000 A 
ATOM      9  C   UNL     1       0.635  10.308  18.569  0.00  0.00    +0.000 A 
ATOM     10  C   UNL     1      -0.727  10.341  18.228  0.00  0.00    +0.000 A 
BRANCH   5  16
ATOM     11  C   UNL     1      -6.086  12.171  19.314  0.00  0.00    +0.000 C 
ATOM     12  C   UNL     1      -4.908  11.891  18.459  0.00  0.00    +0.000 A 
ATOM     13  C   UNL     1      -4.891  11.564  17.093  0.00  0.00    +0.000 A 
ATOM     14  C   UNL     1      -3.566  11.354  16.775  0.00  0.00    +0.000 A 
ATOM     15  C   UNL     1      -3.012  10.824  15.505  0.00  0.00    +0.000 C 
ATOM     16  N   UNL     1      -2.840  11.617  17.934  0.00  0.00    +0.000 N 
ATOM     17  N   UNL     1      -3.677  11.894  18.974  0.00  0.00    +0.000 NA
ENDBRANCH   5  16
ENDBRANCH   1   9
BRANCH   2  18
ATOM     18  C   UNL     1       2.108   7.000  19.798  0.00  0.00    +0.000 A 
ATOM     19  C   UNL     1       3.186   6.647  18.976  0.00  0.00    +0.000 A 
ATOM     20  C   UNL     1       3.730   5.354  19.054  0.00  0.00    +0.000 A 
ATOM     21  C   UNL     1       3.195   4.421  19.952  0.00  0.00    +0.000 A 
ATOM     22  C   UNL     1       2.102   4.754  20.750  0.00  0.00    +0.000 A 
ATOM     23  C   UNL     1       1.571   6.039  20.675  0.00  0.00    +0.000 A 
BRANCH  21  24
ATOM     24  S   UNL     1       3.873   2.777  20.074  0.00  0.00    +0.000 S 
ATOM     25  O   UNL     1       5.269   2.890  19.689  0.00  0.00    +0.000 OA
ATOM     26  O   UNL     1       3.531   2.271  21.394  0.00  0.00    +0.000 OA
BRANCH  24  27
ATOM     27  C   UNL     1       2.974   1.829  18.831  0.00  0.00    +0.000 C 
ATOM     28  F   UNL     1       2.282   2.622  17.964  0.00  0.00    +0.000 F 
ATOM     29  F   UNL     1       3.791   1.051  18.064  0.00  0.00    +0.000 F 
ENDBRANCH  24  27
ENDBRANCH  21  24
ENDBRANCH   2  18
TORSDOF 5
ENDMDL
MODEL 2
REMARK VINA RESULT:      -8.4      0.779      1.308
REMARK  Name = 
REMARK  7 active torsions:
REMARK  status: ('A' for Active; 'I' for Inactive)
REMARK    1  A    between atoms: C_1  and  C_2
REMARK    2  A    between atoms: C_4  and  C_5
REMARK    3  A    between atoms: N_6  and  C_7
REMARK    4  A    between atoms: C_11  and  N_12
REMARK    5  A    between atoms: C_13  and  C_15
REMARK    6  A    between atoms: C_18  and  S_19
REMARK    7  A    between atoms: S_19  and  C_22
REMARK                            x       y       z     vdW  Elec       q    Type
REMARK                         _______ _______ _______ _____ _____    ______ ____
ROOT
ATOM      1  N   UNL     1       1.269   9.409  18.595  0.00  0.00    +0.000 N 
ATOM      2  C   UNL     1       1.483   8.611  19.711  0.00  0.00    +0.000 C 
ATOM      3  O   UNL     1       1.099   8.850  20.851  0.00  0.00    +0.000 OA
ATOM      4  H   UNL     1       1.599   9.072  17.701  0.00  0.00    +0.000 HD
ENDROOT
BRANCH   1   9
ATOM      5  C   UNL     1      -1.648  11.702  18.248  0.00  0.00    +0.000 A 
ATOM      6  C   UNL     1      -1.075  12.942  18.558  0.00  0.00    +0.000 A 
ATOM      7  C   UNL     1       0.269  13.018  18.905  0.00  0.00    +0.000 A 
ATOM      8  C   UNL     1       1.056  11.864  18.926  0.00  0.00    +0.000 A 
ATOM      9  C   UNL     1       0.523  10.620  18.580  0.00  0.00    +0.000 A 
ATOM     10  C   UNL     1      -0.832  10.555  18.220  0.00  0.00    +0.000 A 
BRANCH   5  16
ATOM     11  C   UNL     1      -6.351  11.934  19.343  0.00  0.00    +0.000 C 
ATOM     12  C   UNL     1      -5.143  11.753  18.501  0.00  0.00    +0.000 A 
ATOM     13  C   UNL     1      -5.084  11.435  17.135  0.00  0.00    +0.000 A 
ATOM     14  C   UNL     1      -3.743  11.335  16.832  0.00  0.00    +0.000 A 
ATOM     15  C   UNL     1      -3.133  10.857  15.567  0.00  0.00    +0.000 C 
ATOM     16  N   UNL     1      -3.054  11.649  18.001  0.00  0.00    +0.000 N 
ATOM     17  N   UNL     1      -3.923  11.852  19.032  0.00  0.00    +0.000 NA
ENDBRANCH   5  16
ENDBRANCH   1   9
BRANCH   2  18
ATOM     18  C   UNL     1       2.217   7.324  19.524  0.00  0.00    +0.000 A 
ATOM     19  C   UNL     1       2.101   6.216  20.374  0.00  0.00    +0.000 A 
ATOM     20  C   UNL     1       2.759   5.017  20.053  0.00  0.00    +0.000 A 
ATOM     21  C   UNL     1       3.530   4.932  18.886  0.00  0.00    +0.000 A 
ATOM     22  C   UNL     1       3.677   6.038  18.052  0.00  0.00    +0.000 A 
ATOM     23  C   UNL     1       3.016   7.221  18.370  0.00  0.00    +0.000 A 
BRANCH  21  24
ATOM     24  S   UNL     1       4.368   3.419  18.454  0.00  0.00    +0.000 S 
ATOM     25  O   UNL     1       4.869   3.609  17.103  0.00  0.00    +0.000 OA
ATOM     26  O   UNL     1       5.301   3.125  19.531  0.00  0.00    +0.000 OA
BRANCH  24  27
ATOM     27  C   UNL     1       3.067   2.171  18.450  0.00  0.00    +0.000 C 
ATOM     28  F   UNL     1       2.284   2.232  17.334  0.00  0.00    +0.000 F 
ATOM     29  F   UNL     1       3.552   0.897  18.502  0.00  0.00    +0.000 F 
ENDBRANCH  24  27
ENDBRANCH  21  24
ENDBRANCH   2  18
TORSDOF 5
ENDMDL
MODEL 3
REMARK VINA RESULT:      -8.3      5.507      9.916
REMARK  Name = 
REMARK  7 active torsions:
REMARK  status: ('A' for Active; 'I' for Inactive)
REMARK    1  A    between atoms: C_1  and  C_2
REMARK    2  A    between atoms: C_4  and  C_5
REMARK    3  A    between atoms: N_6  and  C_7
REMARK    4  A    between atoms: C_11  and  N_12
REMARK    5  A    between atoms: C_13  and  C_15
REMARK    6  A    between atoms: C_18  and  S_19
REMARK    7  A    between atoms: S_19  and  C_22
REMARK                            x       y       z     vdW  Elec       q    Type
REMARK                         _______ _______ _______ _____ _____    ______ ____
ROOT
ATOM      1  N   UNL     1       4.473   7.004  17.688  0.00  0.00    +0.000 N 
ATOM      2  C   UNL     1       3.225   6.620  18.162  0.00  0.00    +0.000 C 
ATOM      3  O   UNL     1       2.809   5.469  18.241  0.00  0.00    +0.000 OA
ATOM      4  H   UNL     1       4.710   7.986  17.720  0.00  0.00    +0.000 HD
ENDROOT
BRANCH   1   9
ATOM      5  C   UNL     1       6.489   4.841  15.420  0.00  0.00    +0.000 A 
ATOM      6  C   UNL     1       7.505   4.398  16.277  0.00  0.00    +0.000 A 
ATOM      7  C   UNL     1       7.538   4.832  17.597  0.00  0.00    +0.000 A 
ATOM      8  C   UNL     1       6.550   5.693  18.079  0.00  0.00    +0.000 A 
ATOM      9  C   UNL     1       5.500   6.118  17.260  0.00  0.00    +0.000 A 
ATOM     10  C   UNL     1       5.469   5.665  15.932  0.00  0.00    +0.000 A 
BRANCH   5  16
ATOM     11  C   UNL     1       5.294   2.336  11.462  0.00  0.00    +0.000 C 
ATOM     12  C   UNL     1       6.009   3.336  12.292  0.00  0.00    +0.000 A 
ATOM     13  C   UNL     1       7.028   4.216  11.894  0.00  0.00    +0.000 A 
ATOM     14  C   UNL     1       7.393   4.905  13.031  0.00  0.00    +0.000 A 
ATOM     15  C   UNL     1       8.536   5.834  13.200  0.00  0.00    +0.000 C 
ATOM     16  N   UNL     1       6.548   4.459  14.045  0.00  0.00    +0.000 N 
ATOM     17  N   UNL     1       5.739   3.458  13.592  0.00  0.00    +0.000 NA
ENDBRANCH   5  16
ENDBRANCH   1   9
BRANCH   2  18
ATOM     18  C   UNL     1       2.302   7.685  18.654  0.00  0.00    +0.000 A 
ATOM     19  C   UNL     1       1.878   7.812  19.983  0.00  0.00    +0.000 A 
ATOM     20  C   UNL     1       1.086   8.909  20.362  0.00  0.00    +0.000 A 
ATOM     21  C   UNL     1       0.723   9.873  19.411  0.00  0.00    +0.000 A 
ATOM     22  C   UNL     1       1.114   9.737  18.081  0.00  0.00    +0.000 A 
ATOM     23  C   UNL     1       1.905   8.652  17.712  0.00  0.00    +0.000 A 
BRANCH  21  24
ATOM     24  S   UNL     1      -0.274  11.278  19.870  0.00  0.00    +0.000 S 
ATOM     25  O   UNL     1      -0.700  11.038  21.239  0.00  0.00    +0.000 OA
ATOM     26  O   UNL     1       0.498  12.470  19.557  0.00  0.00    +0.000 OA
BRANCH  24  27
ATOM     27  C   UNL     1      -1.698  11.195  18.767  0.00  0.00    +0.000 C 
ATOM     28  F   UNL     1      -1.481  11.828  17.580  0.00  0.00    +0.000 F 
ATOM     29  F   UNL     1      -2.053   9.915  18.454  0.00  0.00    +0.000 F 
ENDBRANCH  24  27
ENDBRANCH  21  24
ENDBRANCH   2  18
TORSDOF 5
ENDMDL
MODEL 4
REMARK VINA RESULT:      -8.2      1.145      1.656
REMARK  Name = 
REMARK  7 active torsions:
REMARK  status: ('A' for Active; 'I' for Inactive)
REMARK    1  A    between atoms: C_1  and  C_2
REMARK    2  A    between atoms: C_4  and  C_5
REMARK    3  A    between atoms: N_6  and  C_7
REMARK    4  A    between atoms: C_11  and  N_12
REMARK    5  A    between atoms: C_13  and  C_15
REMARK    6  A    between atoms: C_18  and  S_19
REMARK    7  A    between atoms: S_19  and  C_22
REMARK                            x       y       z     vdW  Elec       q    Type
REMARK                         _______ _______ _______ _____ _____    ______ ____
ROOT
ATOM      1  N   UNL     1       0.957   9.224  19.224  0.00  0.00    +0.000 N 
ATOM      2  C   UNL     1       1.864   8.595  18.382  0.00  0.00    +0.000 C 
ATOM      3  O   UNL     1       2.296   9.044  17.325  0.00  0.00    +0.000 OA
ATOM      4  H   UNL     1       0.718   8.765  20.092  0.00  0.00    +0.000 HD
ENDROOT
BRANCH   1   9
ATOM      5  C   UNL     1      -1.594  11.922  18.904  0.00  0.00    +0.000 A 
ATOM      6  C   UNL     1      -0.791  13.050  18.686  0.00  0.00    +0.000 A 
ATOM      7  C   UNL     1       0.593  12.923  18.668  0.00  0.00    +0.000 A 
ATOM      8  C   UNL     1       1.187  11.671  18.847  0.00  0.00    +0.000 A 
ATOM      9  C   UNL     1       0.411  10.523  19.024  0.00  0.00    +0.000 A 
ATOM     10  C   UNL     1      -0.986  10.659  19.029  0.00  0.00    +0.000 A 
BRANCH   5  16
ATOM     11  C   UNL     1      -5.732  13.170  21.069  0.00  0.00    +0.000 C 
ATOM     12  C   UNL     1      -4.840  12.666  19.997  0.00  0.00    +0.000 A 
ATOM     13  C   UNL     1      -5.202  12.186  18.728  0.00  0.00    +0.000 A 
ATOM     14  C   UNL     1      -4.024  11.798  18.125  0.00  0.00    +0.000 A 
ATOM     15  C   UNL     1      -3.859  11.069  16.844  0.00  0.00    +0.000 C 
ATOM     16  N   UNL     1      -3.005  12.110  19.022  0.00  0.00    +0.000 N 
ATOM     17  N   UNL     1      -3.521  12.593  20.188  0.00  0.00    +0.000 NA
ENDBRANCH   5  16
ENDBRANCH   1   9
BRANCH   2  18
ATOM     18  C   UNL     1       2.401   7.265  18.796  0.00  0.00    +0.000 A 
ATOM     19  C   UNL     1       2.140   6.655  20.030  0.00  0.00    +0.000 A 
ATOM     20  C   UNL     1       2.613   5.357  20.282  0.00  0.00    +0.000 A 
ATOM     21  C   UNL     1       3.344   4.674  19.300  0.00  0.00    +0.000 A 
ATOM     22  C   UNL     1       3.636   5.285  18.083  0.00  0.00    +0.000 A 
ATOM     23  C   UNL     1       3.158   6.569  17.835  0.00  0.00    +0.000 A 
BRANCH  21  24
ATOM     24  S   UNL     1       3.948   3.023  19.594  0.00  0.00    +0.000 S 
ATOM     25  O   UNL     1       5.398   3.122  19.603  0.00  0.00    +0.000 OA
ATOM     26  O   UNL     1       3.256   2.517  20.769  0.00  0.00    +0.000 OA
BRANCH  24  27
ATOM     27  C   UNL     1       3.412   2.087  18.149  0.00  0.00    +0.000 C 
ATOM     28  F   UNL     1       3.857   0.798  18.164  0.00  0.00    +0.000 F 
ATOM     29  F   UNL     1       2.054   2.017  18.035  0.00  0.00    +0.000 F 
ENDBRANCH  24  27
ENDBRANCH  21  24
ENDBRANCH   2  18
TORSDOF 5
ENDMDL
MODEL 5
REMARK VINA RESULT:      -8.2      2.268      2.732
REMARK  Name = 
REMARK  7 active torsions:
REMARK  status: ('A' for Active; 'I' for Inactive)
REMARK    1  A    between atoms: C_1  and  C_2
REMARK    2  A    between atoms: C_4  and  C_5
REMARK    3  A    between atoms: N_6  and  C_7
REMARK    4  A    between atoms: C_11  and  N_12
REMARK    5  A    between atoms: C_13  and  C_15
REMARK    6  A    between atoms: C_18  and  S_19
REMARK    7  A    between atoms: S_19  and  C_22
REMARK                            x       y       z     vdW  Elec       q    Type
REMARK                         _______ _______ _______ _____ _____    ______ ____
ROOT
ATOM      1  N   UNL     1       0.802   9.334  19.486  0.00  0.00    +0.000 N 
ATOM      2  C   UNL     1       1.664   9.095  18.424  0.00  0.00    +0.000 C 
ATOM      3  O   UNL     1       1.782   9.793  17.422  0.00  0.00    +0.000 OA
ATOM      4  H   UNL     1       0.837   8.703  20.276  0.00  0.00    +0.000 HD
ENDROOT
BRANCH   1   9
ATOM      5  C   UNL     1      -2.148  11.546  18.953  0.00  0.00    +0.000 A 
ATOM      6  C   UNL     1      -1.860  12.617  19.810  0.00  0.00    +0.000 A 
ATOM      7  C   UNL     1      -0.704  12.598  20.581  0.00  0.00    +0.000 A 
ATOM      8  C   UNL     1       0.184  11.523  20.491  0.00  0.00    +0.000 A 
ATOM      9  C   UNL     1      -0.055  10.461  19.614  0.00  0.00    +0.000 A 
ATOM     10  C   UNL     1      -1.220  10.495  18.831  0.00  0.00    +0.000 A 
BRANCH   5  16
ATOM     11  C   UNL     1      -6.948  11.853  18.469  0.00  0.00    +0.000 C 
ATOM     12  C   UNL     1      -5.533  11.689  18.057  0.00  0.00    +0.000 A 
ATOM     13  C   UNL     1      -5.033  11.456  16.765  0.00  0.00    +0.000 A 
ATOM     14  C   UNL     1      -3.667  11.334  16.910  0.00  0.00    +0.000 A 
ATOM     15  C   UNL     1      -2.681  10.919  15.883  0.00  0.00    +0.000 C 
ATOM     16  N   UNL     1      -3.396  11.553  18.258  0.00  0.00    +0.000 N 
ATOM     17  N   UNL     1      -4.553  11.717  18.962  0.00  0.00    +0.000 NA
ENDBRANCH   5  16
ENDBRANCH   1   9
BRANCH   2  18
ATOM     18  C   UNL     1       2.559   7.902  18.500  0.00  0.00    +0.000 A 
ATOM     19  C   UNL     1       2.491   6.923  19.499  0.00  0.00    +0.000 A 
ATOM     20  C   UNL     1       3.315   5.788  19.423  0.00  0.00    +0.000 A 
ATOM     21  C   UNL     1       4.203   5.637  18.350  0.00  0.00    +0.000 A 
ATOM     22  C   UNL     1       4.300   6.621  17.368  0.00  0.00    +0.000 A 
ATOM     23  C   UNL     1       3.476   7.741  17.444  0.00  0.00    +0.000 A 
BRANCH  21  24
ATOM     24  S   UNL     1       5.253   4.202  18.228  0.00  0.00    +0.000 S 
ATOM     25  O   UNL     1       5.051   3.452  19.457  0.00  0.00    +0.000 OA
ATOM     26  O   UNL     1       4.969   3.572  16.948  0.00  0.00    +0.000 OA
BRANCH  24  27
ATOM     27  C   UNL     1       6.926   4.873  18.193  0.00  0.00    +0.000 C 
ATOM     28  F   UNL     1       7.284   5.328  16.959  0.00  0.00    +0.000 F 
ATOM     29  F   UNL     1       7.094   5.924  19.047  0.00  0.00    +0.000 F 
ENDBRANCH  24  27
ENDBRANCH  21  24
ENDBRANCH   2  18
TORSDOF 5
ENDMDL
MODEL 6
REMARK VINA RESULT:      -8.2      1.460      1.905
REMARK  Name = 
REMARK  7 active torsions:
REMARK  status: ('A' for Active; 'I' for Inactive)
REMARK    1  A    between atoms: C_1  and  C_2
REMARK    2  A    between atoms: C_4  and  C_5
REMARK    3  A    between atoms: N_6  and  C_7
REMARK    4  A    between atoms: C_11  and  N_12
REMARK    5  A    between atoms: C_13  and  C_15
REMARK    6  A    between atoms: C_18  and  S_19
REMARK    7  A    between atoms: S_19  and  C_22
REMARK                            x       y       z     vdW  Elec       q    Type
REMARK                         _______ _______ _______ _____ _____    ______ ____
ROOT
ATOM      1  N   UNL     1       0.702   9.324  19.240  0.00  0.00    +0.000 N 
ATOM      2  C   UNL     1       1.755   9.118  18.358  0.00  0.00    +0.000 C 
ATOM      3  O   UNL     1       2.164   9.921  17.526  0.00  0.00    +0.000 OA
ATOM      4  H   UNL     1       0.496   8.596  19.910  0.00  0.00    +0.000 HD
ENDROOT
BRANCH   1   9
ATOM      5  C   UNL     1      -2.134  11.712  18.868  0.00  0.00    +0.000 A 
ATOM      6  C   UNL     1      -1.656  12.833  19.561  0.00  0.00    +0.000 A 
ATOM      7  C   UNL     1      -0.408  12.791  20.171  0.00  0.00    +0.000 A 
ATOM      8  C   UNL     1       0.382  11.642  20.079  0.00  0.00    +0.000 A 
ATOM      9  C   UNL     1      -0.049  10.525  19.358  0.00  0.00    +0.000 A 
ATOM     10  C   UNL     1      -1.307  10.581  18.736  0.00  0.00    +0.000 A 
BRANCH   5  16
ATOM     11  C   UNL     1      -6.929  12.306  19.003  0.00  0.00    +0.000 C 
ATOM     12  C   UNL     1      -5.596  12.021  18.420  0.00  0.00    +0.000 A 
ATOM     13  C   UNL     1      -5.292  11.670  17.095  0.00  0.00    +0.000 A 
ATOM     14  C   UNL     1      -3.928  11.467  17.066  0.00  0.00    +0.000 A 
ATOM     15  C   UNL     1      -3.117  10.919  15.951  0.00  0.00    +0.000 C 
ATOM     16  N   UNL     1      -3.463  11.756  18.346  0.00  0.00    +0.000 N 
ATOM     17  N   UNL     1      -4.501  12.043  19.182  0.00  0.00    +0.000 NA
ENDBRANCH   5  16
ENDBRANCH   1   9
BRANCH   2  18
ATOM     18  C   UNL     1       2.491   7.821  18.433  0.00  0.00    +0.000 A 
ATOM     19  C   UNL     1       2.232   6.818  19.376  0.00  0.00    +0.000 A 
ATOM     20  C   UNL     1       2.915   5.592  19.298  0.00  0.00    +0.000 A 
ATOM     21  C   UNL     1       3.853   5.376  18.279  0.00  0.00    +0.000 A 
ATOM     22  C   UNL     1       4.139   6.380  17.356  0.00  0.00    +0.000 A 
ATOM     23  C   UNL     1       3.454   7.590  17.433  0.00  0.00    +0.000 A 
BRANCH  21  24
ATOM     24  S   UNL     1       4.726   3.827  18.155  0.00  0.00    +0.000 S 
ATOM     25  O   UNL     1       5.431   3.865  16.885  0.00  0.00    +0.000 OA
ATOM     26  O   UNL     1       5.478   3.661  19.389  0.00  0.00    +0.000 OA
BRANCH  24  27
ATOM     27  C   UNL     1       3.424   2.582  18.090  0.00  0.00    +0.000 C 
ATOM     28  F   UNL     1       2.456   2.881  17.176  0.00  0.00    +0.000 F 
ATOM     29  F   UNL     1       3.889   1.344  17.758  0.00  0.00    +0.000 F 
ENDBRANCH  24  27
ENDBRANCH  21  24
ENDBRANCH   2  18
TORSDOF 5
ENDMDL
MODEL 7
REMARK VINA RESULT:      -8.2      7.344     10.298
REMARK  Name = 
REMARK  7 active torsions:
REMARK  status: ('A' for Active; 'I' for Inactive)
REMARK    1  A    between atoms: C_1  and  C_2
REMARK    2  A    between atoms: C_4  and  C_5
REMARK    3  A    between atoms: N_6  and  C_7
REMARK    4  A    between atoms: C_11  and  N_12
REMARK    5  A    between atoms: C_13  and  C_15
REMARK    6  A    between atoms: C_18  and  S_19
REMARK    7  A    between atoms: S_19  and  C_22
REMARK                            x       y       z     vdW  Elec       q    Type
REMARK                         _______ _______ _______ _____ _____    ______ ____
ROOT
ATOM      1  N   UNL     1       7.110   7.912  17.220  0.00  0.00    +0.000 N 
ATOM      2  C   UNL     1       8.075   8.191  18.179  0.00  0.00    +0.000 C 
ATOM      3  O   UNL     1       8.578   7.380  18.950  0.00  0.00    +0.000 OA
ATOM      4  H   UNL     1       6.813   8.665  16.615  0.00  0.00    +0.000 HD
ENDROOT
BRANCH   1   9
ATOM      5  C   UNL     1       4.796   4.994  17.341  0.00  0.00    +0.000 A 
ATOM      6  C   UNL     1       5.398   4.115  16.431  0.00  0.00    +0.000 A 
ATOM      7  C   UNL     1       6.554   4.495  15.760  0.00  0.00    +0.000 A 
ATOM      8  C   UNL     1       7.131   5.744  16.004  0.00  0.00    +0.000 A 
ATOM      9  C   UNL     1       6.578   6.624  16.938  0.00  0.00    +0.000 A 
ATOM     10  C   UNL     1       5.417   6.226  17.619  0.00  0.00    +0.000 A 
BRANCH   5  16
ATOM     11  C   UNL     1       1.408   1.943  18.946  0.00  0.00    +0.000 C 
ATOM     12  C   UNL     1       2.052   3.243  18.639  0.00  0.00    +0.000 A 
ATOM     13  C   UNL     1       1.538   4.532  18.853  0.00  0.00    +0.000 A 
ATOM     14  C   UNL     1       2.490   5.400  18.363  0.00  0.00    +0.000 A 
ATOM     15  C   UNL     1       2.374   6.869  18.191  0.00  0.00    +0.000 C 
ATOM     16  N   UNL     1       3.553   4.611  17.930  0.00  0.00    +0.000 N 
ATOM     17  N   UNL     1       3.251   3.287  18.056  0.00  0.00    +0.000 NA
ENDBRANCH   5  16
ENDBRANCH   1   9
BRANCH   2  18
ATOM     18  C   UNL     1       8.584   9.591  18.278  0.00  0.00    +0.000 A 
ATOM     19  C   UNL     1       8.172  10.643  17.450  0.00  0.00    +0.000 A 
ATOM     20  C   UNL     1       8.639  11.946  17.691  0.00  0.00    +0.000 A 
ATOM     21  C   UNL     1       9.515  12.191  18.757  0.00  0.00    +0.000 A 
ATOM     22  C   UNL     1       9.955  11.145  19.566  0.00  0.00    +0.000 A 
ATOM     23  C   UNL     1       9.483   9.857  19.328  0.00  0.00    +0.000 A 
BRANCH  21  24
ATOM     24  S   UNL     1      10.115  13.837  19.087  0.00  0.00    +0.000 S 
ATOM     25  O   UNL     1       9.028  14.737  18.739  0.00  0.00    +0.000 OA
ATOM     26  O   UNL     1      10.642  13.836  20.442  0.00  0.00    +0.000 OA
BRANCH  24  27
ATOM     27  C   UNL     1      11.479  14.056  17.928  0.00  0.00    +0.000 C 
ATOM     28  F   UNL     1      11.974  12.871  17.469  0.00  0.00    +0.000 F 
ATOM     29  F   UNL     1      11.127  14.773  16.822  0.00  0.00    +0.000 F 
ENDBRANCH  24  27
ENDBRANCH  21  24
ENDBRANCH   2  18
TORSDOF 5
ENDMDL
MODEL 8
REMARK VINA RESULT:      -8.1      5.300      9.772
REMARK  Name = 
REMARK  7 active torsions:
REMARK  status: ('A' for Active; 'I' for Inactive)
REMARK    1  A    between atoms: C_1  and  C_2
REMARK    2  A    between atoms: C_4  and  C_5
REMARK    3  A    between atoms: N_6  and  C_7
REMARK    4  A    between atoms: C_11  and  N_12
REMARK    5  A    between atoms: C_13  and  C_15
REMARK    6  A    between atoms: C_18  and  S_19
REMARK    7  A    between atoms: S_19  and  C_22
REMARK                            x       y       z     vdW  Elec       q    Type
REMARK                         _______ _______ _______ _____ _____    ______ ____
ROOT
ATOM      1  N   UNL     1       2.283   6.709  20.435  0.00  0.00    +0.000 N 
ATOM      2  C   UNL     1       1.882   7.784  19.652  0.00  0.00    +0.000 C 
ATOM      3  O   UNL     1       2.013   7.875  18.435  0.00  0.00    +0.000 OA
ATOM      4  H   UNL     1       2.073   6.739  21.424  0.00  0.00    +0.000 HD
ENDROOT
BRANCH   1   9
ATOM      5  C   UNL     1       4.409   4.461  18.359  0.00  0.00    +0.000 A 
ATOM      6  C   UNL     1       4.133   3.207  18.921  0.00  0.00    +0.000 A 
ATOM      7  C   UNL     1       3.263   3.108  20.000  0.00  0.00    +0.000 A 
ATOM      8  C   UNL     1       2.646   4.251  20.515  0.00  0.00    +0.000 A 
ATOM      9  C   UNL     1       2.869   5.508  19.948  0.00  0.00    +0.000 A 
ATOM     10  C   UNL     1       3.741   5.598  18.852  0.00  0.00    +0.000 A 
BRANCH   5  16
ATOM     11  C   UNL     1       6.200   3.882  13.907  0.00  0.00    +0.000 C 
ATOM     12  C   UNL     1       6.174   4.272  15.338  0.00  0.00    +0.000 A 
ATOM     13  C   UNL     1       7.210   4.841  16.095  0.00  0.00    +0.000 A 
ATOM     14  C   UNL     1       6.710   4.973  17.373  0.00  0.00    +0.000 A 
ATOM     15  C   UNL     1       7.447   5.366  18.599  0.00  0.00    +0.000 C 
ATOM     16  N   UNL     1       5.389   4.536  17.322  0.00  0.00    +0.000 N 
ATOM     17  N   UNL     1       5.087   4.058  16.081  0.00  0.00    +0.000 NA
ENDBRANCH   5  16
ENDBRANCH   1   9
BRANCH   2  18
ATOM     18  C   UNL     1       1.201   8.929  20.324  0.00  0.00    +0.000 A 
ATOM     19  C   UNL     1       1.098  10.217  19.784  0.00  0.00    +0.000 A 
ATOM     20  C   UNL     1       0.349  11.199  20.454  0.00  0.00    +0.000 A 
ATOM     21  C   UNL     1      -0.292  10.889  21.660  0.00  0.00    +0.000 A 
ATOM     22  C   UNL     1      -0.169   9.620  22.221  0.00  0.00    +0.000 A 
ATOM     23  C   UNL     1       0.568   8.648  21.550  0.00  0.00    +0.000 A 
BRANCH  21  24
ATOM     24  S   UNL     1      -1.254  12.115  22.525  0.00  0.00    +0.000 S 
ATOM     25  O   UNL     1      -2.131  11.379  23.421  0.00  0.00    +0.000 OA
ATOM     26  O   UNL     1      -0.318  13.085  23.072  0.00  0.00    +0.000 OA
BRANCH  24  27
ATOM     27  C   UNL     1      -2.232  12.909  21.235  0.00  0.00    +0.000 C 
ATOM     28  F   UNL     1      -1.527  13.849  20.544  0.00  0.00    +0.000 F 
ATOM     29  F   UNL     1      -2.699  12.026  20.304  0.00  0.00    +0.000 F 
ENDBRANCH  24  27
ENDBRANCH  21  24
ENDBRANCH   2  18
TORSDOF 5
ENDMDL
MODEL 9
REMARK VINA RESULT:      -8.1      2.114      2.413
REMARK  Name = 
REMARK  7 active torsions:
REMARK  status: ('A' for Active; 'I' for Inactive)
REMARK    1  A    between atoms: C_1  and  C_2
REMARK    2  A    between atoms: C_4  and  C_5
REMARK    3  A    between atoms: N_6  and  C_7
REMARK    4  A    between atoms: C_11  and  N_12
REMARK    5  A    between atoms: C_13  and  C_15
REMARK    6  A    between atoms: C_18  and  S_19
REMARK    7  A    between atoms: S_19  and  C_22
REMARK                            x       y       z     vdW  Elec       q    Type
REMARK                         _______ _______ _______ _____ _____    ______ ____
ROOT
ATOM      1  N   UNL     1       0.770   9.218  19.162  0.00  0.00    +0.000 N 
ATOM      2  C   UNL     1       1.794   9.228  18.225  0.00  0.00    +0.000 C 
ATOM      3  O   UNL     1       2.074  10.158  17.475  0.00  0.00    +0.000 OA
ATOM      4  H   UNL     1       0.675   8.403  19.752  0.00  0.00    +0.000 HD
ENDROOT
BRANCH   1   9
ATOM      5  C   UNL     1      -2.197  11.461  18.932  0.00  0.00    +0.000 A 
ATOM      6  C   UNL     1      -1.925  12.399  19.937  0.00  0.00    +0.000 A 
ATOM      7  C   UNL     1      -0.774  12.276  20.706  0.00  0.00    +0.000 A 
ATOM      8  C   UNL     1       0.124  11.233  20.468  0.00  0.00    +0.000 A 
ATOM      9  C   UNL     1      -0.099  10.308  19.445  0.00  0.00    +0.000 A 
ATOM     10  C   UNL     1      -1.259  10.446  18.666  0.00  0.00    +0.000 A 
BRANCH   5  16
ATOM     11  C   UNL     1      -6.964  12.097  18.443  0.00  0.00    +0.000 C 
ATOM     12  C   UNL     1      -5.562  11.841  18.031  0.00  0.00    +0.000 A 
ATOM     13  C   UNL     1      -5.077  11.586  16.739  0.00  0.00    +0.000 A 
ATOM     14  C   UNL     1      -3.723  11.370  16.885  0.00  0.00    +0.000 A 
ATOM     15  C   UNL     1      -2.765  10.898  15.856  0.00  0.00    +0.000 C 
ATOM     16  N   UNL     1      -3.441  11.558  18.235  0.00  0.00    +0.000 N 
ATOM     17  N   UNL     1      -4.585  11.794  18.938  0.00  0.00    +0.000 NA
ENDBRANCH   5  16
ENDBRANCH   1   9
BRANCH   2  18
ATOM     18  C   UNL     1       2.667   8.021  18.124  0.00  0.00    +0.000 A 
ATOM     19  C   UNL     1       3.673   7.850  17.164  0.00  0.00    +0.000 A 
ATOM     20  C   UNL     1       4.505   6.719  17.218  0.00  0.00    +0.000 A 
ATOM     21  C   UNL     1       4.327   5.766  18.230  0.00  0.00    +0.000 A 
ATOM     22  C   UNL     1       3.309   5.912  19.169  0.00  0.00    +0.000 A 
ATOM     23  C   UNL     1       2.492   7.039  19.116  0.00  0.00    +0.000 A 
BRANCH  21  24
ATOM     24  S   UNL     1       5.375   4.327  18.323  0.00  0.00    +0.000 S 
ATOM     25  O   UNL     1       6.249   4.540  19.465  0.00  0.00    +0.000 OA
ATOM     26  O   UNL     1       4.505   3.162  18.292  0.00  0.00    +0.000 OA
BRANCH  24  27
ATOM     27  C   UNL     1       6.341   4.377  16.801  0.00  0.00    +0.000 C 
ATOM     28  F   UNL     1       7.677   4.211  17.021  0.00  0.00    +0.000 F 
ATOM     29  F   UNL     1       5.980   3.409  15.911  0.00  0.00    +0.000 F 
ENDBRANCH  24  27
ENDBRANCH  21  24
ENDBRANCH   2  18
TORSDOF 5
ENDMDL
