MODEL 1
REMARK VINA RESULT:      -8.5      0.000      0.000
REMARK  Name = 
REMARK  5 active torsions:
REMARK  status: ('A' for Active; 'I' for Inactive)
REMARK    1  A    between atoms: C_1  and  C_2
REMARK    2  A    between atoms: C_2  and  N_3
REMARK    3  A    between atoms: C_4  and  C_6
REMARK    4  A    between atoms: C_6  and  N_7
REMARK    5  A    between atoms: C_8  and  C_10
REMARK                            x       y       z     vdW  Elec       q    Type
REMARK                         _______ _______ _______ _____ _____    ______ ____
ROOT
ATOM      1  N   UNL     1       2.873   6.963  17.881  0.00  0.00    +0.000 N 
ATOM      2  C   UNL     1       2.309   7.933  18.690  0.00  0.00    +0.000 C 
ATOM      3  O   UNL     1       1.984   7.746  19.861  0.00  0.00    +0.000 OA
ATOM      4  H   UNL     1       3.394   7.299  17.072  0.00  0.00    +0.000 HD
ENDROOT
BRANCH   1   6
ATOM      5  C   UNL     1       1.753   4.936  18.726  0.00  0.00    +0.000 C 
ATOM      6  C   UNL     1       3.097   5.565  18.326  0.00  0.00    +0.000 C 
ATOM      7  C   UNL     1       4.145   5.489  19.479  0.00  0.00    +0.000 C 
ATOM      8  C   UNL     1       5.431   5.266  18.735  0.00  0.00    +0.000 A 
ATOM      9  C   UNL     1       6.726   5.393  19.215  0.00  0.00    +0.000 A 
ATOM     10  C   UNL     1       7.782   5.068  18.367  0.00  0.00    +0.000 A 
ATOM     11  C   UNL     1       7.539   4.606  17.064  0.00  0.00    +0.000 A 
ATOM     12  C   UNL     1       6.232   4.470  16.594  0.00  0.00    +0.000 A 
ATOM     13  C   UNL     1       5.188   4.819  17.436  0.00  0.00    +0.000 A 
ATOM     14  C   UNL     1       3.719   4.714  17.171  0.00  0.00    +0.000 C 
ENDBRANCH   1   6
BRANCH   2  15
ATOM     15  C   UNL     1       2.181   9.312  18.045  0.00  0.00    +0.000 C 
BRANCH  15  16
ATOM     16  N   UNL     1       0.803   9.577  17.679  0.00  0.00    +0.000 N 
ATOM     17  C   UNL     1      -0.014  10.307  18.510  0.00  0.00    +0.000 C 
ATOM     18  O   UNL     1       0.378  10.786  19.569  0.00  0.00    +0.000 OA
ATOM     19  H   UNL     1       0.471   9.204  16.802  0.00  0.00    +0.000 HD
BRANCH  17  20
ATOM     20  C   UNL     1      -1.414  10.524  18.056  0.00  0.00    +0.000 A 
ATOM     21  C   UNL     1      -1.949   9.865  16.936  0.00  0.00    +0.000 A 
ATOM     22  C   UNL     1      -3.281  10.083  16.566  0.00  0.00    +0.000 A 
ATOM     23  C   UNL     1      -4.070  10.951  17.314  0.00  0.00    +0.000 A 
ATOM     24  F   UNL     1      -5.345  11.149  16.959  0.00  0.00    +0.000 F 
ATOM     25  C   UNL     1      -3.542  11.600  18.426  0.00  0.00    +0.000 A 
ATOM     26  F   UNL     1      -4.308  12.431  19.145  0.00  0.00    +0.000 F 
ATOM     27  C   UNL     1      -2.221  11.390  18.805  0.00  0.00    +0.000 A 
ENDBRANCH  17  20
ENDBRANCH  15  16
ENDBRANCH   2  15
TORSDOF 4
ENDMDL
MODEL 2
REMARK VINA RESULT:      -8.2      5.694      8.426
REMARK  Name = 
REMARK  5 active torsions:
REMARK  status: ('A' for Active; 'I' for Inactive)
REMARK    1  A    between atoms: C_1  and  C_2
REMARK    2  A    between atoms: C_2  and  N_3
REMARK    3  A    between atoms: C_4  and  C_6
REMARK    4  A    between atoms: C_6  and  N_7
REMARK    5  A    between atoms: C_8  and  C_10
REMARK                            x       y       z     vdW  Elec       q    Type
REMARK                         _______ _______ _______ _____ _____    ______ ____
ROOT
ATOM      1  N   UNL     1       4.368   6.520  18.263  0.00  0.00    +0.000 N 
ATOM      2  C   UNL     1       5.003   6.724  17.052  0.00  0.00    +0.000 C 
ATOM      3  O   UNL     1       4.416   6.998  16.006  0.00  0.00    +0.000 OA
ATOM      4  H   UNL     1       4.944   6.628  19.097  0.00  0.00    +0.000 HD
ENDROOT
BRANCH   1   6
ATOM      5  C   UNL     1       2.349   7.871  17.847  0.00  0.00    +0.000 C 
ATOM      6  C   UNL     1       2.893   6.554  18.422  0.00  0.00    +0.000 C 
ATOM      7  C   UNL     1       2.470   6.345  19.909  0.00  0.00    +0.000 C 
ATOM      8  C   UNL     1       2.261   4.860  19.983  0.00  0.00    +0.000 A 
ATOM      9  C   UNL     1       2.144   4.071  21.117  0.00  0.00    +0.000 A 
ATOM     10  C   UNL     1       1.883   2.712  20.956  0.00  0.00    +0.000 A 
ATOM     11  C   UNL     1       1.724   2.160  19.676  0.00  0.00    +0.000 A 
ATOM     12  C   UNL     1       1.831   2.963  18.540  0.00  0.00    +0.000 A 
ATOM     13  C   UNL     1       2.116   4.309  18.709  0.00  0.00    +0.000 A 
ATOM     14  C   UNL     1       2.230   5.364  17.653  0.00  0.00    +0.000 C 
ENDBRANCH   1   6
BRANCH   2  15
ATOM     15  C   UNL     1       6.528   6.661  17.108  0.00  0.00    +0.000 C 
BRANCH  15  16
ATOM     16  N   UNL     1       7.086   7.984  17.311  0.00  0.00    +0.000 N 
ATOM     17  C   UNL     1       8.078   8.192  18.240  0.00  0.00    +0.000 C 
ATOM     18  O   UNL     1       8.553   7.284  18.914  0.00  0.00    +0.000 OA
ATOM     19  H   UNL     1       6.716   8.739  16.751  0.00  0.00    +0.000 HD
BRANCH  17  20
ATOM     20  C   UNL     1       8.584   9.583  18.384  0.00  0.00    +0.000 A 
ATOM     21  C   UNL     1       8.230  10.606  17.488  0.00  0.00    +0.000 A 
ATOM     22  C   UNL     1       8.712  11.905  17.683  0.00  0.00    +0.000 A 
ATOM     23  C   UNL     1       9.539  12.177  18.769  0.00  0.00    +0.000 A 
ATOM     24  F   UNL     1       9.991  13.423  18.953  0.00  0.00    +0.000 F 
ATOM     25  C   UNL     1       9.887  11.166  19.659  0.00  0.00    +0.000 A 
ATOM     26  F   UNL     1      10.679  11.434  20.705  0.00  0.00    +0.000 F 
ATOM     27  C   UNL     1       9.412   9.871  19.477  0.00  0.00    +0.000 A 
ENDBRANCH  17  20
ENDBRANCH  15  16
ENDBRANCH   2  15
TORSDOF 4
ENDMDL
MODEL 3
REMARK VINA RESULT:      -8.1      1.441      1.548
REMARK  Name = 
REMARK  5 active torsions:
REMARK  status: ('A' for Active; 'I' for Inactive)
REMARK    1  A    between atoms: C_1  and  C_2
REMARK    2  A    between atoms: C_2  and  N_3
REMARK    3  A    between atoms: C_4  and  C_6
REMARK    4  A    between atoms: C_6  and  N_7
REMARK    5  A    between atoms: C_8  and  C_10
REMARK                            x       y       z     vdW  Elec       q    Type
REMARK                         _______ _______ _______ _____ _____    ______ ____
ROOT
ATOM      1  N   UNL     1       2.633   7.111  19.224  0.00  0.00    +0.000 N 
ATOM      2  C   UNL     1       1.858   7.009  20.365  0.00  0.00    +0.000 C 
ATOM      3  O   UNL     1       1.524   5.940  20.874  0.00  0.00    +0.000 OA
ATOM      4  H   UNL     1       3.115   7.998  19.084  0.00  0.00    +0.000 HD
ENDROOT
BRANCH   1   6
ATOM      5  C   UNL     1       1.886   5.112  17.988  0.00  0.00    +0.000 C 
ATOM      6  C   UNL     1       3.100   5.932  18.453  0.00  0.00    +0.000 C 
ATOM      7  C   UNL     1       4.109   5.071  19.274  0.00  0.00    +0.000 C 
ATOM      8  C   UNL     1       5.436   5.640  18.860  0.00  0.00    +0.000 A 
ATOM      9  C   UNL     1       6.669   5.456  19.466  0.00  0.00    +0.000 A 
ATOM     10  C   UNL     1       7.792   6.025  18.871  0.00  0.00    +0.000 A 
ATOM     11  C   UNL     1       7.679   6.752  17.676  0.00  0.00    +0.000 A 
ATOM     12  C   UNL     1       6.436   6.922  17.066  0.00  0.00    +0.000 A 
ATOM     13  C   UNL     1       5.321   6.374  17.678  0.00  0.00    +0.000 A 
ATOM     14  C   UNL     1       3.905   6.385  17.191  0.00  0.00    +0.000 C 
ENDBRANCH   1   6
BRANCH   2  15
ATOM     15  C   UNL     1       1.497   8.342  21.016  0.00  0.00    +0.000 C 
BRANCH  15  16
ATOM     16  N   UNL     1       0.331   8.922  20.378  0.00  0.00    +0.000 N 
ATOM     17  C   UNL     1       0.471   9.808  19.336  0.00  0.00    +0.000 C 
ATOM     18  O   UNL     1       1.565  10.128  18.882  0.00  0.00    +0.000 OA
ATOM     19  H   UNL     1      -0.577   8.656  20.730  0.00  0.00    +0.000 HD
BRANCH  17  20
ATOM     20  C   UNL     1      -0.780  10.357  18.748  0.00  0.00    +0.000 A 
ATOM     21  C   UNL     1      -1.281   9.919  17.510  0.00  0.00    +0.000 A 
ATOM     22  C   UNL     1      -2.477  10.448  17.013  0.00  0.00    +0.000 A 
ATOM     23  C   UNL     1      -3.166  11.406  17.751  0.00  0.00    +0.000 A 
ATOM     24  F   UNL     1      -4.313  11.904  17.272  0.00  0.00    +0.000 F 
ATOM     25  C   UNL     1      -2.672  11.838  18.977  0.00  0.00    +0.000 A 
ATOM     26  F   UNL     1      -3.342  12.757  19.686  0.00  0.00    +0.000 F 
ATOM     27  C   UNL     1      -1.486  11.318  19.484  0.00  0.00    +0.000 A 
ENDBRANCH  17  20
ENDBRANCH  15  16
ENDBRANCH   2  15
TORSDOF 4
ENDMDL
MODEL 4
REMARK VINA RESULT:      -8.1      6.111      8.936
REMARK  Name = 
REMARK  5 active torsions:
REMARK  status: ('A' for Active; 'I' for Inactive)
REMARK    1  A    between atoms: C_1  and  C_2
REMARK    2  A    between atoms: C_2  and  N_3
REMARK    3  A    between atoms: C_4  and  C_6
REMARK    4  A    between atoms: C_6  and  N_7
REMARK    5  A    between atoms: C_8  and  C_10
REMARK                            x       y       z     vdW  Elec       q    Type
REMARK                         _______ _______ _______ _____ _____    ______ ____
ROOT
ATOM      1  N   UNL     1       4.629   5.425  17.760  0.00  0.00    +0.000 N 
ATOM      2  C   UNL     1       5.808   5.317  18.476  0.00  0.00    +0.000 C 
ATOM      3  O   UNL     1       5.931   5.659  19.650  0.00  0.00    +0.000 OA
ATOM      4  H   UNL     1       4.544   4.828  16.939  0.00  0.00    +0.000 HD
ENDROOT
BRANCH   1   6
ATOM      5  C   UNL     1       3.311   7.503  17.910  0.00  0.00    +0.000 C 
ATOM      6  C   UNL     1       3.392   6.024  18.320  0.00  0.00    +0.000 C 
ATOM      7  C   UNL     1       3.313   5.839  19.867  0.00  0.00    +0.000 C 
ATOM      8  C   UNL     1       2.539   4.560  20.004  0.00  0.00    +0.000 A 
ATOM      9  C   UNL     1       2.400   3.764  21.130  0.00  0.00    +0.000 A 
ATOM     10  C   UNL     1       1.572   2.646  21.054  0.00  0.00    +0.000 A 
ATOM     11  C   UNL     1       0.881   2.345  19.871  0.00  0.00    +0.000 A 
ATOM     12  C   UNL     1       1.016   3.159  18.746  0.00  0.00    +0.000 A 
ATOM     13  C   UNL     1       1.862   4.254  18.822  0.00  0.00    +0.000 A 
ATOM     14  C   UNL     1       2.127   5.286  17.770  0.00  0.00    +0.000 C 
ENDBRANCH   1   6
BRANCH   2  15
ATOM     15  C   UNL     1       6.959   4.656  17.719  0.00  0.00    +0.000 C 
BRANCH  15  16
ATOM     16  N   UNL     1       6.493   4.106  16.461  0.00  0.00    +0.000 N 
ATOM     17  C   UNL     1       6.825   4.705  15.269  0.00  0.00    +0.000 C 
ATOM     18  O   UNL     1       7.540   5.700  15.205  0.00  0.00    +0.000 OA
ATOM     19  H   UNL     1       5.917   3.278  16.497  0.00  0.00    +0.000 HD
BRANCH  17  20
ATOM     20  C   UNL     1       6.297   4.075  14.029  0.00  0.00    +0.000 A 
ATOM     21  C   UNL     1       4.921   3.995  13.758  0.00  0.00    +0.000 A 
ATOM     22  C   UNL     1       4.476   3.417  12.564  0.00  0.00    +0.000 A 
ATOM     23  C   UNL     1       5.402   2.925  11.649  0.00  0.00    +0.000 A 
ATOM     24  F   UNL     1       4.970   2.378  10.507  0.00  0.00    +0.000 F 
ATOM     25  C   UNL     1       6.765   3.007  11.916  0.00  0.00    +0.000 A 
ATOM     26  F   UNL     1       7.653   2.536  11.031  0.00  0.00    +0.000 F 
ATOM     27  C   UNL     1       7.220   3.582  13.098  0.00  0.00    +0.000 A 
ENDBRANCH  17  20
ENDBRANCH  15  16
ENDBRANCH   2  15
TORSDOF 4
ENDMDL
MODEL 5
REMARK VINA RESULT:      -8.0      1.562      2.030
REMARK  Name = 
REMARK  5 active torsions:
REMARK  status: ('A' for Active; 'I' for Inactive)
REMARK    1  A    between atoms: C_1  and  C_2
REMARK    2  A    between atoms: C_2  and  N_3
REMARK    3  A    between atoms: C_4  and  C_6
REMARK    4  A    between atoms: C_6  and  N_7
REMARK    5  A    between atoms: C_8  and  C_10
REMARK                            x       y       z     vdW  Elec       q    Type
REMARK                         _______ _______ _______ _____ _____    ______ ____
ROOT
ATOM      1  N   UNL     1       2.621   6.931  19.240  0.00  0.00    +0.000 N 
ATOM      2  C   UNL     1       1.819   6.832  20.363  0.00  0.00    +0.000 C 
ATOM      3  O   UNL     1       1.499   5.765  20.885  0.00  0.00    +0.000 OA
ATOM      4  H   UNL     1       3.084   7.827  19.095  0.00  0.00    +0.000 HD
ENDROOT
BRANCH   1   6
ATOM      5  C   UNL     1       1.963   4.858  18.080  0.00  0.00    +0.000 C 
ATOM      6  C   UNL     1       3.139   5.750  18.507  0.00  0.00    +0.000 C 
ATOM      7  C   UNL     1       4.193   4.965  19.349  0.00  0.00    +0.000 C 
ATOM      8  C   UNL     1       5.489   5.582  18.906  0.00  0.00    +0.000 A 
ATOM      9  C   UNL     1       6.733   5.477  19.510  0.00  0.00    +0.000 A 
ATOM     10  C   UNL     1       7.824   6.078  18.887  0.00  0.00    +0.000 A 
ATOM     11  C   UNL     1       7.670   6.757  17.669  0.00  0.00    +0.000 A 
ATOM     12  C   UNL     1       6.417   6.847  17.062  0.00  0.00    +0.000 A 
ATOM     13  C   UNL     1       5.332   6.268  17.701  0.00  0.00    +0.000 A 
ATOM     14  C   UNL     1       3.915   6.196  17.224  0.00  0.00    +0.000 C 
ENDBRANCH   1   6
BRANCH   2  15
ATOM     15  C   UNL     1       1.406   8.168  20.976  0.00  0.00    +0.000 C 
BRANCH  15  16
ATOM     16  N   UNL     1       0.280   8.733  20.258  0.00  0.00    +0.000 N 
ATOM     17  C   UNL     1       0.388   9.953  19.633  0.00  0.00    +0.000 C 
ATOM     18  O   UNL     1       1.428  10.603  19.627  0.00  0.00    +0.000 OA
ATOM     19  H   UNL     1      -0.578   8.201  20.240  0.00  0.00    +0.000 HD
BRANCH  17  20
ATOM     20  C   UNL     1      -0.821  10.456  18.927  0.00  0.00    +0.000 A 
ATOM     21  C   UNL     1      -1.630  11.474  19.459  0.00  0.00    +0.000 A 
ATOM     22  C   UNL     1      -2.741  11.931  18.742  0.00  0.00    +0.000 A 
ATOM     23  C   UNL     1      -3.037  11.374  17.502  0.00  0.00    +0.000 A 
ATOM     24  F   UNL     1      -4.098  11.821  16.818  0.00  0.00    +0.000 F 
ATOM     25  C   UNL     1      -2.235  10.369  16.973  0.00  0.00    +0.000 A 
ATOM     26  F   UNL     1      -2.522   9.840  15.776  0.00  0.00    +0.000 F 
ATOM     27  C   UNL     1      -1.126   9.908  17.675  0.00  0.00    +0.000 A 
ENDBRANCH  17  20
ENDBRANCH  15  16
ENDBRANCH   2  15
TORSDOF 4
ENDMDL
MODEL 6
REMARK VINA RESULT:      -7.9      5.317      8.180
REMARK  Name = 
REMARK  5 active torsions:
REMARK  status: ('A' for Active; 'I' for Inactive)
REMARK    1  A    between atoms: C_1  and  C_2
REMARK    2  A    between atoms: C_2  and  N_3
REMARK    3  A    between atoms: C_4  and  C_6
REMARK    4  A    between atoms: C_6  and  N_7
REMARK    5  A    between atoms: C_8  and  C_10
REMARK                            x       y       z     vdW  Elec       q    Type
REMARK                         _______ _______ _______ _____ _____    ______ ____
ROOT
ATOM      1  N   UNL     1       4.580   6.615  18.153  0.00  0.00    +0.000 N 
ATOM      2  C   UNL     1       5.238   6.333  16.970  0.00  0.00    +0.000 C 
ATOM      3  O   UNL     1       4.668   6.126  15.900  0.00  0.00    +0.000 OA
ATOM      4  H   UNL     1       5.128   7.083  18.873  0.00  0.00    +0.000 HD
ENDROOT
BRANCH   1   6
ATOM      5  C   UNL     1       2.553   7.880  17.545  0.00  0.00    +0.000 C 
ATOM      6  C   UNL     1       3.101   6.642  18.272  0.00  0.00    +0.000 C 
ATOM      7  C   UNL     1       2.642   6.588  19.763  0.00  0.00    +0.000 C 
ATOM      8  C   UNL     1       2.452   5.116  19.992  0.00  0.00    +0.000 A 
ATOM      9  C   UNL     1       2.318   4.452  21.202  0.00  0.00    +0.000 A 
ATOM     10  C   UNL     1       2.080   3.080  21.182  0.00  0.00    +0.000 A 
ATOM     11  C   UNL     1       1.961   2.390  19.966  0.00  0.00    +0.000 A 
ATOM     12  C   UNL     1       2.086   3.068  18.753  0.00  0.00    +0.000 A 
ATOM     13  C   UNL     1       2.348   4.429  18.782  0.00  0.00    +0.000 A 
ATOM     14  C   UNL     1       2.474   5.366  17.621  0.00  0.00    +0.000 C 
ENDBRANCH   1   6
BRANCH   2  15
ATOM     15  C   UNL     1       6.762   6.371  17.059  0.00  0.00    +0.000 C 
BRANCH  15  16
ATOM     16  N   UNL     1       7.229   7.732  17.237  0.00  0.00    +0.000 N 
ATOM     17  C   UNL     1       8.101   8.048  18.252  0.00  0.00    +0.000 C 
ATOM     18  O   UNL     1       8.542   7.208  19.029  0.00  0.00    +0.000 OA
ATOM     19  H   UNL     1       6.887   8.433  16.594  0.00  0.00    +0.000 HD
BRANCH  17  20
ATOM     20  C   UNL     1       8.519   9.471  18.362  0.00  0.00    +0.000 A 
ATOM     21  C   UNL     1       9.519   9.891  19.256  0.00  0.00    +0.000 A 
ATOM     22  C   UNL     1       9.896  11.237  19.301  0.00  0.00    +0.000 A 
ATOM     23  C   UNL     1       9.278  12.155  18.457  0.00  0.00    +0.000 A 
ATOM     24  F   UNL     1       9.648  13.440  18.501  0.00  0.00    +0.000 F 
ATOM     25  C   UNL     1       8.291  11.739  17.569  0.00  0.00    +0.000 A 
ATOM     26  F   UNL     1       7.702  12.625  16.755  0.00  0.00    +0.000 F 
ATOM     27  C   UNL     1       7.909  10.403  17.513  0.00  0.00    +0.000 A 
ENDBRANCH  17  20
ENDBRANCH  15  16
ENDBRANCH   2  15
TORSDOF 4
ENDMDL
MODEL 7
REMARK VINA RESULT:      -7.9      1.830      3.480
REMARK  Name = 
REMARK  5 active torsions:
REMARK  status: ('A' for Active; 'I' for Inactive)
REMARK    1  A    between atoms: C_1  and  C_2
REMARK    2  A    between atoms: C_2  and  N_3
REMARK    3  A    between atoms: C_4  and  C_6
REMARK    4  A    between atoms: C_6  and  N_7
REMARK    5  A    between atoms: C_8  and  C_10
REMARK                            x       y       z     vdW  Elec       q    Type
REMARK                         _______ _______ _______ _____ _____    ______ ____
ROOT
ATOM      1  N   UNL     1       2.627   7.385  19.069  0.00  0.00    +0.000 N 
ATOM      2  C   UNL     1       2.287   8.468  18.277  0.00  0.00    +0.000 C 
ATOM      3  O   UNL     1       2.451   8.504  17.058  0.00  0.00    +0.000 OA
ATOM      4  H   UNL     1       2.161   7.324  19.973  0.00  0.00    +0.000 HD
ENDROOT
BRANCH   1   6
ATOM      5  C   UNL     1       4.405   6.571  17.568  0.00  0.00    +0.000 C 
ATOM      6  C   UNL     1       3.284   6.166  18.537  0.00  0.00    +0.000 C 
ATOM      7  C   UNL     1       2.253   5.202  17.870  0.00  0.00    +0.000 C 
ATOM      8  C   UNL     1       1.881   4.289  19.002  0.00  0.00    +0.000 A 
ATOM      9  C   UNL     1       0.807   3.414  19.073  0.00  0.00    +0.000 A 
ATOM     10  C   UNL     1       0.688   2.602  20.199  0.00  0.00    +0.000 A 
ATOM     11  C   UNL     1       1.641   2.657  21.227  0.00  0.00    +0.000 A 
ATOM     12  C   UNL     1       2.725   3.532  21.142  0.00  0.00    +0.000 A 
ATOM     13  C   UNL     1       2.823   4.353  20.030  0.00  0.00    +0.000 A 
ATOM     14  C   UNL     1       3.910   5.327  19.699  0.00  0.00    +0.000 C 
ENDBRANCH   1   6
BRANCH   2  15
ATOM     15  C   UNL     1       1.607   9.616  19.018  0.00  0.00    +0.000 C 
BRANCH  15  16
ATOM     16  N   UNL     1       0.336   9.940  18.401  0.00  0.00    +0.000 N 
ATOM     17  C   UNL     1      -0.715  10.402  19.159  0.00  0.00    +0.000 C 
ATOM     18  O   UNL     1      -0.626  10.587  20.369  0.00  0.00    +0.000 OA
ATOM     19  H   UNL     1       0.252   9.808  17.403  0.00  0.00    +0.000 HD
BRANCH  17  20
ATOM     20  C   UNL     1      -1.983  10.701  18.441  0.00  0.00    +0.000 A 
ATOM     21  C   UNL     1      -2.938  11.597  18.950  0.00  0.00    +0.000 A 
ATOM     22  C   UNL     1      -4.102  11.865  18.222  0.00  0.00    +0.000 A 
ATOM     23  C   UNL     1      -4.307  11.242  16.995  0.00  0.00    +0.000 A 
ATOM     24  F   UNL     1      -5.420  11.507  16.301  0.00  0.00    +0.000 F 
ATOM     25  C   UNL     1      -3.360  10.357  16.489  0.00  0.00    +0.000 A 
ATOM     26  F   UNL     1      -3.559   9.763  15.305  0.00  0.00    +0.000 F 
ATOM     27  C   UNL     1      -2.197  10.084  17.202  0.00  0.00    +0.000 A 
ENDBRANCH  17  20
ENDBRANCH  15  16
ENDBRANCH   2  15
TORSDOF 4
ENDMDL
MODEL 8
REMARK VINA RESULT:      -7.8      6.796      9.200
REMARK  Name = 
REMARK  5 active torsions:
REMARK  status: ('A' for Active; 'I' for Inactive)
REMARK    1  A    between atoms: C_1  and  C_2
REMARK    2  A    between atoms: C_2  and  N_3
REMARK    3  A    between atoms: C_4  and  C_6
REMARK    4  A    between atoms: C_6  and  N_7
REMARK    5  A    between atoms: C_8  and  C_10
REMARK                            x       y       z     vdW  Elec       q    Type
REMARK                         _______ _______ _______ _____ _____    ______ ____
ROOT
ATOM      1  N   UNL     1       7.214   6.392  18.362  0.00  0.00    +0.000 N 
ATOM      2  C   UNL     1       7.725   7.596  17.914  0.00  0.00    +0.000 C 
ATOM      3  O   UNL     1       7.424   8.112  16.838  0.00  0.00    +0.000 OA
ATOM      4  H   UNL     1       7.263   6.228  19.367  0.00  0.00    +0.000 HD
ENDROOT
BRANCH   1   6
ATOM      5  C   UNL     1       7.051   4.909  16.399  0.00  0.00    +0.000 C 
ATOM      6  C   UNL     1       6.284   5.557  17.562  0.00  0.00    +0.000 C 
ATOM      7  C   UNL     1       5.054   6.381  17.066  0.00  0.00    +0.000 C 
ATOM      8  C   UNL     1       4.044   6.144  18.151  0.00  0.00    +0.000 A 
ATOM      9  C   UNL     1       2.868   6.840  18.387  0.00  0.00    +0.000 A 
ATOM     10  C   UNL     1       2.036   6.405  19.416  0.00  0.00    +0.000 A 
ATOM     11  C   UNL     1       2.373   5.280  20.184  0.00  0.00    +0.000 A 
ATOM     12  C   UNL     1       3.552   4.579  19.932  0.00  0.00    +0.000 A 
ATOM     13  C   UNL     1       4.386   5.033  18.922  0.00  0.00    +0.000 A 
ATOM     14  C   UNL     1       5.667   4.422  18.444  0.00  0.00    +0.000 C 
ENDBRANCH   1   6
BRANCH   2  15
ATOM     15  C   UNL     1       8.654   8.305  18.898  0.00  0.00    +0.000 C 
BRANCH  15  16
ATOM     16  N   UNL     1       8.978   9.637  18.425  0.00  0.00    +0.000 N 
ATOM     17  C   UNL     1       9.280  10.642  19.313  0.00  0.00    +0.000 C 
ATOM     18  O   UNL     1       9.317  10.463  20.526  0.00  0.00    +0.000 OA
ATOM     19  H   UNL     1       8.967   9.795  17.428  0.00  0.00    +0.000 HD
BRANCH  17  20
ATOM     20  C   UNL     1       9.592  11.977  18.737  0.00  0.00    +0.000 A 
ATOM     21  C   UNL     1       9.068  13.166  19.273  0.00  0.00    +0.000 A 
ATOM     22  C   UNL     1       9.415  14.399  18.711  0.00  0.00    +0.000 A 
ATOM     23  C   UNL     1      10.281  14.441  17.623  0.00  0.00    +0.000 A 
ATOM     24  F   UNL     1      10.613  15.625  17.094  0.00  0.00    +0.000 F 
ATOM     25  C   UNL     1      10.803  13.265  17.094  0.00  0.00    +0.000 A 
ATOM     26  F   UNL     1      11.640  13.312  16.049  0.00  0.00    +0.000 F 
ATOM     27  C   UNL     1      10.468  12.033  17.645  0.00  0.00    +0.000 A 
ENDBRANCH  17  20
ENDBRANCH  15  16
ENDBRANCH   2  15
TORSDOF 4
ENDMDL
MODEL 9
REMARK VINA RESULT:      -7.7      1.028      1.759
REMARK  Name = 
REMARK  5 active torsions:
REMARK  status: ('A' for Active; 'I' for Inactive)
REMARK    1  A    between atoms: C_1  and  C_2
REMARK    2  A    between atoms: C_2  and  N_3
REMARK    3  A    between atoms: C_4  and  C_6
REMARK    4  A    between atoms: C_6  and  N_7
REMARK    5  A    between atoms: C_8  and  C_10
REMARK                            x       y       z     vdW  Elec       q    Type
REMARK                         _______ _______ _______ _____ _____    ______ ____
ROOT
ATOM      1  N   UNL     1       3.537   7.036  18.686  0.00  0.00    +0.000 N 
ATOM      2  C   UNL     1       2.377   7.529  18.115  0.00  0.00    +0.000 C 
ATOM      3  O   UNL     1       1.424   6.827  17.783  0.00  0.00    +0.000 OA
ATOM      4  H   UNL     1       4.099   7.704  19.212  0.00  0.00    +0.000 HD
ENDROOT
BRANCH   1   6
ATOM      5  C   UNL     1       2.868   5.087  20.040  0.00  0.00    +0.000 C 
ATOM      6  C   UNL     1       3.779   5.589  18.909  0.00  0.00    +0.000 C 
ATOM      7  C   UNL     1       5.285   5.296  19.197  0.00  0.00    +0.000 C 
ATOM      8  C   UNL     1       5.825   4.990  17.829  0.00  0.00    +0.000 A 
ATOM      9  C   UNL     1       7.151   4.927  17.431  0.00  0.00    +0.000 A 
ATOM     10  C   UNL     1       7.432   4.556  16.119  0.00  0.00    +0.000 A 
ATOM     11  C   UNL     1       6.397   4.236  15.226  0.00  0.00    +0.000 A 
ATOM     12  C   UNL     1       5.066   4.291  15.639  0.00  0.00    +0.000 A 
ATOM     13  C   UNL     1       4.794   4.686  16.939  0.00  0.00    +0.000 A 
ATOM     14  C   UNL     1       3.460   4.773  17.614  0.00  0.00    +0.000 C 
ENDBRANCH   1   6
BRANCH   2  15
ATOM     15  C   UNL     1       2.321   9.050  17.989  0.00  0.00    +0.000 C 
BRANCH  15  16
ATOM     16  N   UNL     1       0.980   9.485  17.650  0.00  0.00    +0.000 N 
ATOM     17  C   UNL     1       0.147  10.004  18.613  0.00  0.00    +0.000 C 
ATOM     18  O   UNL     1       0.496  10.150  19.780  0.00  0.00    +0.000 OA
ATOM     19  H   UNL     1       0.684   9.386  16.690  0.00  0.00    +0.000 HD
BRANCH  17  20
ATOM     20  C   UNL     1      -1.213  10.416  18.175  0.00  0.00    +0.000 A 
ATOM     21  C   UNL     1      -1.973  11.363  18.883  0.00  0.00    +0.000 A 
ATOM     22  C   UNL     1      -3.237  11.738  18.413  0.00  0.00    +0.000 A 
ATOM     23  C   UNL     1      -3.734  11.170  17.244  0.00  0.00    +0.000 A 
ATOM     24  F   UNL     1      -4.941  11.537  16.798  0.00  0.00    +0.000 F 
ATOM     25  C   UNL     1      -2.981  10.235  16.542  0.00  0.00    +0.000 A 
ATOM     26  F   UNL     1      -3.462   9.695  15.414  0.00  0.00    +0.000 F 
ATOM     27  C   UNL     1      -1.722   9.857  16.996  0.00  0.00    +0.000 A 
ENDBRANCH  17  20
ENDBRANCH  15  16
ENDBRANCH   2  15
TORSDOF 4
ENDMDL
