MODEL 1
REMARK VINA RESULT:      -8.1      0.000      0.000
REMARK  Name = 
REMARK  6 active torsions:
REMARK  status: ('A' for Active; 'I' for Inactive)
REMARK    1  A    between atoms: C_1  and  C_2
REMARK    2  A    between atoms: C_7  and  C_8
REMARK    3  A    between atoms: C_8  and  N_9
REMARK    4  A    between atoms: N_9  and  C_10
REMARK    5  A    between atoms: C_10  and  C_11
REMARK    6  A    between atoms: C_17  and  C_19
REMARK                            x       y       z     vdW  Elec       q    Type
REMARK                         _______ _______ _______ _____ _____    ______ ____
ROOT
ATOM      1  N   UNL     1       2.903   6.985  18.361  0.00  0.00    +0.000 N 
ATOM      2  C   UNL     1       2.376   8.228  17.945  0.00  0.00    +0.000 C 
ATOM      3  O   UNL     1       2.762   8.796  16.920  0.00  0.00    +0.000 OA
ENDROOT
BRANCH   2   4
ATOM      4  C   UNL     1       1.218   8.807  18.779  0.00  0.00    +0.000 C 
ATOM      5  C   UNL     1       1.514  10.007  19.697  0.00  0.00    +0.000 C 
ATOM      6  C   UNL     1       0.214  10.723  19.551  0.00  0.00    +0.000 A 
ATOM      7  C   UNL     1      -0.379  11.715  20.310  0.00  0.00    +0.000 A 
ATOM      8  C   UNL     1      -1.602  12.230  19.865  0.00  0.00    +0.000 A 
ATOM      9  F   UNL     1      -2.215  13.179  20.585  0.00  0.00    +0.000 F 
ATOM     10  C   UNL     1      -2.207  11.785  18.682  0.00  0.00    +0.000 A 
ATOM     11  C   UNL     1      -1.600  10.785  17.929  0.00  0.00    +0.000 A 
ATOM     12  C   UNL     1      -0.413  10.267  18.401  0.00  0.00    +0.000 A 
ATOM     13  O   UNL     1       0.262   9.258  17.784  0.00  0.00    +0.000 OA
ENDBRANCH   2   4
BRANCH   1  14
ATOM     14  C   UNL     1       3.835   6.256  17.487  0.00  0.00    +0.000 C 
BRANCH  14  21
ATOM     15  C   UNL     1       5.310   4.153  19.257  0.00  0.00    +0.000 C 
ATOM     16  C   UNL     1       5.964   5.393  18.710  0.00  0.00    +0.000 A 
ATOM     17  C   UNL     1       7.322   5.595  19.036  0.00  0.00    +0.000 A 
ATOM     18  C   UNL     1       8.043   6.663  18.511  0.00  0.00    +0.000 A 
ATOM     19  C   UNL     1       7.420   7.547  17.643  0.00  0.00    +0.000 A 
ATOM     20  C   UNL     1       6.069   7.381  17.338  0.00  0.00    +0.000 A 
ATOM     21  C   UNL     1       5.303   6.329  17.881  0.00  0.00    +0.000 A 
ENDBRANCH  14  21
ENDBRANCH   1  14
BRANCH   1  22
ATOM     22  C   UNL     1       2.598   6.373  19.663  0.00  0.00    +0.000 C 
BRANCH  22  23
ATOM     23  C   UNL     1       1.978   4.988  19.695  0.00  0.00    +0.000 A 
ATOM     24  C   UNL     1       1.726   4.273  20.864  0.00  0.00    +0.000 A 
ATOM     25  C   UNL     1       1.243   2.965  20.771  0.00  0.00    +0.000 A 
ATOM     26  C   UNL     1       0.980   2.418  19.522  0.00  0.00    +0.000 A 
ATOM     27  C   UNL     1       1.197   3.210  18.412  0.00  0.00    +0.000 A 
ATOM     28  N   UNL     1       1.683   4.471  18.471  0.00  0.00    +0.000 NA
ENDBRANCH  22  23
ENDBRANCH   1  22
TORSDOF 5
ENDMDL
MODEL 2
REMARK VINA RESULT:      -8.1      1.550      1.881
REMARK  Name = 
REMARK  6 active torsions:
REMARK  status: ('A' for Active; 'I' for Inactive)
REMARK    1  A    between atoms: C_1  and  C_2
REMARK    2  A    between atoms: C_7  and  C_8
REMARK    3  A    between atoms: C_8  and  N_9
REMARK    4  A    between atoms: N_9  and  C_10
REMARK    5  A    between atoms: C_10  and  C_11
REMARK    6  A    between atoms: C_17  and  C_19
REMARK                            x       y       z     vdW  Elec       q    Type
REMARK                         _______ _______ _______ _____ _____    ______ ____
ROOT
ATOM      1  N   UNL     1       3.158   7.114  18.142  0.00  0.00    +0.000 N 
ATOM      2  C   UNL     1       2.369   8.284  18.083  0.00  0.00    +0.000 C 
ATOM      3  O   UNL     1       2.484   9.110  17.174  0.00  0.00    +0.000 OA
ENDROOT
BRANCH   2   4
ATOM      4  C   UNL     1       1.278   8.443  19.160  0.00  0.00    +0.000 C 
ATOM      5  C   UNL     1       1.724   8.619  20.622  0.00  0.00    +0.000 C 
ATOM      6  C   UNL     1       0.650   9.553  21.069  0.00  0.00    +0.000 A 
ATOM      7  C   UNL     1       0.209   9.912  22.329  0.00  0.00    +0.000 A 
ATOM      8  C   UNL     1      -0.798  10.880  22.414  0.00  0.00    +0.000 A 
ATOM      9  F   UNL     1      -1.264  11.238  23.618  0.00  0.00    +0.000 F 
ATOM     10  C   UNL     1      -1.336  11.493  21.274  0.00  0.00    +0.000 A 
ATOM     11  C   UNL     1      -0.884  11.121  20.012  0.00  0.00    +0.000 A 
ATOM     12  C   UNL     1       0.085  10.142  19.948  0.00  0.00    +0.000 A 
ATOM     13  O   UNL     1       0.584   9.658  18.776  0.00  0.00    +0.000 OA
ENDBRANCH   2   4
BRANCH   1  14
ATOM     14  C   UNL     1       4.047   6.775  17.020  0.00  0.00    +0.000 C 
BRANCH  14  21
ATOM     15  C   UNL     1       4.870   3.808  16.514  0.00  0.00    +0.000 C 
ATOM     16  C   UNL     1       5.750   4.814  17.203  0.00  0.00    +0.000 A 
ATOM     17  C   UNL     1       7.014   4.364  17.640  0.00  0.00    +0.000 A 
ATOM     18  C   UNL     1       7.938   5.234  18.211  0.00  0.00    +0.000 A 
ATOM     19  C   UNL     1       7.617   6.577  18.348  0.00  0.00    +0.000 A 
ATOM     20  C   UNL     1       6.359   7.032  17.952  0.00  0.00    +0.000 A 
ATOM     21  C   UNL     1       5.390   6.167  17.403  0.00  0.00    +0.000 A 
ENDBRANCH  14  21
ENDBRANCH   1  14
BRANCH   1  22
ATOM     22  C   UNL     1       3.174   6.206  19.299  0.00  0.00    +0.000 C 
BRANCH  22  23
ATOM     23  C   UNL     1       2.683   4.781  19.120  0.00  0.00    +0.000 A 
ATOM     24  C   UNL     1       1.618   4.422  18.296  0.00  0.00    +0.000 A 
ATOM     25  C   UNL     1       1.189   3.092  18.281  0.00  0.00    +0.000 A 
ATOM     26  C   UNL     1       1.856   2.147  19.050  0.00  0.00    +0.000 A 
ATOM     27  C   UNL     1       2.941   2.569  19.793  0.00  0.00    +0.000 A 
ATOM     28  N   UNL     1       3.366   3.851  19.841  0.00  0.00    +0.000 NA
ENDBRANCH  22  23
ENDBRANCH   1  22
TORSDOF 5
ENDMDL
MODEL 3
REMARK VINA RESULT:      -7.9      3.517      8.464
REMARK  Name = 
REMARK  6 active torsions:
REMARK  status: ('A' for Active; 'I' for Inactive)
REMARK    1  A    between atoms: C_1  and  C_2
REMARK    2  A    between atoms: C_7  and  C_8
REMARK    3  A    between atoms: C_8  and  N_9
REMARK    4  A    between atoms: N_9  and  C_10
REMARK    5  A    between atoms: C_10  and  C_11
REMARK    6  A    between atoms: C_17  and  C_19
REMARK                            x       y       z     vdW  Elec       q    Type
REMARK                         _______ _______ _______ _____ _____    ______ ____
ROOT
ATOM      1  N   UNL     1      -0.528  11.237  19.283  0.00  0.00    +0.000 N 
ATOM      2  C   UNL     1       0.791  10.902  18.901  0.00  0.00    +0.000 C 
ATOM      3  O   UNL     1       1.716  11.717  18.951  0.00  0.00    +0.000 OA
ENDROOT
BRANCH   2   4
ATOM      4  C   UNL     1       1.051   9.436  18.508  0.00  0.00    +0.000 C 
ATOM      5  C   UNL     1       2.308   9.120  17.679  0.00  0.00    +0.000 C 
ATOM      6  C   UNL     1       2.636   7.792  18.273  0.00  0.00    +0.000 A 
ATOM      7  C   UNL     1       3.446   6.762  17.832  0.00  0.00    +0.000 A 
ATOM      8  C   UNL     1       3.596   5.648  18.667  0.00  0.00    +0.000 A 
ATOM      9  F   UNL     1       4.357   4.623  18.263  0.00  0.00    +0.000 F 
ATOM     10  C   UNL     1       2.972   5.573  19.920  0.00  0.00    +0.000 A 
ATOM     11  C   UNL     1       2.158   6.616  20.351  0.00  0.00    +0.000 A 
ATOM     12  C   UNL     1       1.998   7.689  19.500  0.00  0.00    +0.000 A 
ATOM     13  O   UNL     1       1.198   8.754  19.782  0.00  0.00    +0.000 OA
ENDBRANCH   2   4
BRANCH   1  14
ATOM     14  C   UNL     1      -0.802  12.544  19.899  0.00  0.00    +0.000 C 
BRANCH  14  21
ATOM     15  C   UNL     1      -0.363  11.003  22.576  0.00  0.00    +0.000 C 
ATOM     16  C   UNL     1      -1.596  11.807  22.266  0.00  0.00    +0.000 A 
ATOM     17  C   UNL     1      -2.600  11.846  23.257  0.00  0.00    +0.000 A 
ATOM     18  C   UNL     1      -3.741  12.628  23.106  0.00  0.00    +0.000 A 
ATOM     19  C   UNL     1      -3.895  13.395  21.961  0.00  0.00    +0.000 A 
ATOM     20  C   UNL     1      -2.929  13.342  20.956  0.00  0.00    +0.000 A 
ATOM     21  C   UNL     1      -1.780  12.531  21.065  0.00  0.00    +0.000 A 
ENDBRANCH  14  21
ENDBRANCH   1  14
BRANCH   1  22
ATOM     22  C   UNL     1      -1.682  10.351  19.066  0.00  0.00    +0.000 C 
BRANCH  22  23
ATOM     23  C   UNL     1      -2.474  10.479  17.778  0.00  0.00    +0.000 A 
ATOM     24  C   UNL     1      -2.144   9.825  16.593  0.00  0.00    +0.000 A 
ATOM     25  C   UNL     1      -2.887  10.093  15.439  0.00  0.00    +0.000 A 
ATOM     26  C   UNL     1      -3.963  10.968  15.504  0.00  0.00    +0.000 A 
ATOM     27  C   UNL     1      -4.265  11.530  16.729  0.00  0.00    +0.000 A 
ATOM     28  N   UNL     1      -3.553  11.305  17.856  0.00  0.00    +0.000 NA
ENDBRANCH  22  23
ENDBRANCH   1  22
TORSDOF 5
ENDMDL
MODEL 4
REMARK VINA RESULT:      -7.9      1.066      1.692
REMARK  Name = 
REMARK  6 active torsions:
REMARK  status: ('A' for Active; 'I' for Inactive)
REMARK    1  A    between atoms: C_1  and  C_2
REMARK    2  A    between atoms: C_7  and  C_8
REMARK    3  A    between atoms: C_8  and  N_9
REMARK    4  A    between atoms: N_9  and  C_10
REMARK    5  A    between atoms: C_10  and  C_11
REMARK    6  A    between atoms: C_17  and  C_19
REMARK                            x       y       z     vdW  Elec       q    Type
REMARK                         _______ _______ _______ _____ _____    ______ ____
ROOT
ATOM      1  N   UNL     1       2.587   6.851  18.616  0.00  0.00    +0.000 N 
ATOM      2  C   UNL     1       2.373   8.144  18.089  0.00  0.00    +0.000 C 
ATOM      3  O   UNL     1       2.853   8.502  17.010  0.00  0.00    +0.000 OA
ENDROOT
BRANCH   2   4
ATOM      4  C   UNL     1       1.427   9.070  18.877  0.00  0.00    +0.000 C 
ATOM      5  C   UNL     1       1.875  10.520  19.128  0.00  0.00    +0.000 C 
ATOM      6  C   UNL     1       0.542  11.183  19.033  0.00  0.00    +0.000 A 
ATOM      7  C   UNL     1       0.102  12.426  19.448  0.00  0.00    +0.000 A 
ATOM      8  C   UNL     1      -1.219  12.781  19.150  0.00  0.00    +0.000 A 
ATOM      9  F   UNL     1      -1.686  13.970  19.554  0.00  0.00    +0.000 F 
ATOM     10  C   UNL     1      -2.072  11.928  18.437  0.00  0.00    +0.000 A 
ATOM     11  C   UNL     1      -1.616  10.680  18.026  0.00  0.00    +0.000 A 
ATOM     12  C   UNL     1      -0.323  10.336  18.357  0.00  0.00    +0.000 A 
ATOM     13  O   UNL     1       0.233   9.130  18.053  0.00  0.00    +0.000 OA
ENDBRANCH   2   4
BRANCH   1  14
ATOM     14  C   UNL     1       3.275   5.835  17.805  0.00  0.00    +0.000 C 
BRANCH  14  21
ATOM     15  C   UNL     1       5.209   6.618  15.486  0.00  0.00    +0.000 C 
ATOM     16  C   UNL     1       5.671   6.156  16.841  0.00  0.00    +0.000 A 
ATOM     17  C   UNL     1       7.065   6.077  17.047  0.00  0.00    +0.000 A 
ATOM     18  C   UNL     1       7.597   5.744  18.290  0.00  0.00    +0.000 A 
ATOM     19  C   UNL     1       6.744   5.492  19.353  0.00  0.00    +0.000 A 
ATOM     20  C   UNL     1       5.363   5.533  19.157  0.00  0.00    +0.000 A 
ATOM     21  C   UNL     1       4.794   5.833  17.902  0.00  0.00    +0.000 A 
ENDBRANCH  14  21
ENDBRANCH   1  14
BRANCH   1  22
ATOM     22  C   UNL     1       2.184   6.456  19.974  0.00  0.00    +0.000 C 
BRANCH  22  23
ATOM     23  C   UNL     1       1.905   4.991  20.259  0.00  0.00    +0.000 A 
ATOM     24  C   UNL     1       1.142   4.169  19.432  0.00  0.00    +0.000 A 
ATOM     25  C   UNL     1       0.868   2.861  19.842  0.00  0.00    +0.000 A 
ATOM     26  C   UNL     1       1.395   2.390  21.037  0.00  0.00    +0.000 A 
ATOM     27  C   UNL     1       2.194   3.246  21.771  0.00  0.00    +0.000 A 
ATOM     28  N   UNL     1       2.460   4.521  21.410  0.00  0.00    +0.000 NA
ENDBRANCH  22  23
ENDBRANCH   1  22
TORSDOF 5
ENDMDL
MODEL 5
REMARK VINA RESULT:      -7.8      3.517      8.568
REMARK  Name = 
REMARK  6 active torsions:
REMARK  status: ('A' for Active; 'I' for Inactive)
REMARK    1  A    between atoms: C_1  and  C_2
REMARK    2  A    between atoms: C_7  and  C_8
REMARK    3  A    between atoms: C_8  and  N_9
REMARK    4  A    between atoms: N_9  and  C_10
REMARK    5  A    between atoms: C_10  and  C_11
REMARK    6  A    between atoms: C_17  and  C_19
REMARK                            x       y       z     vdW  Elec       q    Type
REMARK                         _______ _______ _______ _____ _____    ______ ____
ROOT
ATOM      1  N   UNL     1      -0.719  11.216  19.151  0.00  0.00    +0.000 N 
ATOM      2  C   UNL     1       0.628  10.955  18.815  0.00  0.00    +0.000 C 
ATOM      3  O   UNL     1       1.509  11.812  18.919  0.00  0.00    +0.000 OA
ENDROOT
BRANCH   2   4
ATOM      4  C   UNL     1       0.976   9.513  18.402  0.00  0.00    +0.000 C 
ATOM      5  C   UNL     1       2.258   9.282  17.584  0.00  0.00    +0.000 C 
ATOM      6  C   UNL     1       2.655   7.965  18.161  0.00  0.00    +0.000 A 
ATOM      7  C   UNL     1       3.527   6.990  17.713  0.00  0.00    +0.000 A 
ATOM      8  C   UNL     1       3.730   5.873  18.532  0.00  0.00    +0.000 A 
ATOM      9  F   UNL     1       4.553   4.899  18.121  0.00  0.00    +0.000 F 
ATOM     10  C   UNL     1       3.098   5.742  19.776  0.00  0.00    +0.000 A 
ATOM     11  C   UNL     1       2.222   6.730  20.213  0.00  0.00    +0.000 A 
ATOM     12  C   UNL     1       2.010   7.806  19.378  0.00  0.00    +0.000 A 
ATOM     13  O   UNL     1       1.147   8.820  19.667  0.00  0.00    +0.000 OA
ENDBRANCH   2   4
BRANCH   1  14
ATOM     14  C   UNL     1      -1.081  12.494  19.783  0.00  0.00    +0.000 C 
BRANCH  14  21
ATOM     15  C   UNL     1      -4.040  13.385  20.212  0.00  0.00    +0.000 C 
ATOM     16  C   UNL     1      -3.170  12.820  21.302  0.00  0.00    +0.000 A 
ATOM     17  C   UNL     1      -3.748  12.702  22.584  0.00  0.00    +0.000 A 
ATOM     18  C   UNL     1      -3.057  12.114  23.640  0.00  0.00    +0.000 A 
ATOM     19  C   UNL     1      -1.777  11.625  23.431  0.00  0.00    +0.000 A 
ATOM     20  C   UNL     1      -1.178  11.764  22.178  0.00  0.00    +0.000 A 
ATOM     21  C   UNL     1      -1.839  12.387  21.099  0.00  0.00    +0.000 A 
ENDBRANCH  14  21
ENDBRANCH   1  14
BRANCH   1  22
ATOM     22  C   UNL     1      -1.818  10.280  18.870  0.00  0.00    +0.000 C 
BRANCH  22  23
ATOM     23  C   UNL     1      -2.552  10.387  17.546  0.00  0.00    +0.000 A 
ATOM     24  C   UNL     1      -2.117   9.791  16.364  0.00  0.00    +0.000 A 
ATOM     25  C   UNL     1      -2.819  10.037  15.181  0.00  0.00    +0.000 A 
ATOM     26  C   UNL     1      -3.959  10.830  15.211  0.00  0.00    +0.000 A 
ATOM     27  C   UNL     1      -4.362  11.334  16.431  0.00  0.00    +0.000 A 
ATOM     28  N   UNL     1      -3.692  11.130  17.588  0.00  0.00    +0.000 NA
ENDBRANCH  22  23
ENDBRANCH   1  22
TORSDOF 5
ENDMDL
MODEL 6
REMARK VINA RESULT:      -7.7      1.770      2.167
REMARK  Name = 
REMARK  6 active torsions:
REMARK  status: ('A' for Active; 'I' for Inactive)
REMARK    1  A    between atoms: C_1  and  C_2
REMARK    2  A    between atoms: C_7  and  C_8
REMARK    3  A    between atoms: C_8  and  N_9
REMARK    4  A    between atoms: N_9  and  C_10
REMARK    5  A    between atoms: C_10  and  C_11
REMARK    6  A    between atoms: C_17  and  C_19
REMARK                            x       y       z     vdW  Elec       q    Type
REMARK                         _______ _______ _______ _____ _____    ______ ____
ROOT
ATOM      1  N   UNL     1       3.400   7.181  17.964  0.00  0.00    +0.000 N 
ATOM      2  C   UNL     1       2.556   8.314  17.946  0.00  0.00    +0.000 C 
ATOM      3  O   UNL     1       2.653   9.193  17.087  0.00  0.00    +0.000 OA
ENDROOT
BRANCH   2   4
ATOM      4  C   UNL     1       1.432   8.360  18.999  0.00  0.00    +0.000 C 
ATOM      5  C   UNL     1       1.826   8.276  20.484  0.00  0.00    +0.000 C 
ATOM      6  C   UNL     1       0.784   9.187  21.041  0.00  0.00    +0.000 A 
ATOM      7  C   UNL     1       0.310   9.364  22.328  0.00  0.00    +0.000 A 
ATOM      8  C   UNL     1      -0.649  10.362  22.536  0.00  0.00    +0.000 A 
ATOM      9  F   UNL     1      -1.144  10.550  23.766  0.00  0.00    +0.000 F 
ATOM     10  C   UNL     1      -1.107  11.178  21.493  0.00  0.00    +0.000 A 
ATOM     11  C   UNL     1      -0.624  10.987  20.202  0.00  0.00    +0.000 A 
ATOM     12  C   UNL     1       0.296   9.978  20.012  0.00  0.00    +0.000 A 
ATOM     13  O   UNL     1       0.817   9.659  18.794  0.00  0.00    +0.000 OA
ENDBRANCH   2   4
BRANCH   1  14
ATOM     14  C   UNL     1       4.333   6.947  16.851  0.00  0.00    +0.000 C 
BRANCH  14  21
ATOM     15  C   UNL     1       5.175   4.253  15.522  0.00  0.00    +0.000 C 
ATOM     16  C   UNL     1       5.955   4.925  16.619  0.00  0.00    +0.000 A 
ATOM     17  C   UNL     1       7.129   4.275  17.058  0.00  0.00    +0.000 A 
ATOM     18  C   UNL     1       7.968   4.853  18.006  0.00  0.00    +0.000 A 
ATOM     19  C   UNL     1       7.651   6.098  18.529  0.00  0.00    +0.000 A 
ATOM     20  C   UNL     1       6.477   6.738  18.131  0.00  0.00    +0.000 A 
ATOM     21  C   UNL     1       5.590   6.162  17.199  0.00  0.00    +0.000 A 
ENDBRANCH  14  21
ENDBRANCH   1  14
BRANCH   1  22
ATOM     22  C   UNL     1       3.431   6.213  19.071  0.00  0.00    +0.000 C 
BRANCH  22  23
ATOM     23  C   UNL     1       3.189   4.746  18.768  0.00  0.00    +0.000 A 
ATOM     24  C   UNL     1       3.936   3.704  19.315  0.00  0.00    +0.000 A 
ATOM     25  C   UNL     1       3.688   2.395  18.890  0.00  0.00    +0.000 A 
ATOM     26  C   UNL     1       2.678   2.152  17.969  0.00  0.00    +0.000 A 
ATOM     27  C   UNL     1       1.940   3.229  17.520  0.00  0.00    +0.000 A 
ATOM     28  N   UNL     1       2.169   4.507  17.898  0.00  0.00    +0.000 NA
ENDBRANCH  22  23
ENDBRANCH   1  22
TORSDOF 5
ENDMDL
MODEL 7
REMARK VINA RESULT:      -7.7      4.790      7.399
REMARK  Name = 
REMARK  6 active torsions:
REMARK  status: ('A' for Active; 'I' for Inactive)
REMARK    1  A    between atoms: C_1  and  C_2
REMARK    2  A    between atoms: C_7  and  C_8
REMARK    3  A    between atoms: C_8  and  N_9
REMARK    4  A    between atoms: N_9  and  C_10
REMARK    5  A    between atoms: C_10  and  C_11
REMARK    6  A    between atoms: C_17  and  C_19
REMARK                            x       y       z     vdW  Elec       q    Type
REMARK                         _______ _______ _______ _____ _____    ______ ____
ROOT
ATOM      1  N   UNL     1       6.171   5.460  18.008  0.00  0.00    +0.000 N 
ATOM      2  C   UNL     1       7.169   6.099  18.777  0.00  0.00    +0.000 C 
ATOM      3  O   UNL     1       7.499   5.692  19.894  0.00  0.00    +0.000 OA
ENDROOT
BRANCH   2   4
ATOM      4  C   UNL     1       7.905   7.281  18.119  0.00  0.00    +0.000 C 
ATOM      5  C   UNL     1       7.060   8.421  17.525  0.00  0.00    +0.000 C 
ATOM      6  C   UNL     1       7.965   9.560  17.850  0.00  0.00    +0.000 A 
ATOM      7  C   UNL     1       8.028  10.853  17.364  0.00  0.00    +0.000 A 
ATOM      8  C   UNL     1       8.974  11.716  17.930  0.00  0.00    +0.000 A 
ATOM      9  F   UNL     1       9.077  12.970  17.469  0.00  0.00    +0.000 F 
ATOM     10  C   UNL     1       9.820  11.308  18.969  0.00  0.00    +0.000 A 
ATOM     11  C   UNL     1       9.747  10.003  19.448  0.00  0.00    +0.000 A 
ATOM     12  C   UNL     1       8.832   9.160  18.856  0.00  0.00    +0.000 A 
ATOM     13  O   UNL     1       8.688   7.850  19.201  0.00  0.00    +0.000 OA
ENDBRANCH   2   4
BRANCH   1  14
ATOM     14  C   UNL     1       5.598   4.185  18.467  0.00  0.00    +0.000 C 
BRANCH  14  21
ATOM     15  C   UNL     1       3.486   2.017  17.710  0.00  0.00    +0.000 C 
ATOM     16  C   UNL     1       3.165   3.261  18.493  0.00  0.00    +0.000 A 
ATOM     17  C   UNL     1       1.823   3.435  18.893  0.00  0.00    +0.000 A 
ATOM     18  C   UNL     1       1.437   4.507  19.692  0.00  0.00    +0.000 A 
ATOM     19  C   UNL     1       2.390   5.421  20.116  0.00  0.00    +0.000 A 
ATOM     20  C   UNL     1       3.715   5.282  19.703  0.00  0.00    +0.000 A 
ATOM     21  C   UNL     1       4.129   4.227  18.863  0.00  0.00    +0.000 A 
ENDBRANCH  14  21
ENDBRANCH   1  14
BRANCH   1  22
ATOM     22  C   UNL     1       5.629   6.020  16.761  0.00  0.00    +0.000 C 
BRANCH  22  23
ATOM     23  C   UNL     1       5.944   5.327  15.448  0.00  0.00    +0.000 A 
ATOM     24  C   UNL     1       5.070   4.459  14.797  0.00  0.00    +0.000 A 
ATOM     25  C   UNL     1       5.502   3.799  13.642  0.00  0.00    +0.000 A 
ATOM     26  C   UNL     1       6.772   4.053  13.141  0.00  0.00    +0.000 A 
ATOM     27  C   UNL     1       7.557   4.973  13.808  0.00  0.00    +0.000 A 
ATOM     28  N   UNL     1       7.174   5.611  14.937  0.00  0.00    +0.000 NA
ENDBRANCH  22  23
ENDBRANCH   1  22
TORSDOF 5
ENDMDL
MODEL 8
REMARK VINA RESULT:      -7.7      2.523      3.521
REMARK  Name = 
REMARK  6 active torsions:
REMARK  status: ('A' for Active; 'I' for Inactive)
REMARK    1  A    between atoms: C_1  and  C_2
REMARK    2  A    between atoms: C_7  and  C_8
REMARK    3  A    between atoms: C_8  and  N_9
REMARK    4  A    between atoms: N_9  and  C_10
REMARK    5  A    between atoms: C_10  and  C_11
REMARK    6  A    between atoms: C_17  and  C_19
REMARK                            x       y       z     vdW  Elec       q    Type
REMARK                         _______ _______ _______ _____ _____    ______ ____
ROOT
ATOM      1  N   UNL     1       4.323   4.438  17.647  0.00  0.00    +0.000 N 
ATOM      2  C   UNL     1       4.353   5.779  18.090  0.00  0.00    +0.000 C 
ATOM      3  O   UNL     1       5.409   6.399  18.239  0.00  0.00    +0.000 OA
ENDROOT
BRANCH   2   4
ATOM      4  C   UNL     1       2.994   6.476  18.292  0.00  0.00    +0.000 C 
ATOM      5  C   UNL     1       2.524   6.746  19.732  0.00  0.00    +0.000 C 
ATOM      6  C   UNL     1       1.832   8.046  19.498  0.00  0.00    +0.000 A 
ATOM      7  C   UNL     1       0.907   8.745  20.253  0.00  0.00    +0.000 A 
ATOM      8  C   UNL     1       0.488   9.992  19.776  0.00  0.00    +0.000 A 
ATOM      9  F   UNL     1      -0.422  10.688  20.471  0.00  0.00    +0.000 F 
ATOM     10  C   UNL     1       0.994  10.540  18.590  0.00  0.00    +0.000 A 
ATOM     11  C   UNL     1       1.922   9.826  17.839  0.00  0.00    +0.000 A 
ATOM     12  C   UNL     1       2.298   8.585  18.309  0.00  0.00    +0.000 A 
ATOM     13  O   UNL     1       3.166   7.767  17.650  0.00  0.00    +0.000 OA
ENDBRANCH   2   4
BRANCH   1  14
ATOM     14  C   UNL     1       5.565   3.787  17.201  0.00  0.00    +0.000 C 
BRANCH  14  21
ATOM     15  C   UNL     1       7.733   5.919  16.502  0.00  0.00    +0.000 C 
ATOM     16  C   UNL     1       6.981   5.122  15.472  0.00  0.00    +0.000 A 
ATOM     17  C   UNL     1       7.289   5.376  14.118  0.00  0.00    +0.000 A 
ATOM     18  C   UNL     1       6.712   4.634  13.091  0.00  0.00    +0.000 A 
ATOM     19  C   UNL     1       5.822   3.617  13.400  0.00  0.00    +0.000 A 
ATOM     20  C   UNL     1       5.481   3.375  14.731  0.00  0.00    +0.000 A 
ATOM     21  C   UNL     1       6.021   4.133  15.791  0.00  0.00    +0.000 A 
ENDBRANCH  14  21
ENDBRANCH   1  14
BRANCH   1  22
ATOM     22  C   UNL     1       3.102   3.618  17.632  0.00  0.00    +0.000 C 
BRANCH  22  23
ATOM     23  C   UNL     1       2.446   3.258  18.952  0.00  0.00    +0.000 A 
ATOM     24  C   UNL     1       1.073   3.328  19.185  0.00  0.00    +0.000 A 
ATOM     25  C   UNL     1       0.587   3.066  20.469  0.00  0.00    +0.000 A 
ATOM     26  C   UNL     1       1.470   2.698  21.475  0.00  0.00    +0.000 A 
ATOM     27  C   UNL     1       2.809   2.591  21.152  0.00  0.00    +0.000 A 
ATOM     28  N   UNL     1       3.310   2.857  19.925  0.00  0.00    +0.000 NA
ENDBRANCH  22  23
ENDBRANCH   1  22
TORSDOF 5
ENDMDL
MODEL 9
REMARK VINA RESULT:      -7.7      1.933      2.516
REMARK  Name = 
REMARK  6 active torsions:
REMARK  status: ('A' for Active; 'I' for Inactive)
REMARK    1  A    between atoms: C_1  and  C_2
REMARK    2  A    between atoms: C_7  and  C_8
REMARK    3  A    between atoms: C_8  and  N_9
REMARK    4  A    between atoms: N_9  and  C_10
REMARK    5  A    between atoms: C_10  and  C_11
REMARK    6  A    between atoms: C_17  and  C_19
REMARK                            x       y       z     vdW  Elec       q    Type
REMARK                         _______ _______ _______ _____ _____    ______ ____
ROOT
ATOM      1  N   UNL     1       2.259   7.078  18.759  0.00  0.00    +0.000 N 
ATOM      2  C   UNL     1       2.021   8.450  18.522  0.00  0.00    +0.000 C 
ATOM      3  O   UNL     1       1.901   8.909  17.384  0.00  0.00    +0.000 OA
ENDROOT
BRANCH   2   4
ATOM      4  C   UNL     1       1.820   9.345  19.760  0.00  0.00    +0.000 C 
ATOM      5  C   UNL     1       1.141  10.712  19.562  0.00  0.00    +0.000 C 
ATOM      6  C   UNL     1       0.390  10.774  20.850  0.00  0.00    +0.000 A 
ATOM      7  C   UNL     1      -0.199  11.830  21.521  0.00  0.00    +0.000 A 
ATOM      8  C   UNL     1      -0.895  11.543  22.701  0.00  0.00    +0.000 A 
ATOM      9  F   UNL     1      -1.461  12.543  23.389  0.00  0.00    +0.000 F 
ATOM     10  C   UNL     1      -1.021  10.234  23.187  0.00  0.00    +0.000 A 
ATOM     11  C   UNL     1      -0.422   9.182  22.502  0.00  0.00    +0.000 A 
ATOM     12  C   UNL     1       0.286   9.489  21.360  0.00  0.00    +0.000 A 
ATOM     13  O   UNL     1       0.954   8.560  20.621  0.00  0.00    +0.000 OA
ENDBRANCH   2   4
BRANCH   1  14
ATOM     14  C   UNL     1       2.219   6.125  17.639  0.00  0.00    +0.000 C 
BRANCH  14  21
ATOM     15  C   UNL     1       2.830   3.100  17.181  0.00  0.00    +0.000 C 
ATOM     16  C   UNL     1       3.852   4.193  17.024  0.00  0.00    +0.000 A 
ATOM     17  C   UNL     1       5.155   3.800  16.652  0.00  0.00    +0.000 A 
ATOM     18  C   UNL     1       6.151   4.738  16.398  0.00  0.00    +0.000 A 
ATOM     19  C   UNL     1       5.859   6.090  16.502  0.00  0.00    +0.000 A 
ATOM     20  C   UNL     1       4.585   6.494  16.902  0.00  0.00    +0.000 A 
ATOM     21  C   UNL     1       3.566   5.566  17.201  0.00  0.00    +0.000 A 
ENDBRANCH  14  21
ENDBRANCH   1  14
BRANCH   1  22
ATOM     22  C   UNL     1       2.585   6.531  20.085  0.00  0.00    +0.000 C 
BRANCH  22  23
ATOM     23  C   UNL     1       2.312   5.063  20.360  0.00  0.00    +0.000 A 
ATOM     24  C   UNL     1       1.035   4.512  20.450  0.00  0.00    +0.000 A 
ATOM     25  C   UNL     1       0.899   3.167  20.805  0.00  0.00    +0.000 A 
ATOM     26  C   UNL     1       2.034   2.395  21.016  0.00  0.00    +0.000 A 
ATOM     27  C   UNL     1       3.265   2.997  20.848  0.00  0.00    +0.000 A 
ATOM     28  N   UNL     1       3.427   4.300  20.525  0.00  0.00    +0.000 NA
ENDBRANCH  22  23
ENDBRANCH   1  22
TORSDOF 5
ENDMDL
