MODEL 1
REMARK VINA RESULT:      -8.9      0.000      0.000
REMARK  Name = 
REMARK  4 active torsions:
REMARK  status: ('A' for Active; 'I' for Inactive)
REMARK    1  A    between atoms: C_2  and  C_13
REMARK    2  A    between atoms: N_3  and  C_4
REMARK    3  A    between atoms: N_20  and  C_21
REMARK    4  A    between atoms: C_21  and  C_22
REMARK                            x       y       z     vdW  Elec       q    Type
REMARK                         _______ _______ _______ _____ _____    ______ ____
ROOT
ATOM      1  C   UNL     1       1.454   9.122  19.411  0.00  0.00    +0.000 A 
ATOM      2  C   UNL     1       1.141  10.455  19.137  0.00  0.00    +0.000 A 
ATOM      3  N   UNL     1       0.512  11.316  19.982  0.00  0.00    +0.000 NA
ATOM      4  C   UNL     1       0.236  10.759  21.181  0.00  0.00    +0.000 A 
ATOM      5  C   UNL     1       0.525   9.461  21.586  0.00  0.00    +0.000 A 
ATOM      6  C   UNL     1       0.074   9.403  22.921  0.00  0.00    +0.000 A 
ATOM      7  N   UNL     1      -0.468  10.549  23.341  0.00  0.00    +0.000 NA
ATOM      8  N   UNL     1      -0.394  11.352  22.246  0.00  0.00    +0.000 N 
ATOM      9  C   UNL     1       1.152   8.598  20.671  0.00  0.00    +0.000 A 
ENDROOT
BRANCH   1  11
ATOM     10  O   UNL     1       2.165   8.790  17.232  0.00  0.00    +0.000 OA
ATOM     11  C   UNL     1       2.156   8.336  18.369  0.00  0.00    +0.000 C 
ATOM     12  N   UNL     1       2.684   7.122  18.780  0.00  0.00    +0.000 N 
ATOM     13  H   UNL     1       2.415   6.780  19.694  0.00  0.00    +0.000 HD
BRANCH  12  14
ATOM     14  C   UNL     1       3.401   6.214  17.965  0.00  0.00    +0.000 A 
ATOM     15  C   UNL     1       3.018   4.867  17.799  0.00  0.00    +0.000 A 
ATOM     16  C   UNL     1       3.775   3.986  17.017  0.00  0.00    +0.000 A 
ATOM     17  C   UNL     1       4.909   4.479  16.415  0.00  0.00    +0.000 A 
ATOM     18  C   UNL     1       5.282   5.794  16.552  0.00  0.00    +0.000 A 
ATOM     19  C   UNL     1       4.543   6.689  17.301  0.00  0.00    +0.000 A 
ATOM     20  O   UNL     1       6.437   6.072  15.887  0.00  0.00    +0.000 OA
ATOM     21  C   UNL     1       6.780   4.763  15.380  0.00  0.00    +0.000 C 
ATOM     22  O   UNL     1       5.777   3.764  15.654  0.00  0.00    +0.000 OA
ENDBRANCH  12  14
ENDBRANCH   1  11
BRANCH   8  23
ATOM     23  C   UNL     1      -0.948  12.696  22.286  0.00  0.00    +0.000 C 
BRANCH  23  24
ATOM     24  C   UNL     1      -2.420  12.679  21.952  0.00  0.00    +0.000 A 
ATOM     25  C   UNL     1      -2.847  12.686  20.615  0.00  0.00    +0.000 A 
ATOM     26  C   UNL     1      -4.206  12.763  20.307  0.00  0.00    +0.000 A 
ATOM     27  C   UNL     1      -5.150  12.831  21.329  0.00  0.00    +0.000 A 
ATOM     28  C   UNL     1      -4.739  12.808  22.661  0.00  0.00    +0.000 A 
ATOM     29  C   UNL     1      -3.381  12.730  22.972  0.00  0.00    +0.000 A 
ENDBRANCH  23  24
ENDBRANCH   8  23
TORSDOF 4
ENDMDL
MODEL 2
REMARK VINA RESULT:      -8.7      6.980     10.215
REMARK  Name = 
REMARK  4 active torsions:
REMARK  status: ('A' for Active; 'I' for Inactive)
REMARK    1  A    between atoms: C_2  and  C_13
REMARK    2  A    between atoms: N_3  and  C_4
REMARK    3  A    between atoms: N_20  and  C_21
REMARK    4  A    between atoms: C_21  and  C_22
REMARK                            x       y       z     vdW  Elec       q    Type
REMARK                         _______ _______ _______ _____ _____    ______ ____
ROOT
ATOM      1  C   UNL     1       8.413   8.962  18.469  0.00  0.00    +0.000 A 
ATOM      2  C   UNL     1       7.487   8.890  17.427  0.00  0.00    +0.000 A 
ATOM      3  N   UNL     1       6.844   7.767  17.008  0.00  0.00    +0.000 NA
ATOM      4  C   UNL     1       7.164   6.680  17.743  0.00  0.00    +0.000 A 
ATOM      5  C   UNL     1       8.040   6.628  18.821  0.00  0.00    +0.000 A 
ATOM      6  C   UNL     1       7.983   5.287  19.254  0.00  0.00    +0.000 A 
ATOM      7  N   UNL     1       7.157   4.535  18.520  0.00  0.00    +0.000 NA
ATOM      8  N   UNL     1       6.698   5.400  17.577  0.00  0.00    +0.000 N 
ATOM      9  C   UNL     1       8.702   7.808  19.203  0.00  0.00    +0.000 A 
ENDROOT
BRANCH   1  11
ATOM     10  O   UNL     1       9.538  10.402  19.892  0.00  0.00    +0.000 OA
ATOM     11  C   UNL     1       9.005  10.281  18.796  0.00  0.00    +0.000 C 
ATOM     12  N   UNL     1       8.838  11.273  17.841  0.00  0.00    +0.000 N 
ATOM     13  H   UNL     1       8.193  11.089  17.083  0.00  0.00    +0.000 HD
BRANCH  12  14
ATOM     14  C   UNL     1       9.325  12.598  17.933  0.00  0.00    +0.000 A 
ATOM     15  C   UNL     1       8.557  13.663  18.448  0.00  0.00    +0.000 A 
ATOM     16  C   UNL     1       9.058  14.970  18.485  0.00  0.00    +0.000 A 
ATOM     17  C   UNL     1      10.326  15.183  18.000  0.00  0.00    +0.000 A 
ATOM     18  C   UNL     1      11.093  14.152  17.514  0.00  0.00    +0.000 A 
ATOM     19  C   UNL     1      10.631  12.849  17.485  0.00  0.00    +0.000 A 
ATOM     20  O   UNL     1      12.309  14.578  17.074  0.00  0.00    +0.000 OA
ATOM     21  C   UNL     1      12.184  16.004  17.275  0.00  0.00    +0.000 C 
ATOM     22  O   UNL     1      10.956  16.384  17.926  0.00  0.00    +0.000 OA
ENDBRANCH  12  14
ENDBRANCH   1  11
BRANCH   8  23
ATOM     23  C   UNL     1       5.799   4.934  16.533  0.00  0.00    +0.000 C 
BRANCH  23  24
ATOM     24  C   UNL     1       4.419   4.676  17.089  0.00  0.00    +0.000 A 
ATOM     25  C   UNL     1       3.841   3.401  16.999  0.00  0.00    +0.000 A 
ATOM     26  C   UNL     1       2.531   3.186  17.430  0.00  0.00    +0.000 A 
ATOM     27  C   UNL     1       1.789   4.240  17.957  0.00  0.00    +0.000 A 
ATOM     28  C   UNL     1       2.358   5.507  18.068  0.00  0.00    +0.000 A 
ATOM     29  C   UNL     1       3.668   5.725  17.638  0.00  0.00    +0.000 A 
ENDBRANCH  23  24
ENDBRANCH   8  23
TORSDOF 4
ENDMDL
MODEL 3
REMARK VINA RESULT:      -8.7      6.866     10.200
REMARK  Name = 
REMARK  4 active torsions:
REMARK  status: ('A' for Active; 'I' for Inactive)
REMARK    1  A    between atoms: C_2  and  C_13
REMARK    2  A    between atoms: N_3  and  C_4
REMARK    3  A    between atoms: N_20  and  C_21
REMARK    4  A    between atoms: C_21  and  C_22
REMARK                            x       y       z     vdW  Elec       q    Type
REMARK                         _______ _______ _______ _____ _____    ______ ____
ROOT
ATOM      1  C   UNL     1       8.406   8.757  18.425  0.00  0.00    +0.000 A 
ATOM      2  C   UNL     1       7.443   8.800  17.414  0.00  0.00    +0.000 A 
ATOM      3  N   UNL     1       6.708   7.746  16.969  0.00  0.00    +0.000 NA
ATOM      4  C   UNL     1       6.971   6.606  17.643  0.00  0.00    +0.000 A 
ATOM      5  C   UNL     1       7.876   6.441  18.685  0.00  0.00    +0.000 A 
ATOM      6  C   UNL     1       7.735   5.089  19.060  0.00  0.00    +0.000 A 
ATOM      7  N   UNL     1       6.834   4.433  18.324  0.00  0.00    +0.000 NA
ATOM      8  N   UNL     1       6.409   5.371  17.437  0.00  0.00    +0.000 N 
ATOM      9  C   UNL     1       8.634   7.551  19.096  0.00  0.00    +0.000 A 
ENDROOT
BRANCH   1  11
ATOM     10  O   UNL     1       9.151  10.306  19.977  0.00  0.00    +0.000 OA
ATOM     11  C   UNL     1       9.102  10.014  18.788  0.00  0.00    +0.000 C 
ATOM     12  N   UNL     1       9.578  10.770  17.729  0.00  0.00    +0.000 N 
ATOM     13  H   UNL     1       9.278  10.513  16.797  0.00  0.00    +0.000 HD
BRANCH  12  14
ATOM     14  C   UNL     1      10.280  11.995  17.837  0.00  0.00    +0.000 A 
ATOM     15  C   UNL     1      11.677  12.062  18.016  0.00  0.00    +0.000 A 
ATOM     16  C   UNL     1      12.333  13.292  18.159  0.00  0.00    +0.000 A 
ATOM     17  C   UNL     1      11.568  14.433  18.122  0.00  0.00    +0.000 A 
ATOM     18  C   UNL     1      10.210  14.382  17.928  0.00  0.00    +0.000 A 
ATOM     19  C   UNL     1       9.539  13.184  17.763  0.00  0.00    +0.000 A 
ATOM     20  O   UNL     1       9.642  15.619  17.935  0.00  0.00    +0.000 OA
ATOM     21  C   UNL     1      10.793  16.443  18.227  0.00  0.00    +0.000 C 
ATOM     22  O   UNL     1      12.028  15.701  18.278  0.00  0.00    +0.000 OA
ENDBRANCH  12  14
ENDBRANCH   1  11
BRANCH   8  23
ATOM     23  C   UNL     1       5.445   5.019  16.406  0.00  0.00    +0.000 C 
BRANCH  23  24
ATOM     24  C   UNL     1       4.093   4.728  17.013  0.00  0.00    +0.000 A 
ATOM     25  C   UNL     1       3.385   5.731  17.691  0.00  0.00    +0.000 A 
ATOM     26  C   UNL     1       2.179   5.439  18.330  0.00  0.00    +0.000 A 
ATOM     27  C   UNL     1       1.669   4.143  18.296  0.00  0.00    +0.000 A 
ATOM     28  C   UNL     1       2.356   3.141  17.612  0.00  0.00    +0.000 A 
ATOM     29  C   UNL     1       3.561   3.432  16.971  0.00  0.00    +0.000 A 
ENDBRANCH  23  24
ENDBRANCH   8  23
TORSDOF 4
ENDMDL
MODEL 4
REMARK VINA RESULT:      -8.5      1.116      1.252
REMARK  Name = 
REMARK  4 active torsions:
REMARK  status: ('A' for Active; 'I' for Inactive)
REMARK    1  A    between atoms: C_2  and  C_13
REMARK    2  A    between atoms: N_3  and  C_4
REMARK    3  A    between atoms: N_20  and  C_21
REMARK    4  A    between atoms: C_21  and  C_22
REMARK                            x       y       z     vdW  Elec       q    Type
REMARK                         _______ _______ _______ _____ _____    ______ ____
ROOT
ATOM      1  C   UNL     1       1.493   8.104  20.332  0.00  0.00    +0.000 A 
ATOM      2  C   UNL     1       1.302   9.233  19.533  0.00  0.00    +0.000 A 
ATOM      3  N   UNL     1       0.655  10.371  19.903  0.00  0.00    +0.000 NA
ATOM      4  C   UNL     1       0.223  10.331  21.183  0.00  0.00    +0.000 A 
ATOM      5  C   UNL     1       0.380   9.285  22.085  0.00  0.00    +0.000 A 
ATOM      6  C   UNL     1      -0.203   9.763  23.278  0.00  0.00    +0.000 A 
ATOM      7  N   UNL     1      -0.702  10.996  23.159  0.00  0.00    +0.000 NA
ATOM      8  N   UNL     1      -0.465  11.307  21.857  0.00  0.00    +0.000 N 
ATOM      9  C   UNL     1       1.033   8.119  21.652  0.00  0.00    +0.000 A 
ENDROOT
BRANCH   1  11
ATOM     10  O   UNL     1       2.359   5.960  20.464  0.00  0.00    +0.000 OA
ATOM     11  C   UNL     1       2.237   6.956  19.762  0.00  0.00    +0.000 C 
ATOM     12  N   UNL     1       2.780   7.152  18.501  0.00  0.00    +0.000 N 
ATOM     13  H   UNL     1       2.781   8.095  18.134  0.00  0.00    +0.000 HD
BRANCH  12  14
ATOM     14  C   UNL     1       3.517   6.197  17.760  0.00  0.00    +0.000 A 
ATOM     15  C   UNL     1       3.132   4.845  17.657  0.00  0.00    +0.000 A 
ATOM     16  C   UNL     1       3.908   3.919  16.948  0.00  0.00    +0.000 A 
ATOM     17  C   UNL     1       5.062   4.374  16.357  0.00  0.00    +0.000 A 
ATOM     18  C   UNL     1       5.438   5.692  16.432  0.00  0.00    +0.000 A 
ATOM     19  C   UNL     1       4.681   6.631  17.107  0.00  0.00    +0.000 A 
ATOM     20  O   UNL     1       6.615   5.929  15.789  0.00  0.00    +0.000 OA
ATOM     21  C   UNL     1       6.966   4.593  15.366  0.00  0.00    +0.000 C 
ATOM     22  O   UNL     1       5.950   3.614  15.663  0.00  0.00    +0.000 OA
ENDBRANCH  12  14
ENDBRANCH   1  11
BRANCH   8  23
ATOM     23  C   UNL     1      -0.925  12.575  21.313  0.00  0.00    +0.000 C 
BRANCH  23  24
ATOM     24  C   UNL     1      -2.332  12.450  20.779  0.00  0.00    +0.000 A 
ATOM     25  C   UNL     1      -2.557  12.072  19.447  0.00  0.00    +0.000 A 
ATOM     26  C   UNL     1      -3.852  12.045  18.927  0.00  0.00    +0.000 A 
ATOM     27  C   UNL     1      -4.933  12.394  19.733  0.00  0.00    +0.000 A 
ATOM     28  C   UNL     1      -4.724  12.755  21.063  0.00  0.00    +0.000 A 
ATOM     29  C   UNL     1      -3.430  12.782  21.585  0.00  0.00    +0.000 A 
ENDBRANCH  23  24
ENDBRANCH   8  23
TORSDOF 4
ENDMDL
MODEL 5
REMARK VINA RESULT:      -8.5      3.974     10.267
REMARK  Name = 
REMARK  4 active torsions:
REMARK  status: ('A' for Active; 'I' for Inactive)
REMARK    1  A    between atoms: C_2  and  C_13
REMARK    2  A    between atoms: N_3  and  C_4
REMARK    3  A    between atoms: N_20  and  C_21
REMARK    4  A    between atoms: C_21  and  C_22
REMARK                            x       y       z     vdW  Elec       q    Type
REMARK                         _______ _______ _______ _____ _____    ______ ____
ROOT
ATOM      1  C   UNL     1      -0.037  10.113  21.393  0.00  0.00    +0.000 A 
ATOM      2  C   UNL     1       0.712   9.095  21.988  0.00  0.00    +0.000 A 
ATOM      3  N   UNL     1       1.524   8.219  21.338  0.00  0.00    +0.000 NA
ATOM      4  C   UNL     1       1.578   8.449  20.008  0.00  0.00    +0.000 A 
ATOM      5  C   UNL     1       0.911   9.445  19.304  0.00  0.00    +0.000 A 
ATOM      6  C   UNL     1       1.340   9.277  17.971  0.00  0.00    +0.000 A 
ATOM      7  N   UNL     1       2.195   8.262  17.820  0.00  0.00    +0.000 NA
ATOM      8  N   UNL     1       2.295   7.745  19.073  0.00  0.00    +0.000 N 
ATOM      9  C   UNL     1       0.062  10.312  20.013  0.00  0.00    +0.000 A 
ENDROOT
BRANCH   1  11
ATOM     10  O   UNL     1      -0.865  10.734  23.465  0.00  0.00    +0.000 OA
ATOM     11  C   UNL     1      -0.859  10.984  22.266  0.00  0.00    +0.000 C 
ATOM     12  N   UNL     1      -1.594  11.966  21.621  0.00  0.00    +0.000 N 
ATOM     13  H   UNL     1      -1.657  11.917  20.612  0.00  0.00    +0.000 HD
BRANCH  12  14
ATOM     14  C   UNL     1      -2.437  12.915  22.248  0.00  0.00    +0.000 A 
ATOM     15  C   UNL     1      -1.941  14.007  22.990  0.00  0.00    +0.000 A 
ATOM     16  C   UNL     1      -2.805  14.903  23.631  0.00  0.00    +0.000 A 
ATOM     17  C   UNL     1      -4.157  14.681  23.515  0.00  0.00    +0.000 A 
ATOM     18  C   UNL     1      -4.653  13.634  22.779  0.00  0.00    +0.000 A 
ATOM     19  C   UNL     1      -3.824  12.747  22.119  0.00  0.00    +0.000 A 
ATOM     20  O   UNL     1      -6.013  13.588  22.802  0.00  0.00    +0.000 OA
ATOM     21  C   UNL     1      -6.306  14.685  23.697  0.00  0.00    +0.000 C 
ATOM     22  O   UNL     1      -5.134  15.425  24.096  0.00  0.00    +0.000 OA
ENDBRANCH  12  14
ENDBRANCH   1  11
BRANCH   8  23
ATOM     23  C   UNL     1       3.107   6.563  19.314  0.00  0.00    +0.000 C 
BRANCH  23  24
ATOM     24  C   UNL     1       2.254   5.317  19.315  0.00  0.00    +0.000 A 
ATOM     25  C   UNL     1       1.761   4.792  20.519  0.00  0.00    +0.000 A 
ATOM     26  C   UNL     1       1.050   3.591  20.529  0.00  0.00    +0.000 A 
ATOM     27  C   UNL     1       0.823   2.906  19.338  0.00  0.00    +0.000 A 
ATOM     28  C   UNL     1       1.292   3.427  18.133  0.00  0.00    +0.000 A 
ATOM     29  C   UNL     1       2.002   4.628  18.120  0.00  0.00    +0.000 A 
ENDBRANCH  23  24
ENDBRANCH   8  23
TORSDOF 4
ENDMDL
MODEL 6
REMARK VINA RESULT:      -8.5      6.874     10.115
REMARK  Name = 
REMARK  4 active torsions:
REMARK  status: ('A' for Active; 'I' for Inactive)
REMARK    1  A    between atoms: C_2  and  C_13
REMARK    2  A    between atoms: N_3  and  C_4
REMARK    3  A    between atoms: N_20  and  C_21
REMARK    4  A    between atoms: C_21  and  C_22
REMARK                            x       y       z     vdW  Elec       q    Type
REMARK                         _______ _______ _______ _____ _____    ______ ____
ROOT
ATOM      1  C   UNL     1       8.259   8.755  18.344  0.00  0.00    +0.000 A 
ATOM      2  C   UNL     1       7.214   8.796  17.419  0.00  0.00    +0.000 A 
ATOM      3  N   UNL     1       6.481   7.731  16.998  0.00  0.00    +0.000 NA
ATOM      4  C   UNL     1       6.839   6.579  17.606  0.00  0.00    +0.000 A 
ATOM      5  C   UNL     1       7.833   6.414  18.563  0.00  0.00    +0.000 A 
ATOM      6  C   UNL     1       7.771   5.045  18.899  0.00  0.00    +0.000 A 
ATOM      7  N   UNL     1       6.834   4.381  18.216  0.00  0.00    +0.000 NA
ATOM      8  N   UNL     1       6.304   5.332  17.402  0.00  0.00    +0.000 N 
ATOM      9  C   UNL     1       8.583   7.537  18.950  0.00  0.00    +0.000 A 
ENDROOT
BRANCH   1  11
ATOM     10  O   UNL     1       9.403  10.120  19.824  0.00  0.00    +0.000 OA
ATOM     11  C   UNL     1       8.939  10.024  18.695  0.00  0.00    +0.000 C 
ATOM     12  N   UNL     1       8.926  11.008  17.718  0.00  0.00    +0.000 N 
ATOM     13  H   UNL     1       8.323  10.865  16.918  0.00  0.00    +0.000 HD
BRANCH  12  14
ATOM     14  C   UNL     1       9.520  12.288  17.826  0.00  0.00    +0.000 A 
ATOM     15  C   UNL     1      10.915  12.492  17.782  0.00  0.00    +0.000 A 
ATOM     16  C   UNL     1      11.468  13.769  17.933  0.00  0.00    +0.000 A 
ATOM     17  C   UNL     1      10.605  14.821  18.128  0.00  0.00    +0.000 A 
ATOM     18  C   UNL     1       9.244  14.639  18.152  0.00  0.00    +0.000 A 
ATOM     19  C   UNL     1       8.670  13.393  17.985  0.00  0.00    +0.000 A 
ATOM     20  O   UNL     1       8.574  15.805  18.368  0.00  0.00    +0.000 OA
ATOM     21  C   UNL     1       9.676  16.722  18.547  0.00  0.00    +0.000 C 
ATOM     22  O   UNL     1      10.965  16.116  18.327  0.00  0.00    +0.000 OA
ENDBRANCH  12  14
ENDBRANCH   1  11
BRANCH   8  23
ATOM     23  C   UNL     1       5.270   4.979  16.442  0.00  0.00    +0.000 C 
BRANCH  23  24
ATOM     24  C   UNL     1       3.993   4.592  17.148  0.00  0.00    +0.000 A 
ATOM     25  C   UNL     1       3.509   3.277  17.076  0.00  0.00    +0.000 A 
ATOM     26  C   UNL     1       2.283   2.941  17.651  0.00  0.00    +0.000 A 
ATOM     27  C   UNL     1       1.530   3.913  18.305  0.00  0.00    +0.000 A 
ATOM     28  C   UNL     1       2.008   5.220  18.399  0.00  0.00    +0.000 A 
ATOM     29  C   UNL     1       3.235   5.557  17.825  0.00  0.00    +0.000 A 
ENDBRANCH  23  24
ENDBRANCH   8  23
TORSDOF 4
ENDMDL
MODEL 7
REMARK VINA RESULT:      -8.4      3.961     10.187
REMARK  Name = 
REMARK  4 active torsions:
REMARK  status: ('A' for Active; 'I' for Inactive)
REMARK    1  A    between atoms: C_2  and  C_13
REMARK    2  A    between atoms: N_3  and  C_4
REMARK    3  A    between atoms: N_20  and  C_21
REMARK    4  A    between atoms: C_21  and  C_22
REMARK                            x       y       z     vdW  Elec       q    Type
REMARK                         _______ _______ _______ _____ _____    ______ ____
ROOT
ATOM      1  C   UNL     1       0.052   9.979  21.510  0.00  0.00    +0.000 A 
ATOM      2  C   UNL     1       0.825   8.937  22.026  0.00  0.00    +0.000 A 
ATOM      3  N   UNL     1       1.614   8.097  21.305  0.00  0.00    +0.000 NA
ATOM      4  C   UNL     1       1.619   8.392  19.986  0.00  0.00    +0.000 A 
ATOM      5  C   UNL     1       0.924   9.418  19.357  0.00  0.00    +0.000 A 
ATOM      6  C   UNL     1       1.304   9.318  18.003  0.00  0.00    +0.000 A 
ATOM      7  N   UNL     1       2.155   8.315  17.770  0.00  0.00    +0.000 NA
ATOM      8  N   UNL     1       2.303   7.738  18.992  0.00  0.00    +0.000 N 
ATOM      9  C   UNL     1       0.099  10.245  20.138  0.00  0.00    +0.000 A 
ENDROOT
BRANCH   1  11
ATOM     10  O   UNL     1      -0.768  10.446  23.625  0.00  0.00    +0.000 OA
ATOM     11  C   UNL     1      -0.740  10.803  22.454  0.00  0.00    +0.000 C 
ATOM     12  N   UNL     1      -1.427  11.870  21.896  0.00  0.00    +0.000 N 
ATOM     13  H   UNL     1      -1.483  11.915  20.886  0.00  0.00    +0.000 HD
BRANCH  12  14
ATOM     14  C   UNL     1      -2.234  12.794  22.603  0.00  0.00    +0.000 A 
ATOM     15  C   UNL     1      -3.642  12.727  22.616  0.00  0.00    +0.000 A 
ATOM     16  C   UNL     1      -4.409  13.682  23.294  0.00  0.00    +0.000 A 
ATOM     17  C   UNL     1      -3.742  14.693  23.945  0.00  0.00    +0.000 A 
ATOM     18  C   UNL     1      -2.371  14.758  23.957  0.00  0.00    +0.000 A 
ATOM     19  C   UNL     1      -1.589  13.817  23.315  0.00  0.00    +0.000 A 
ATOM     20  O   UNL     1      -1.914  15.839  24.647  0.00  0.00    +0.000 OA
ATOM     21  C   UNL     1      -3.159  16.479  25.004  0.00  0.00    +0.000 C 
ATOM     22  O   UNL     1      -4.322  15.719  24.620  0.00  0.00    +0.000 OA
ENDBRANCH  12  14
ENDBRANCH   1  11
BRANCH   8  23
ATOM     23  C   UNL     1       3.127   6.549  19.145  0.00  0.00    +0.000 C 
BRANCH  23  24
ATOM     24  C   UNL     1       2.270   5.307  19.195  0.00  0.00    +0.000 A 
ATOM     25  C   UNL     1       1.822   4.799  20.423  0.00  0.00    +0.000 A 
ATOM     26  C   UNL     1       1.108   3.601  20.476  0.00  0.00    +0.000 A 
ATOM     27  C   UNL     1       0.835   2.900  19.304  0.00  0.00    +0.000 A 
ATOM     28  C   UNL     1       1.260   3.403  18.075  0.00  0.00    +0.000 A 
ATOM     29  C   UNL     1       1.973   4.601  18.020  0.00  0.00    +0.000 A 
ENDBRANCH  23  24
ENDBRANCH   8  23
TORSDOF 4
ENDMDL
MODEL 8
REMARK VINA RESULT:      -8.4      1.260      2.177
REMARK  Name = 
REMARK  4 active torsions:
REMARK  status: ('A' for Active; 'I' for Inactive)
REMARK    1  A    between atoms: C_2  and  C_13
REMARK    2  A    between atoms: N_3  and  C_4
REMARK    3  A    between atoms: N_20  and  C_21
REMARK    4  A    between atoms: C_21  and  C_22
REMARK                            x       y       z     vdW  Elec       q    Type
REMARK                         _______ _______ _______ _____ _____    ______ ____
ROOT
ATOM      1  C   UNL     1       1.375   8.888  19.408  0.00  0.00    +0.000 A 
ATOM      2  C   UNL     1       0.596   9.972  18.998  0.00  0.00    +0.000 A 
ATOM      3  N   UNL     1      -0.183  10.742  19.803  0.00  0.00    +0.000 NA
ATOM      4  C   UNL     1      -0.110  10.378  21.102  0.00  0.00    +0.000 A 
ATOM      5  C   UNL     1       0.650   9.345  21.638  0.00  0.00    +0.000 A 
ATOM      6  C   UNL     1       0.406   9.416  23.026  0.00  0.00    +0.000 A 
ATOM      7  N   UNL     1      -0.441  10.394  23.359  0.00  0.00    +0.000 NA
ATOM      8  N   UNL     1      -0.774  10.943  22.162  0.00  0.00    +0.000 N 
ATOM      9  C   UNL     1       1.421   8.558  20.766  0.00  0.00    +0.000 A 
ENDROOT
BRANCH   1  11
ATOM     10  O   UNL     1       2.334   8.724  17.306  0.00  0.00    +0.000 OA
ATOM     11  C   UNL     1       2.175   8.170  18.387  0.00  0.00    +0.000 C 
ATOM     12  N   UNL     1       2.615   6.905  18.743  0.00  0.00    +0.000 N 
ATOM     13  H   UNL     1       2.228   6.494  19.583  0.00  0.00    +0.000 HD
BRANCH  12  14
ATOM     14  C   UNL     1       3.399   6.045  17.937  0.00  0.00    +0.000 A 
ATOM     15  C   UNL     1       3.070   4.692  17.715  0.00  0.00    +0.000 A 
ATOM     16  C   UNL     1       3.892   3.861  16.944  0.00  0.00    +0.000 A 
ATOM     17  C   UNL     1       5.035   4.408  16.411  0.00  0.00    +0.000 A 
ATOM     18  C   UNL     1       5.356   5.729  16.602  0.00  0.00    +0.000 A 
ATOM     19  C   UNL     1       4.553   6.577  17.341  0.00  0.00    +0.000 A 
ATOM     20  O   UNL     1       6.530   6.065  16.000  0.00  0.00    +0.000 OA
ATOM     21  C   UNL     1       6.940   4.784  15.472  0.00  0.00    +0.000 C 
ATOM     22  O   UNL     1       5.960   3.745  15.670  0.00  0.00    +0.000 OA
ENDBRANCH  12  14
ENDBRANCH   1  11
BRANCH   8  23
ATOM     23  C   UNL     1      -1.744  12.025  22.098  0.00  0.00    +0.000 C 
BRANCH  23  24
ATOM     24  C   UNL     1      -1.135  13.320  22.580  0.00  0.00    +0.000 A 
ATOM     25  C   UNL     1      -1.647  13.971  23.712  0.00  0.00    +0.000 A 
ATOM     26  C   UNL     1      -1.144  15.213  24.103  0.00  0.00    +0.000 A 
ATOM     27  C   UNL     1      -0.124  15.814  23.369  0.00  0.00    +0.000 A 
ATOM     28  C   UNL     1       0.404  15.169  22.251  0.00  0.00    +0.000 A 
ATOM     29  C   UNL     1      -0.096  13.927  21.859  0.00  0.00    +0.000 A 
ENDBRANCH  23  24
ENDBRANCH   8  23
TORSDOF 4
ENDMDL
MODEL 9
REMARK VINA RESULT:      -8.4      3.790      9.965
REMARK  Name = 
REMARK  4 active torsions:
REMARK  status: ('A' for Active; 'I' for Inactive)
REMARK    1  A    between atoms: C_2  and  C_13
REMARK    2  A    between atoms: N_3  and  C_4
REMARK    3  A    between atoms: N_20  and  C_21
REMARK    4  A    between atoms: C_21  and  C_22
REMARK                            x       y       z     vdW  Elec       q    Type
REMARK                         _______ _______ _______ _____ _____    ______ ____
ROOT
ATOM      1  C   UNL     1       0.082  10.134  20.441  0.00  0.00    +0.000 A 
ATOM      2  C   UNL     1       0.556   9.181  21.345  0.00  0.00    +0.000 A 
ATOM      3  N   UNL     1       1.412   8.165  21.055  0.00  0.00    +0.000 NA
ATOM      4  C   UNL     1       1.814   8.174  19.766  0.00  0.00    +0.000 A 
ATOM      5  C   UNL     1       1.443   9.083  18.782  0.00  0.00    +0.000 A 
ATOM      6  C   UNL     1       2.169   8.679  17.642  0.00  0.00    +0.000 A 
ATOM      7  N   UNL     1       2.929   7.603  17.860  0.00  0.00    +0.000 NA
ATOM      8  N   UNL     1       2.666   7.288  19.155  0.00  0.00    +0.000 N 
ATOM      9  C   UNL     1       0.536  10.103  19.119  0.00  0.00    +0.000 A 
ENDROOT
BRANCH   1  11
ATOM     10  O   UNL     1      -1.497  11.795  20.110  0.00  0.00    +0.000 OA
ATOM     11  C   UNL     1      -0.839  11.181  20.941  0.00  0.00    +0.000 C 
ATOM     12  N   UNL     1      -0.816  11.405  22.309  0.00  0.00    +0.000 N 
ATOM     13  H   UNL     1      -0.071  10.974  22.841  0.00  0.00    +0.000 HD
BRANCH  12  14
ATOM     14  C   UNL     1      -1.613  12.344  23.007  0.00  0.00    +0.000 A 
ATOM     15  C   UNL     1      -2.925  12.062  23.440  0.00  0.00    +0.000 A 
ATOM     16  C   UNL     1      -3.699  13.029  24.093  0.00  0.00    +0.000 A 
ATOM     17  C   UNL     1      -3.138  14.268  24.296  0.00  0.00    +0.000 A 
ATOM     18  C   UNL     1      -1.854  14.549  23.897  0.00  0.00    +0.000 A 
ATOM     19  C   UNL     1      -1.061  13.607  23.270  0.00  0.00    +0.000 A 
ATOM     20  O   UNL     1      -1.496  15.831  24.182  0.00  0.00    +0.000 OA
ATOM     21  C   UNL     1      -2.730  16.338  24.739  0.00  0.00    +0.000 C 
ATOM     22  O   UNL     1      -3.751  15.331  24.877  0.00  0.00    +0.000 OA
ENDBRANCH  12  14
ENDBRANCH   1  11
BRANCH   8  23
ATOM     23  C   UNL     1       3.272   6.113  19.760  0.00  0.00    +0.000 C 
BRANCH  23  24
ATOM     24  C   UNL     1       2.409   4.893  19.544  0.00  0.00    +0.000 A 
ATOM     25  C   UNL     1       2.280   4.329  18.266  0.00  0.00    +0.000 A 
ATOM     26  C   UNL     1       1.411   3.259  18.049  0.00  0.00    +0.000 A 
ATOM     27  C   UNL     1       0.666   2.740  19.106  0.00  0.00    +0.000 A 
ATOM     28  C   UNL     1       0.799   3.281  20.384  0.00  0.00    +0.000 A 
ATOM     29  C   UNL     1       1.668   4.351  20.603  0.00  0.00    +0.000 A 
ENDBRANCH  23  24
ENDBRANCH   8  23
TORSDOF 4
ENDMDL
