MODEL 1
REMARK VINA RESULT:      -9.1      0.000      0.000
REMARK  Name = 
REMARK  4 active torsions:
REMARK  status: ('A' for Active; 'I' for Inactive)
REMARK    1  A    between atoms: C_1  and  N_2
REMARK    2  A    between atoms: C_10  and  C_11
REMARK    3  A    between atoms: N_13  and  C_14
REMARK    4  A    between atoms: C_19  and  N_20
REMARK                            x       y       z     vdW  Elec       q    Type
REMARK                         _______ _______ _______ _____ _____    ______ ____
ROOT
ATOM      1  C   UNL     1       1.999   6.912  19.172  0.00  0.00    +0.000 C 
ATOM      2  O   UNL     1       1.779   6.645  17.996  0.00  0.00    +0.000 OA
ATOM      3  N   UNL     1       2.508   6.036  20.125  0.00  0.00    +0.000 N 
ATOM      4  H   UNL     1       2.301   6.229  21.095  0.00  0.00    +0.000 HD
ENDROOT
BRANCH   1  14
ATOM      5  C   UNL     1      -0.568  12.411  21.889  0.00  0.00    +0.000 C 
ATOM      6  N   UNL     1       0.599  12.118  21.083  0.00  0.00    +0.000 N 
ATOM      7  C   UNL     1       1.634  13.140  20.854  0.00  0.00    +0.000 C 
ATOM      8  C   UNL     1       1.570  13.703  19.438  0.00  0.00    +0.000 C 
ATOM      9  C   UNL     1       1.909  12.612  18.446  0.00  0.00    +0.000 C 
ATOM     10  O   UNL     1       2.977  12.561  17.847  0.00  0.00    +0.000 OA
ATOM     11  N   UNL     1       0.922  11.637  18.358  0.00  0.00    +0.000 N 
ATOM     12  C   UNL     1       1.121  10.577  19.285  0.00  0.00    +0.000 A 
ATOM     13  C   UNL     1       1.480   9.323  18.797  0.00  0.00    +0.000 A 
ATOM     14  C   UNL     1       1.626   8.265  19.683  0.00  0.00    +0.000 A 
ATOM     15  C   UNL     1       1.386   8.472  21.054  0.00  0.00    +0.000 A 
ATOM     16  C   UNL     1       1.007   9.743  21.532  0.00  0.00    +0.000 A 
ATOM     17  C   UNL     1       0.882  10.819  20.656  0.00  0.00    +0.000 A 
ATOM     18  H   UNL     1       0.049  12.074  18.646  0.00  0.00    +0.000 HD
ENDBRANCH   1  14
BRANCH   3  19
ATOM     19  C   UNL     1       2.745   4.671  19.833  0.00  0.00    +0.000 A 
ATOM     20  C   UNL     1       1.781   3.755  20.290  0.00  0.00    +0.000 A 
ATOM     21  C   UNL     1       1.879   2.403  19.977  0.00  0.00    +0.000 A 
ATOM     22  C   UNL     1       2.945   1.960  19.213  0.00  0.00    +0.000 A 
ATOM     23  C   UNL     1       3.893   2.873  18.734  0.00  0.00    +0.000 A 
ATOM     24  C   UNL     1       3.835   4.257  19.015  0.00  0.00    +0.000 A 
BRANCH  24  25
ATOM     25  N   UNL     1       4.855   5.113  18.551  0.00  0.00    +0.000 N 
ATOM     26  C   UNL     1       4.771   5.716  17.214  0.00  0.00    +0.000 C 
ATOM     27  C   UNL     1       5.519   4.906  16.151  0.00  0.00    +0.000 C 
ATOM     28  C   UNL     1       7.039   5.033  16.180  0.00  0.00    +0.000 C 
ATOM     29  C   UNL     1       7.678   4.652  17.511  0.00  0.00    +0.000 C 
ATOM     30  C   UNL     1       7.337   5.647  18.608  0.00  0.00    +0.000 C 
ATOM     31  C   UNL     1       6.056   5.314  19.362  0.00  0.00    +0.000 C 
ENDBRANCH  24  25
ENDBRANCH   3  19
TORSDOF 3
ENDMDL
MODEL 2
REMARK VINA RESULT:      -8.8      1.604      2.301
REMARK  Name = 
REMARK  4 active torsions:
REMARK  status: ('A' for Active; 'I' for Inactive)
REMARK    1  A    between atoms: C_1  and  N_2
REMARK    2  A    between atoms: C_10  and  C_11
REMARK    3  A    between atoms: N_13  and  C_14
REMARK    4  A    between atoms: C_19  and  N_20
REMARK                            x       y       z     vdW  Elec       q    Type
REMARK                         _______ _______ _______ _____ _____    ______ ____
ROOT
ATOM      1  C   UNL     1       1.979   6.718  19.495  0.00  0.00    +0.000 C 
ATOM      2  O   UNL     1       2.218   6.323  20.631  0.00  0.00    +0.000 OA
ATOM      3  N   UNL     1       1.951   5.931  18.349  0.00  0.00    +0.000 N 
ATOM      4  H   UNL     1       2.115   6.389  17.464  0.00  0.00    +0.000 HD
ENDROOT
BRANCH   1  14
ATOM      5  C   UNL     1       2.138  13.228  18.156  0.00  0.00    +0.000 C 
ATOM      6  N   UNL     1       1.144  12.317  18.685  0.00  0.00    +0.000 N 
ATOM      7  C   UNL     1      -0.251  12.751  18.877  0.00  0.00    +0.000 C 
ATOM      8  C   UNL     1      -0.576  12.972  20.351  0.00  0.00    +0.000 C 
ATOM      9  C   UNL     1      -0.499  11.652  21.087  0.00  0.00    +0.000 C 
ATOM     10  O   UNL     1      -1.491  11.041  21.469  0.00  0.00    +0.000 OA
ATOM     11  N   UNL     1       0.800  11.173  21.201  0.00  0.00    +0.000 N 
ATOM     12  C   UNL     1       1.175  10.351  20.103  0.00  0.00    +0.000 A 
ATOM     13  C   UNL     1       1.354   8.987  20.322  0.00  0.00    +0.000 A 
ATOM     14  C   UNL     1       1.771   8.180  19.272  0.00  0.00    +0.000 A 
ATOM     15  C   UNL     1       2.029   8.756  18.015  0.00  0.00    +0.000 A 
ATOM     16  C   UNL     1       1.860  10.141  17.813  0.00  0.00    +0.000 A 
ATOM     17  C   UNL     1       1.416  10.958  18.850  0.00  0.00    +0.000 A 
ATOM     18  H   UNL     1       1.418  11.980  21.145  0.00  0.00    +0.000 HD
ENDBRANCH   1  14
BRANCH   3  19
ATOM     19  C   UNL     1       2.299   4.559  18.376  0.00  0.00    +0.000 A 
ATOM     20  C   UNL     1       1.254   3.651  18.623  0.00  0.00    +0.000 A 
ATOM     21  C   UNL     1       1.477   2.279  18.581  0.00  0.00    +0.000 A 
ATOM     22  C   UNL     1       2.749   1.808  18.301  0.00  0.00    +0.000 A 
ATOM     23  C   UNL     1       3.786   2.709  18.029  0.00  0.00    +0.000 A 
ATOM     24  C   UNL     1       3.611   4.111  18.049  0.00  0.00    +0.000 A 
BRANCH  24  25
ATOM     25  N   UNL     1       4.712   4.962  17.824  0.00  0.00    +0.000 N 
ATOM     26  C   UNL     1       4.959   5.523  16.488  0.00  0.00    +0.000 C 
ATOM     27  C   UNL     1       5.948   4.688  15.669  0.00  0.00    +0.000 C 
ATOM     28  C   UNL     1       7.414   4.831  16.068  0.00  0.00    +0.000 C 
ATOM     29  C   UNL     1       7.705   4.497  17.526  0.00  0.00    +0.000 C 
ATOM     30  C   UNL     1       7.102   5.522  18.474  0.00  0.00    +0.000 C 
ATOM     31  C   UNL     1       5.675   5.199  18.899  0.00  0.00    +0.000 C 
ENDBRANCH  24  25
ENDBRANCH   3  19
TORSDOF 3
ENDMDL
MODEL 3
REMARK VINA RESULT:      -8.7      1.110      1.126
REMARK  Name = 
REMARK  4 active torsions:
REMARK  status: ('A' for Active; 'I' for Inactive)
REMARK    1  A    between atoms: C_1  and  N_2
REMARK    2  A    between atoms: C_10  and  C_11
REMARK    3  A    between atoms: N_13  and  C_14
REMARK    4  A    between atoms: C_19  and  N_20
REMARK                            x       y       z     vdW  Elec       q    Type
REMARK                         _______ _______ _______ _____ _____    ______ ____
ROOT
ATOM      1  C   UNL     1       1.834   6.332  20.315  0.00  0.00    +0.000 C 
ATOM      2  O   UNL     1       2.192   5.684  21.293  0.00  0.00    +0.000 OA
ATOM      3  N   UNL     1       1.768   5.862  19.008  0.00  0.00    +0.000 N 
ATOM      4  H   UNL     1       1.827   6.542  18.264  0.00  0.00    +0.000 HD
ENDROOT
BRANCH   1  14
ATOM      5  C   UNL     1      -0.531  12.398  21.663  0.00  0.00    +0.000 C 
ATOM      6  N   UNL     1       0.614  11.884  20.939  0.00  0.00    +0.000 N 
ATOM      7  C   UNL     1       1.673  12.789  20.462  0.00  0.00    +0.000 C 
ATOM      8  C   UNL     1       1.600  12.999  18.953  0.00  0.00    +0.000 C 
ATOM      9  C   UNL     1       1.892  11.693  18.248  0.00  0.00    +0.000 C 
ATOM     10  O   UNL     1       2.948  11.467  17.668  0.00  0.00    +0.000 OA
ATOM     11  N   UNL     1       0.877  10.756  18.405  0.00  0.00    +0.000 N 
ATOM     12  C   UNL     1       1.062   9.943  19.556  0.00  0.00    +0.000 A 
ATOM     13  C   UNL     1       1.377   8.598  19.379  0.00  0.00    +0.000 A 
ATOM     14  C   UNL     1       1.508   7.778  20.491  0.00  0.00    +0.000 A 
ATOM     15  C   UNL     1       1.297   8.314  21.775  0.00  0.00    +0.000 A 
ATOM     16  C   UNL     1       0.962   9.674  21.939  0.00  0.00    +0.000 A 
ATOM     17  C   UNL     1       0.853  10.513  20.833  0.00  0.00    +0.000 A 
ATOM     18  H   UNL     1       0.022  11.277  18.589  0.00  0.00    +0.000 HD
ENDBRANCH   1  14
BRANCH   3  19
ATOM     19  C   UNL     1       2.211   4.564  18.657  0.00  0.00    +0.000 A 
ATOM     20  C   UNL     1       1.241   3.545  18.667  0.00  0.00    +0.000 A 
ATOM     21  C   UNL     1       1.558   2.256  18.253  0.00  0.00    +0.000 A 
ATOM     22  C   UNL     1       2.848   1.977  17.835  0.00  0.00    +0.000 A 
ATOM     23  C   UNL     1       3.810   2.995  17.799  0.00  0.00    +0.000 A 
ATOM     24  C   UNL     1       3.538   4.322  18.200  0.00  0.00    +0.000 A 
BRANCH  24  25
ATOM     25  N   UNL     1       4.568   5.284  18.195  0.00  0.00    +0.000 N 
ATOM     26  C   UNL     1       4.703   6.225  17.074  0.00  0.00    +0.000 C 
ATOM     27  C   UNL     1       5.696   5.742  16.012  0.00  0.00    +0.000 C 
ATOM     28  C   UNL     1       7.169   5.877  16.383  0.00  0.00    +0.000 C 
ATOM     29  C   UNL     1       7.563   5.158  17.668  0.00  0.00    +0.000 C 
ATOM     30  C   UNL     1       6.951   5.815  18.895  0.00  0.00    +0.000 C 
ATOM     31  C   UNL     1       5.574   5.274  19.257  0.00  0.00    +0.000 C 
ENDBRANCH  24  25
ENDBRANCH   3  19
TORSDOF 3
ENDMDL
MODEL 4
REMARK VINA RESULT:      -8.6      2.004      3.866
REMARK  Name = 
REMARK  4 active torsions:
REMARK  status: ('A' for Active; 'I' for Inactive)
REMARK    1  A    between atoms: C_1  and  N_2
REMARK    2  A    between atoms: C_10  and  C_11
REMARK    3  A    between atoms: N_13  and  C_14
REMARK    4  A    between atoms: C_19  and  N_20
REMARK                            x       y       z     vdW  Elec       q    Type
REMARK                         _______ _______ _______ _____ _____    ______ ____
ROOT
ATOM      1  C   UNL     1       1.965   8.575  18.314  0.00  0.00    +0.000 C 
ATOM      2  O   UNL     1       1.745   8.771  17.124  0.00  0.00    +0.000 OA
ATOM      3  N   UNL     1       2.802   7.594  18.836  0.00  0.00    +0.000 N 
ATOM      4  H   UNL     1       2.625   7.284  19.780  0.00  0.00    +0.000 HD
ENDROOT
BRANCH   1  14
ATOM      5  C   UNL     1      -1.704  11.199  23.198  0.00  0.00    +0.000 C 
ATOM      6  N   UNL     1      -0.866  11.738  22.146  0.00  0.00    +0.000 N 
ATOM      7  C   UNL     1      -0.527  13.170  22.111  0.00  0.00    +0.000 C 
ATOM      8  C   UNL     1      -1.296  13.906  21.018  0.00  0.00    +0.000 C 
ATOM      9  C   UNL     1      -0.859  13.394  19.663  0.00  0.00    +0.000 C 
ATOM     10  O   UNL     1      -0.142  14.037  18.904  0.00  0.00    +0.000 OA
ATOM     11  N   UNL     1      -1.283  12.093  19.415  0.00  0.00    +0.000 N 
ATOM     12  C   UNL     1      -0.345  11.122  19.859  0.00  0.00    +0.000 A 
ATOM     13  C   UNL     1       0.347  10.377  18.906  0.00  0.00    +0.000 A 
ATOM     14  C   UNL     1       1.227   9.389  19.324  0.00  0.00    +0.000 A 
ATOM     15  C   UNL     1       1.387   9.140  20.700  0.00  0.00    +0.000 A 
ATOM     16  C   UNL     1       0.668   9.891  21.653  0.00  0.00    +0.000 A 
ATOM     17  C   UNL     1      -0.199  10.903  21.248  0.00  0.00    +0.000 A 
ATOM     18  H   UNL     1      -2.109  11.939  19.989  0.00  0.00    +0.000 HD
ENDBRANCH   1  14
BRANCH   3  19
ATOM     19  C   UNL     1       3.434   6.635  18.009  0.00  0.00    +0.000 A 
ATOM     20  C   UNL     1       4.496   7.096  17.210  0.00  0.00    +0.000 A 
ATOM     21  C   UNL     1       5.237   6.215  16.432  0.00  0.00    +0.000 A 
ATOM     22  C   UNL     1       4.916   4.868  16.441  0.00  0.00    +0.000 A 
ATOM     23  C   UNL     1       3.876   4.401  17.255  0.00  0.00    +0.000 A 
ATOM     24  C   UNL     1       3.098   5.252  18.071  0.00  0.00    +0.000 A 
BRANCH  24  25
ATOM     25  N   UNL     1       2.028   4.724  18.821  0.00  0.00    +0.000 N 
ATOM     26  C   UNL     1       1.772   5.197  20.189  0.00  0.00    +0.000 C 
ATOM     27  C   UNL     1       2.428   4.313  21.254  0.00  0.00    +0.000 C 
ATOM     28  C   UNL     1       1.733   2.980  21.518  0.00  0.00    +0.000 C 
ATOM     29  C   UNL     1       1.582   2.094  20.287  0.00  0.00    +0.000 C 
ATOM     30  C   UNL     1       0.597   2.678  19.287  0.00  0.00    +0.000 C 
ATOM     31  C   UNL     1       1.237   3.621  18.276  0.00  0.00    +0.000 C 
ENDBRANCH  24  25
ENDBRANCH   3  19
TORSDOF 3
ENDMDL
MODEL 5
REMARK VINA RESULT:      -8.6      1.417      2.304
REMARK  Name = 
REMARK  4 active torsions:
REMARK  status: ('A' for Active; 'I' for Inactive)
REMARK    1  A    between atoms: C_1  and  N_2
REMARK    2  A    between atoms: C_10  and  C_11
REMARK    3  A    between atoms: N_13  and  C_14
REMARK    4  A    between atoms: C_19  and  N_20
REMARK                            x       y       z     vdW  Elec       q    Type
REMARK                         _______ _______ _______ _____ _____    ______ ____
ROOT
ATOM      1  C   UNL     1       2.087   6.855  19.016  0.00  0.00    +0.000 C 
ATOM      2  O   UNL     1       1.846   6.390  17.908  0.00  0.00    +0.000 OA
ATOM      3  N   UNL     1       2.652   6.164  20.083  0.00  0.00    +0.000 N 
ATOM      4  H   UNL     1       2.464   6.507  21.014  0.00  0.00    +0.000 HD
ENDROOT
BRANCH   1  14
ATOM      5  C   UNL     1       1.216  13.403  19.766  0.00  0.00    +0.000 C 
ATOM      6  N   UNL     1       0.496  12.221  20.192  0.00  0.00    +0.000 N 
ATOM      7  C   UNL     1      -0.835  12.331  20.812  0.00  0.00    +0.000 C 
ATOM      8  C   UNL     1      -0.781  12.076  22.315  0.00  0.00    +0.000 C 
ATOM      9  C   UNL     1      -0.378  10.640  22.568  0.00  0.00    +0.000 C 
ATOM     10  O   UNL     1      -1.165   9.782  22.951  0.00  0.00    +0.000 OA
ATOM     11  N   UNL     1       0.948  10.386  22.238  0.00  0.00    +0.000 N 
ATOM     12  C   UNL     1       1.103   9.978  20.885  0.00  0.00    +0.000 A 
ATOM     13  C   UNL     1       1.472   8.660  20.623  0.00  0.00    +0.000 A 
ATOM     14  C   UNL     1       1.679   8.261  19.310  0.00  0.00    +0.000 A 
ATOM     15  C   UNL     1       1.534   9.197  18.270  0.00  0.00    +0.000 A 
ATOM     16  C   UNL     1       1.176  10.532  18.551  0.00  0.00    +0.000 A 
ATOM     17  C   UNL     1       0.941  10.939  19.862  0.00  0.00    +0.000 A 
ATOM     18  H   UNL     1       1.443  11.273  22.300  0.00  0.00    +0.000 HD
ENDBRANCH   1  14
BRANCH   3  19
ATOM     19  C   UNL     1       2.932   4.778  20.011  0.00  0.00    +0.000 A 
ATOM     20  C   UNL     1       2.018   3.920  20.649  0.00  0.00    +0.000 A 
ATOM     21  C   UNL     1       2.156   2.539  20.560  0.00  0.00    +0.000 A 
ATOM     22  C   UNL     1       3.213   2.009  19.840  0.00  0.00    +0.000 A 
ATOM     23  C   UNL     1       4.110   2.860  19.182  0.00  0.00    +0.000 A 
ATOM     24  C   UNL     1       4.010   4.269  19.232  0.00  0.00    +0.000 A 
BRANCH  24  25
ATOM     25  N   UNL     1       4.981   5.068  18.595  0.00  0.00    +0.000 N 
ATOM     26  C   UNL     1       4.831   5.437  17.181  0.00  0.00    +0.000 C 
ATOM     27  C   UNL     1       5.576   4.486  16.239  0.00  0.00    +0.000 C 
ATOM     28  C   UNL     1       7.090   4.665  16.189  0.00  0.00    +0.000 C 
ATOM     29  C   UNL     1       7.785   4.531  17.539  0.00  0.00    +0.000 C 
ATOM     30  C   UNL     1       7.441   5.684  18.470  0.00  0.00    +0.000 C 
ATOM     31  C   UNL     1       6.199   5.439  19.316  0.00  0.00    +0.000 C 
ENDBRANCH  24  25
ENDBRANCH   3  19
TORSDOF 3
ENDMDL
MODEL 6
REMARK VINA RESULT:      -8.4      1.807      3.604
REMARK  Name = 
REMARK  4 active torsions:
REMARK  status: ('A' for Active; 'I' for Inactive)
REMARK    1  A    between atoms: C_1  and  N_2
REMARK    2  A    between atoms: C_10  and  C_11
REMARK    3  A    between atoms: N_13  and  C_14
REMARK    4  A    between atoms: C_19  and  N_20
REMARK                            x       y       z     vdW  Elec       q    Type
REMARK                         _______ _______ _______ _____ _____    ______ ____
ROOT
ATOM      1  C   UNL     1       3.002   7.490  17.771  0.00  0.00    +0.000 C 
ATOM      2  O   UNL     1       3.006   7.981  16.648  0.00  0.00    +0.000 OA
ATOM      3  N   UNL     1       3.653   6.321  18.150  0.00  0.00    +0.000 N 
ATOM      4  H   UNL     1       3.293   5.824  18.952  0.00  0.00    +0.000 HD
ENDROOT
BRANCH   1  14
ATOM      5  C   UNL     1      -1.063   9.293  22.714  0.00  0.00    +0.000 C 
ATOM      6  N   UNL     1      -0.179   9.998  21.809  0.00  0.00    +0.000 N 
ATOM      7  C   UNL     1       0.111  11.429  21.999  0.00  0.00    +0.000 C 
ATOM      8  C   UNL     1      -0.611  12.293  20.971  0.00  0.00    +0.000 C 
ATOM      9  C   UNL     1      -0.071  11.992  19.590  0.00  0.00    +0.000 C 
ATOM     10  O   UNL     1       0.670  12.755  18.981  0.00  0.00    +0.000 OA
ATOM     11  N   UNL     1      -0.431  10.730  19.133  0.00  0.00    +0.000 N 
ATOM     12  C   UNL     1       0.510   9.729  19.499  0.00  0.00    +0.000 A 
ATOM     13  C   UNL     1       1.286   9.147  18.500  0.00  0.00    +0.000 A 
ATOM     14  C   UNL     1       2.172   8.132  18.834  0.00  0.00    +0.000 A 
ATOM     15  C   UNL     1       2.253   7.693  20.169  0.00  0.00    +0.000 A 
ATOM     16  C   UNL     1       1.448   8.280  21.166  0.00  0.00    +0.000 A 
ATOM     17  C   UNL     1       0.574   9.318  20.850  0.00  0.00    +0.000 A 
ATOM     18  H   UNL     1      -1.287  10.473  19.621  0.00  0.00    +0.000 HD
ENDBRANCH   1  14
BRANCH   3  19
ATOM     19  C   UNL     1       4.335   5.509  17.213  0.00  0.00    +0.000 A 
ATOM     20  C   UNL     1       5.088   6.179  16.232  0.00  0.00    +0.000 A 
ATOM     21  C   UNL     1       5.864   5.471  15.321  0.00  0.00    +0.000 A 
ATOM     22  C   UNL     1       5.885   4.088  15.381  0.00  0.00    +0.000 A 
ATOM     23  C   UNL     1       5.158   3.417  16.372  0.00  0.00    +0.000 A 
ATOM     24  C   UNL     1       4.361   4.089  17.327  0.00  0.00    +0.000 A 
BRANCH  24  25
ATOM     25  N   UNL     1       3.608   3.350  18.261  0.00  0.00    +0.000 N 
ATOM     26  C   UNL     1       2.225   2.957  17.958  0.00  0.00    +0.000 C 
ATOM     27  C   UNL     1       1.193   3.945  18.511  0.00  0.00    +0.000 C 
ATOM     28  C   UNL     1       0.951   3.867  20.015  0.00  0.00    +0.000 C 
ATOM     29  C   UNL     1       2.202   4.062  20.865  0.00  0.00    +0.000 C 
ATOM     30  C   UNL     1       3.171   2.899  20.722  0.00  0.00    +0.000 C 
ATOM     31  C   UNL     1       4.168   3.069  19.583  0.00  0.00    +0.000 C 
ENDBRANCH  24  25
ENDBRANCH   3  19
TORSDOF 3
ENDMDL
MODEL 7
REMARK VINA RESULT:      -8.3      1.525      2.245
REMARK  Name = 
REMARK  4 active torsions:
REMARK  status: ('A' for Active; 'I' for Inactive)
REMARK    1  A    between atoms: C_1  and  N_2
REMARK    2  A    between atoms: C_10  and  C_11
REMARK    3  A    between atoms: N_13  and  C_14
REMARK    4  A    between atoms: C_19  and  N_20
REMARK                            x       y       z     vdW  Elec       q    Type
REMARK                         _______ _______ _______ _____ _____    ______ ____
ROOT
ATOM      1  C   UNL     1       2.034   7.671  18.589  0.00  0.00    +0.000 C 
ATOM      2  O   UNL     1       1.603   7.063  17.616  0.00  0.00    +0.000 OA
ATOM      3  N   UNL     1       2.657   7.102  19.695  0.00  0.00    +0.000 N 
ATOM      4  H   UNL     1       2.630   7.616  20.563  0.00  0.00    +0.000 HD
ENDROOT
BRANCH   1  14
ATOM      5  C   UNL     1       2.200  14.297  19.111  0.00  0.00    +0.000 C 
ATOM      6  N   UNL     1       1.156  13.313  18.909  0.00  0.00    +0.000 N 
ATOM      7  C   UNL     1      -0.217  13.728  18.572  0.00  0.00    +0.000 C 
ATOM      8  C   UNL     1      -1.162  13.569  19.759  0.00  0.00    +0.000 C 
ATOM      9  C   UNL     1      -1.297  12.102  20.103  0.00  0.00    +0.000 C 
ATOM     10  O   UNL     1      -2.301  11.446  19.848  0.00  0.00    +0.000 OA
ATOM     11  N   UNL     1      -0.137  11.567  20.651  0.00  0.00    +0.000 N 
ATOM     12  C   UNL     1       0.741  11.046  19.662  0.00  0.00    +0.000 A 
ATOM     13  C   UNL     1       0.924   9.667  19.592  0.00  0.00    +0.000 A 
ATOM     14  C   UNL     1       1.819   9.147  18.667  0.00  0.00    +0.000 A 
ATOM     15  C   UNL     1       2.542  10.021  17.836  0.00  0.00    +0.000 A 
ATOM     16  C   UNL     1       2.360  11.416  17.929  0.00  0.00    +0.000 A 
ATOM     17  C   UNL     1       1.446  11.950  18.835  0.00  0.00    +0.000 A 
ATOM     18  H   UNL     1       0.373  12.340  21.072  0.00  0.00    +0.000 HD
ENDBRANCH   1  14
BRANCH   3  19
ATOM     19  C   UNL     1       2.776   5.699  19.844  0.00  0.00    +0.000 A 
ATOM     20  C   UNL     1       1.719   5.046  20.504  0.00  0.00    +0.000 A 
ATOM     21  C   UNL     1       1.700   3.661  20.622  0.00  0.00    +0.000 A 
ATOM     22  C   UNL     1       2.743   2.922  20.089  0.00  0.00    +0.000 A 
ATOM     23  C   UNL     1       3.784   3.566  19.409  0.00  0.00    +0.000 A 
ATOM     24  C   UNL     1       3.847   4.969  19.253  0.00  0.00    +0.000 A 
BRANCH  24  25
ATOM     25  N   UNL     1       4.953   5.557  18.608  0.00  0.00    +0.000 N 
ATOM     26  C   UNL     1       4.849   6.014  17.216  0.00  0.00    +0.000 C 
ATOM     27  C   UNL     1       5.330   4.964  16.210  0.00  0.00    +0.000 C 
ATOM     28  C   UNL     1       6.844   4.801  16.108  0.00  0.00    +0.000 C 
ATOM     29  C   UNL     1       7.530   4.453  17.424  0.00  0.00    +0.000 C 
ATOM     30  C   UNL     1       7.485   5.610  18.409  0.00  0.00    +0.000 C 
ATOM     31  C   UNL     1       6.245   5.613  19.294  0.00  0.00    +0.000 C 
ENDBRANCH  24  25
ENDBRANCH   3  19
TORSDOF 3
ENDMDL
MODEL 8
REMARK VINA RESULT:      -8.2      1.709      3.556
REMARK  Name = 
REMARK  4 active torsions:
REMARK  status: ('A' for Active; 'I' for Inactive)
REMARK    1  A    between atoms: C_1  and  N_2
REMARK    2  A    between atoms: C_10  and  C_11
REMARK    3  A    between atoms: N_13  and  C_14
REMARK    4  A    between atoms: C_19  and  N_20
REMARK                            x       y       z     vdW  Elec       q    Type
REMARK                         _______ _______ _______ _____ _____    ______ ____
ROOT
ATOM      1  C   UNL     1       3.696   6.394  18.672  0.00  0.00    +0.000 C 
ATOM      2  O   UNL     1       4.645   6.057  19.371  0.00  0.00    +0.000 OA
ATOM      3  N   UNL     1       3.447   5.960  17.374  0.00  0.00    +0.000 N 
ATOM      4  H   UNL     1       2.888   6.556  16.781  0.00  0.00    +0.000 HD
ENDROOT
BRANCH   1  14
ATOM      5  C   UNL     1      -1.236  10.085  21.172  0.00  0.00    +0.000 C 
ATOM      6  N   UNL     1       0.082  10.365  20.640  0.00  0.00    +0.000 N 
ATOM      7  C   UNL     1       0.669  11.711  20.749  0.00  0.00    +0.000 C 
ATOM      8  C   UNL     1       0.658  12.443  19.411  0.00  0.00    +0.000 C 
ATOM      9  C   UNL     1       1.566  11.726  18.436  0.00  0.00    +0.000 C 
ATOM     10  O   UNL     1       2.663  12.159  18.103  0.00  0.00    +0.000 OA
ATOM     11  N   UNL     1       1.063  10.493  18.036  0.00  0.00    +0.000 N 
ATOM     12  C   UNL     1       1.477   9.434  18.889  0.00  0.00    +0.000 A 
ATOM     13  C   UNL     1       2.373   8.490  18.393  0.00  0.00    +0.000 A 
ATOM     14  C   UNL     1       2.746   7.420  19.195  0.00  0.00    +0.000 A 
ATOM     15  C   UNL     1       2.196   7.296  20.484  0.00  0.00    +0.000 A 
ATOM     16  C   UNL     1       1.277   8.250  20.967  0.00  0.00    +0.000 A 
ATOM     17  C   UNL     1       0.914   9.342  20.182  0.00  0.00    +0.000 A 
ATOM     18  H   UNL     1       0.052  10.537  18.148  0.00  0.00    +0.000 HD
ENDBRANCH   1  14
BRANCH   3  19
ATOM     19  C   UNL     1       4.353   5.121  16.680  0.00  0.00    +0.000 A 
ATOM     20  C   UNL     1       5.178   5.743  15.726  0.00  0.00    +0.000 A 
ATOM     21  C   UNL     1       6.161   5.022  15.056  0.00  0.00    +0.000 A 
ATOM     22  C   UNL     1       6.318   3.675  15.331  0.00  0.00    +0.000 A 
ATOM     23  C   UNL     1       5.515   3.058  16.299  0.00  0.00    +0.000 A 
ATOM     24  C   UNL     1       4.510   3.746  17.015  0.00  0.00    +0.000 A 
BRANCH  24  25
ATOM     25  N   UNL     1       3.698   3.051  17.934  0.00  0.00    +0.000 N 
ATOM     26  C   UNL     1       2.312   2.704  17.591  0.00  0.00    +0.000 C 
ATOM     27  C   UNL     1       1.301   3.739  18.093  0.00  0.00    +0.000 C 
ATOM     28  C   UNL     1       1.006   3.694  19.589  0.00  0.00    +0.000 C 
ATOM     29  C   UNL     1       2.234   3.856  20.478  0.00  0.00    +0.000 C 
ATOM     30  C   UNL     1       3.163   2.656  20.385  0.00  0.00    +0.000 C 
ATOM     31  C   UNL     1       4.203   2.770  19.278  0.00  0.00    +0.000 C 
ENDBRANCH  24  25
ENDBRANCH   3  19
TORSDOF 3
ENDMDL
MODEL 9
REMARK VINA RESULT:      -8.1      1.842      4.342
REMARK  Name = 
REMARK  4 active torsions:
REMARK  status: ('A' for Active; 'I' for Inactive)
REMARK    1  A    between atoms: C_1  and  N_2
REMARK    2  A    between atoms: C_10  and  C_11
REMARK    3  A    between atoms: N_13  and  C_14
REMARK    4  A    between atoms: C_19  and  N_20
REMARK                            x       y       z     vdW  Elec       q    Type
REMARK                         _______ _______ _______ _____ _____    ______ ____
ROOT
ATOM      1  C   UNL     1       2.531   8.301  17.932  0.00  0.00    +0.000 C 
ATOM      2  O   UNL     1       2.197   8.263  16.753  0.00  0.00    +0.000 OA
ATOM      3  N   UNL     1       3.436   7.445  18.550  0.00  0.00    +0.000 N 
ATOM      4  H   UNL     1       3.356   7.321  19.548  0.00  0.00    +0.000 HD
ENDROOT
BRANCH   1  14
ATOM      5  C   UNL     1       0.430  13.405  21.638  0.00  0.00    +0.000 C 
ATOM      6  N   UNL     1      -0.019  12.045  21.422  0.00  0.00    +0.000 N 
ATOM      7  C   UNL     1      -1.311  11.583  21.959  0.00  0.00    +0.000 C 
ATOM      8  C   UNL     1      -1.126  10.668  23.166  0.00  0.00    +0.000 C 
ATOM      9  C   UNL     1      -0.434   9.395  22.731  0.00  0.00    +0.000 C 
ATOM     10  O   UNL     1      -1.016   8.320  22.628  0.00  0.00    +0.000 OA
ATOM     11  N   UNL     1       0.896   9.595  22.381  0.00  0.00    +0.000 N 
ATOM     12  C   UNL     1       1.054   9.911  21.004  0.00  0.00    +0.000 A 
ATOM     13  C   UNL     1       1.661   8.975  20.170  0.00  0.00    +0.000 A 
ATOM     14  C   UNL     1       1.870   9.290  18.835  0.00  0.00    +0.000 A 
ATOM     15  C   UNL     1       1.488  10.556  18.353  0.00  0.00    +0.000 A 
ATOM     16  C   UNL     1       0.890  11.500  19.213  0.00  0.00    +0.000 A 
ATOM     17  C   UNL     1       0.651  11.187  20.549  0.00  0.00    +0.000 A 
ATOM     18  H   UNL     1       1.208  10.427  22.877  0.00  0.00    +0.000 HD
ENDBRANCH   1  14
BRANCH   3  19
ATOM     19  C   UNL     1       4.012   6.347  17.865  0.00  0.00    +0.000 A 
ATOM     20  C   UNL     1       5.185   6.609  17.134  0.00  0.00    +0.000 A 
ATOM     21  C   UNL     1       5.874   5.581  16.501  0.00  0.00    +0.000 A 
ATOM     22  C   UNL     1       5.390   4.287  16.588  0.00  0.00    +0.000 A 
ATOM     23  C   UNL     1       4.237   4.018  17.337  0.00  0.00    +0.000 A 
ATOM     24  C   UNL     1       3.505   5.024  18.007  0.00  0.00    +0.000 A 
BRANCH  24  25
ATOM     25  N   UNL     1       2.320   4.693  18.694  0.00  0.00    +0.000 N 
ATOM     26  C   UNL     1       2.046   5.259  20.022  0.00  0.00    +0.000 C 
ATOM     27  C   UNL     1       2.489   4.337  21.162  0.00  0.00    +0.000 C 
ATOM     28  C   UNL     1       1.586   3.135  21.421  0.00  0.00    +0.000 C 
ATOM     29  C   UNL     1       1.387   2.226  20.213  0.00  0.00    +0.000 C 
ATOM     30  C   UNL     1       0.570   2.903  19.124  0.00  0.00    +0.000 C 
ATOM     31  C   UNL     1       1.410   3.695  18.130  0.00  0.00    +0.000 C 
ENDBRANCH  24  25
ENDBRANCH   3  19
TORSDOF 3
ENDMDL
