MODEL 1
REMARK VINA RESULT:      -8.4      0.000      0.000
REMARK  Name = 
REMARK  1 active torsions:
REMARK  status: ('A' for Active; 'I' for Inactive)
REMARK    1  A    between atoms: C_7  and  N_8
REMARK                            x       y       z     vdW  Elec       q    Type
REMARK                         _______ _______ _______ _____ _____    ______ ____
ROOT
ATOM      1  N   UNL     1       3.942   5.805  17.859  0.00  0.00    +0.000 N 
ATOM      2  C   UNL     1       5.200   6.132  17.379  0.00  0.00    +0.000 C 
ATOM      3  O   UNL     1       5.695   7.242  17.456  0.00  0.00    +0.000 OA
ATOM      4  N   UNL     1       5.898   5.083  16.790  0.00  0.00    +0.000 N 
ATOM      5  C   UNL     1       5.425   3.710  16.638  0.00  0.00    +0.000 C 
ATOM      6  C   UNL     1       4.959   3.470  15.201  0.00  0.00    +0.000 C 
ATOM      7  C   UNL     1       5.957   3.962  14.179  0.00  0.00    +0.000 A 
ATOM      8  C   UNL     1       5.891   3.507  12.853  0.00  0.00    +0.000 A 
ATOM      9  C   UNL     1       6.787   3.982  11.892  0.00  0.00    +0.000 A 
ATOM     10  C   UNL     1       7.748   4.926  12.240  0.00  0.00    +0.000 A 
ATOM     11  C   UNL     1       7.813   5.396  13.553  0.00  0.00    +0.000 A 
ATOM     12  C   UNL     1       6.918   4.928  14.532  0.00  0.00    +0.000 A 
ATOM     13  C   UNL     1       7.052   5.426  15.956  0.00  0.00    +0.000 C 
ATOM     14  H   UNL     1       3.712   4.832  17.962  0.00  0.00    +0.000 HD
ENDROOT
BRANCH   1  21
ATOM     15  O   UNL     1      -0.251  11.491  20.871  0.00  0.00    +0.000 OA
ATOM     16  C   UNL     1       0.199  10.602  20.154  0.00  0.00    +0.000 C 
ATOM     17  C   UNL     1       0.185  10.691  18.647  0.00  0.00    +0.000 C 
ATOM     18  C   UNL     1       1.434  10.088  18.035  0.00  0.00    +0.000 C 
ATOM     19  C   UNL     1       1.783   8.766  18.660  0.00  0.00    +0.000 A 
ATOM     20  C   UNL     1       2.623   7.886  17.964  0.00  0.00    +0.000 A 
ATOM     21  C   UNL     1       3.055   6.691  18.530  0.00  0.00    +0.000 A 
ATOM     22  C   UNL     1       2.605   6.385  19.823  0.00  0.00    +0.000 A 
ATOM     23  F   UNL     1       3.004   5.248  20.419  0.00  0.00    +0.000 F 
ATOM     24  C   UNL     1       1.778   7.263  20.544  0.00  0.00    +0.000 A 
ATOM     25  C   UNL     1       1.378   8.463  19.960  0.00  0.00    +0.000 A 
ATOM     26  N   UNL     1       0.635   9.409  20.682  0.00  0.00    +0.000 N 
ATOM     27  H   UNL     1       0.487   9.295  21.677  0.00  0.00    +0.000 HD
ENDBRANCH   1  21
TORSDOF 1
ENDMDL
MODEL 2
REMARK VINA RESULT:      -8.1      4.087      9.699
REMARK  Name = 
REMARK  1 active torsions:
REMARK  status: ('A' for Active; 'I' for Inactive)
REMARK    1  A    between atoms: C_7  and  N_8
REMARK                            x       y       z     vdW  Elec       q    Type
REMARK                         _______ _______ _______ _____ _____    ______ ____
ROOT
ATOM      1  N   UNL     1       1.341   9.078  19.847  0.00  0.00    +0.000 N 
ATOM      2  C   UNL     1       0.952   9.555  21.088  0.00  0.00    +0.000 C 
ATOM      3  O   UNL     1       0.971   8.897  22.113  0.00  0.00    +0.000 OA
ATOM      4  N   UNL     1       0.530  10.881  21.105  0.00  0.00    +0.000 N 
ATOM      5  C   UNL     1       0.462  11.778  19.955  0.00  0.00    +0.000 C 
ATOM      6  C   UNL     1      -0.983  11.907  19.472  0.00  0.00    +0.000 C 
ATOM      7  C   UNL     1      -1.948  12.177  20.603  0.00  0.00    +0.000 A 
ATOM      8  C   UNL     1      -3.227  12.689  20.331  0.00  0.00    +0.000 A 
ATOM      9  C   UNL     1      -4.141  12.908  21.365  0.00  0.00    +0.000 A 
ATOM     10  C   UNL     1      -3.794  12.607  22.679  0.00  0.00    +0.000 A 
ATOM     11  C   UNL     1      -2.530  12.083  22.958  0.00  0.00    +0.000 A 
ATOM     12  C   UNL     1      -1.599  11.857  21.928  0.00  0.00    +0.000 A 
ATOM     13  C   UNL     1      -0.221  11.334  22.277  0.00  0.00    +0.000 C 
ATOM     14  H   UNL     1       1.511   9.744  19.115  0.00  0.00    +0.000 HD
ENDROOT
BRANCH   1  21
ATOM     15  O   UNL     1       4.216   1.959  19.639  0.00  0.00    +0.000 OA
ATOM     16  C   UNL     1       3.481   2.938  19.726  0.00  0.00    +0.000 C 
ATOM     17  C   UNL     1       2.330   3.003  20.701  0.00  0.00    +0.000 C 
ATOM     18  C   UNL     1       2.160   4.393  21.280  0.00  0.00    +0.000 C 
ATOM     19  C   UNL     1       2.248   5.457  20.222  0.00  0.00    +0.000 A 
ATOM     20  C   UNL     1       1.708   6.724  20.485  0.00  0.00    +0.000 A 
ATOM     21  C   UNL     1       1.841   7.773  19.581  0.00  0.00    +0.000 A 
ATOM     22  C   UNL     1       2.522   7.515  18.382  0.00  0.00    +0.000 A 
ATOM     23  F   UNL     1       2.688   8.500  17.482  0.00  0.00    +0.000 F 
ATOM     24  C   UNL     1       3.085   6.258  18.108  0.00  0.00    +0.000 A 
ATOM     25  C   UNL     1       2.955   5.230  19.040  0.00  0.00    +0.000 A 
ATOM     26  N   UNL     1       3.586   3.993  18.849  0.00  0.00    +0.000 N 
ATOM     27  H   UNL     1       4.251   3.867  18.096  0.00  0.00    +0.000 HD
ENDBRANCH   1  21
TORSDOF 1
ENDMDL
MODEL 3
REMARK VINA RESULT:      -8.0      4.104      5.908
REMARK  Name = 
REMARK  1 active torsions:
REMARK  status: ('A' for Active; 'I' for Inactive)
REMARK    1  A    between atoms: C_7  and  N_8
REMARK                            x       y       z     vdW  Elec       q    Type
REMARK                         _______ _______ _______ _____ _____    ______ ____
ROOT
ATOM      1  N   UNL     1       1.489   9.335  19.493  0.00  0.00    +0.000 N 
ATOM      2  C   UNL     1       2.103   8.489  18.584  0.00  0.00    +0.000 C 
ATOM      3  O   UNL     1       2.220   8.728  17.396  0.00  0.00    +0.000 OA
ATOM      4  N   UNL     1       2.609   7.310  19.123  0.00  0.00    +0.000 N 
ATOM      5  C   UNL     1       2.540   6.904  20.524  0.00  0.00    +0.000 C 
ATOM      6  C   UNL     1       1.436   5.864  20.718  0.00  0.00    +0.000 C 
ATOM      7  C   UNL     1       1.498   4.757  19.692  0.00  0.00    +0.000 A 
ATOM      8  C   UNL     1       0.827   3.545  19.921  0.00  0.00    +0.000 A 
ATOM      9  C   UNL     1       0.847   2.528  18.963  0.00  0.00    +0.000 A 
ATOM     10  C   UNL     1       1.525   2.713  17.762  0.00  0.00    +0.000 A 
ATOM     11  C   UNL     1       2.183   3.921  17.519  0.00  0.00    +0.000 A 
ATOM     12  C   UNL     1       2.172   4.955  18.472  0.00  0.00    +0.000 A 
ATOM     13  C   UNL     1       2.938   6.230  18.191  0.00  0.00    +0.000 C 
ATOM     14  H   UNL     1       1.641   9.170  20.472  0.00  0.00    +0.000 HD
ENDROOT
BRANCH   1  21
ATOM     15  O   UNL     1      -0.823  16.626  18.801  0.00  0.00    +0.000 OA
ATOM     16  C   UNL     1      -0.216  15.562  18.718  0.00  0.00    +0.000 C 
ATOM     17  C   UNL     1       1.291  15.490  18.670  0.00  0.00    +0.000 C 
ATOM     18  C   UNL     1       1.822  14.289  19.427  0.00  0.00    +0.000 C 
ATOM     19  C   UNL     1       1.047  13.040  19.114  0.00  0.00    +0.000 A 
ATOM     20  C   UNL     1       1.632  11.794  19.375  0.00  0.00    +0.000 A 
ATOM     21  C   UNL     1       0.929  10.607  19.193  0.00  0.00    +0.000 A 
ATOM     22  C   UNL     1      -0.388  10.699  18.719  0.00  0.00    +0.000 A 
ATOM     23  F   UNL     1      -1.114   9.582  18.538  0.00  0.00    +0.000 F 
ATOM     24  C   UNL     1      -0.998  11.940  18.469  0.00  0.00    +0.000 A 
ATOM     25  C   UNL     1      -0.277  13.113  18.681  0.00  0.00    +0.000 A 
ATOM     26  N   UNL     1      -0.881  14.371  18.538  0.00  0.00    +0.000 N 
ATOM     27  H   UNL     1      -1.882  14.448  18.406  0.00  0.00    +0.000 HD
ENDBRANCH   1  21
TORSDOF 1
ENDMDL
MODEL 4
REMARK VINA RESULT:      -7.8      3.848     10.846
REMARK  Name = 
REMARK  1 active torsions:
REMARK  status: ('A' for Active; 'I' for Inactive)
REMARK    1  A    between atoms: C_7  and  N_8
REMARK                            x       y       z     vdW  Elec       q    Type
REMARK                         _______ _______ _______ _____ _____    ______ ____
ROOT
ATOM      1  N   UNL     1      -0.277  10.808  20.664  0.00  0.00    +0.000 N 
ATOM      2  C   UNL     1       0.175  12.038  21.111  0.00  0.00    +0.000 C 
ATOM      3  O   UNL     1       1.343  12.294  21.347  0.00  0.00    +0.000 OA
ATOM      4  N   UNL     1      -0.810  13.006  21.275  0.00  0.00    +0.000 N 
ATOM      5  C   UNL     1      -2.238  12.833  21.026  0.00  0.00    +0.000 C 
ATOM      6  C   UNL     1      -2.985  12.647  22.347  0.00  0.00    +0.000 C 
ATOM      7  C   UNL     1      -2.596  13.678  23.381  0.00  0.00    +0.000 A 
ATOM      8  C   UNL     1      -3.418  13.904  24.496  0.00  0.00    +0.000 A 
ATOM      9  C   UNL     1      -3.051  14.829  25.477  0.00  0.00    +0.000 A 
ATOM     10  C   UNL     1      -1.852  15.527  25.364  0.00  0.00    +0.000 A 
ATOM     11  C   UNL     1      -1.020  15.298  24.266  0.00  0.00    +0.000 A 
ATOM     12  C   UNL     1      -1.375  14.370  23.270  0.00  0.00    +0.000 A 
ATOM     13  C   UNL     1      -0.468  14.187  22.072  0.00  0.00    +0.000 C 
ATOM     14  H   UNL     1      -1.204  10.755  20.279  0.00  0.00    +0.000 HD
ENDROOT
BRANCH   1  21
ATOM     15  O   UNL     1       3.772   4.855  17.988  0.00  0.00    +0.000 OA
ATOM     16  C   UNL     1       3.390   5.970  18.333  0.00  0.00    +0.000 C 
ATOM     17  C   UNL     1       3.734   7.219  17.559  0.00  0.00    +0.000 C 
ATOM     18  C   UNL     1       2.586   8.209  17.547  0.00  0.00    +0.000 C 
ATOM     19  C   UNL     1       1.970   8.371  18.909  0.00  0.00    +0.000 A 
ATOM     20  C   UNL     1       1.208   9.515  19.178  0.00  0.00    +0.000 A 
ATOM     21  C   UNL     1       0.538   9.675  20.387  0.00  0.00    +0.000 A 
ATOM     22  C   UNL     1       0.667   8.655  21.341  0.00  0.00    +0.000 A 
ATOM     23  F   UNL     1       0.028   8.757  22.520  0.00  0.00    +0.000 F 
ATOM     24  C   UNL     1       1.411   7.493  21.083  0.00  0.00    +0.000 A 
ATOM     25  C   UNL     1       2.055   7.349  19.855  0.00  0.00    +0.000 A 
ATOM     26  N   UNL     1       2.725   6.163  19.522  0.00  0.00    +0.000 N 
ATOM     27  H   UNL     1       2.644   5.344  20.112  0.00  0.00    +0.000 HD
ENDBRANCH   1  21
TORSDOF 1
ENDMDL
MODEL 5
REMARK VINA RESULT:      -7.8      4.207     10.131
REMARK  Name = 
REMARK  1 active torsions:
REMARK  status: ('A' for Active; 'I' for Inactive)
REMARK    1  A    between atoms: C_7  and  N_8
REMARK                            x       y       z     vdW  Elec       q    Type
REMARK                         _______ _______ _______ _____ _____    ______ ____
ROOT
ATOM      1  N   UNL     1       0.808   9.878  19.946  0.00  0.00    +0.000 N 
ATOM      2  C   UNL     1       0.533  10.328  21.226  0.00  0.00    +0.000 C 
ATOM      3  O   UNL     1       0.790   9.706  22.242  0.00  0.00    +0.000 OA
ATOM      4  N   UNL     1      -0.067  11.581  21.295  0.00  0.00    +0.000 N 
ATOM      5  C   UNL     1      -0.424  12.430  20.162  0.00  0.00    +0.000 C 
ATOM      6  C   UNL     1      -1.926  12.341  19.889  0.00  0.00    +0.000 C 
ATOM      7  C   UNL     1      -2.752  12.502  21.144  0.00  0.00    +0.000 A 
ATOM      8  C   UNL     1      -4.116  12.820  21.054  0.00  0.00    +0.000 A 
ATOM      9  C   UNL     1      -4.898  12.936  22.207  0.00  0.00    +0.000 A 
ATOM     10  C   UNL     1      -4.331  12.721  23.459  0.00  0.00    +0.000 A 
ATOM     11  C   UNL     1      -2.978  12.389  23.558  0.00  0.00    +0.000 A 
ATOM     12  C   UNL     1      -2.178  12.269  22.408  0.00  0.00    +0.000 A 
ATOM     13  C   UNL     1      -0.704  11.954  22.560  0.00  0.00    +0.000 C 
ATOM     14  H   UNL     1       0.778  10.542  19.193  0.00  0.00    +0.000 HD
ENDROOT
BRANCH   1  21
ATOM     15  O   UNL     1       4.439   3.131  19.404  0.00  0.00    +0.000 OA
ATOM     16  C   UNL     1       3.602   4.020  19.535  0.00  0.00    +0.000 C 
ATOM     17  C   UNL     1       2.447   3.910  20.501  0.00  0.00    +0.000 C 
ATOM     18  C   UNL     1       2.125   5.242  21.148  0.00  0.00    +0.000 C 
ATOM     19  C   UNL     1       2.101   6.362  20.145  0.00  0.00    +0.000 A 
ATOM     20  C   UNL     1       1.427   7.548  20.467  0.00  0.00    +0.000 A 
ATOM     21  C   UNL     1       1.449   8.650  19.619  0.00  0.00    +0.000 A 
ATOM     22  C   UNL     1       2.157   8.529  18.414  0.00  0.00    +0.000 A 
ATOM     23  F   UNL     1       2.219   9.572  17.567  0.00  0.00    +0.000 F 
ATOM     24  C   UNL     1       2.854   7.356  18.083  0.00  0.00    +0.000 A 
ATOM     25  C   UNL     1       2.833   6.274  18.961  0.00  0.00    +0.000 A 
ATOM     26  N   UNL     1       3.595   5.124  18.713  0.00  0.00    +0.000 N 
ATOM     27  H   UNL     1       4.273   5.108  17.961  0.00  0.00    +0.000 HD
ENDBRANCH   1  21
TORSDOF 1
ENDMDL
MODEL 6
REMARK VINA RESULT:      -7.8      6.402      7.893
REMARK  Name = 
REMARK  1 active torsions:
REMARK  status: ('A' for Active; 'I' for Inactive)
REMARK    1  A    between atoms: C_7  and  N_8
REMARK                            x       y       z     vdW  Elec       q    Type
REMARK                         _______ _______ _______ _____ _____    ______ ____
ROOT
ATOM      1  N   UNL     1       8.843   8.908  18.866  0.00  0.00    +0.000 N 
ATOM      2  C   UNL     1       7.961   8.576  17.851  0.00  0.00    +0.000 C 
ATOM      3  O   UNL     1       7.485   9.378  17.067  0.00  0.00    +0.000 OA
ATOM      4  N   UNL     1       7.642   7.225  17.764  0.00  0.00    +0.000 N 
ATOM      5  C   UNL     1       8.143   6.163  18.633  0.00  0.00    +0.000 C 
ATOM      6  C   UNL     1       7.078   5.777  19.660  0.00  0.00    +0.000 C 
ATOM      7  C   UNL     1       5.722   5.557  19.032  0.00  0.00    +0.000 A 
ATOM      8  C   UNL     1       4.729   4.850  19.727  0.00  0.00    +0.000 A 
ATOM      9  C   UNL     1       3.459   4.672  19.171  0.00  0.00    +0.000 A 
ATOM     10  C   UNL     1       3.163   5.209  17.922  0.00  0.00    +0.000 A 
ATOM     11  C   UNL     1       4.139   5.928  17.229  0.00  0.00    +0.000 A 
ATOM     12  C   UNL     1       5.421   6.116  17.775  0.00  0.00    +0.000 A 
ATOM     13  C   UNL     1       6.467   6.860  16.971  0.00  0.00    +0.000 C 
ATOM     14  H   UNL     1       9.357   8.167  19.309  0.00  0.00    +0.000 HD
ENDROOT
BRANCH   1  21
ATOM     15  O   UNL     1      12.333  15.732  19.368  0.00  0.00    +0.000 OA
ATOM     16  C   UNL     1      11.595  14.797  19.071  0.00  0.00    +0.000 C 
ATOM     17  C   UNL     1      11.101  14.570  17.662  0.00  0.00    +0.000 C 
ATOM     18  C   UNL     1      11.023  13.095  17.323  0.00  0.00    +0.000 C 
ATOM     19  C   UNL     1      10.389  12.297  18.428  0.00  0.00    +0.000 A 
ATOM     20  C   UNL     1       9.859  11.033  18.136  0.00  0.00    +0.000 A 
ATOM     21  C   UNL     1       9.345  10.212  19.134  0.00  0.00    +0.000 A 
ATOM     22  C   UNL     1       9.358  10.701  20.449  0.00  0.00    +0.000 A 
ATOM     23  F   UNL     1       8.884   9.939  21.451  0.00  0.00    +0.000 F 
ATOM     24  C   UNL     1       9.902  11.957  20.764  0.00  0.00    +0.000 A 
ATOM     25  C   UNL     1      10.430  12.750  19.747  0.00  0.00    +0.000 A 
ATOM     26  N   UNL     1      11.069  13.965  20.033  0.00  0.00    +0.000 N 
ATOM     27  H   UNL     1      11.274  14.225  20.990  0.00  0.00    +0.000 HD
ENDBRANCH   1  21
TORSDOF 1
ENDMDL
MODEL 7
REMARK VINA RESULT:      -7.7      2.365      8.791
REMARK  Name = 
REMARK  1 active torsions:
REMARK  status: ('A' for Active; 'I' for Inactive)
REMARK    1  A    between atoms: C_7  and  N_8
REMARK                            x       y       z     vdW  Elec       q    Type
REMARK                         _______ _______ _______ _____ _____    ______ ____
ROOT
ATOM      1  N   UNL     1       1.660   8.480  19.473  0.00  0.00    +0.000 N 
ATOM      2  C   UNL     1       0.852   9.312  18.715  0.00  0.00    +0.000 C 
ATOM      3  O   UNL     1       0.760   9.257  17.502  0.00  0.00    +0.000 OA
ATOM      4  N   UNL     1       0.118  10.244  19.441  0.00  0.00    +0.000 N 
ATOM      5  C   UNL     1       0.133  10.412  20.892  0.00  0.00    +0.000 C 
ATOM      6  C   UNL     1       0.990  11.620  21.273  0.00  0.00    +0.000 C 
ATOM      7  C   UNL     1       0.662  12.844  20.450  0.00  0.00    +0.000 A 
ATOM      8  C   UNL     1       1.059  14.116  20.890  0.00  0.00    +0.000 A 
ATOM      9  C   UNL     1       0.794  15.252  20.119  0.00  0.00    +0.000 A 
ATOM     10  C   UNL     1       0.141  15.128  18.897  0.00  0.00    +0.000 A 
ATOM     11  C   UNL     1      -0.245  13.865  18.443  0.00  0.00    +0.000 A 
ATOM     12  C   UNL     1       0.015  12.713  19.207  0.00  0.00    +0.000 A 
ATOM     13  C   UNL     1      -0.463  11.367  18.703  0.00  0.00    +0.000 C 
ATOM     14  H   UNL     1       1.501   8.439  20.464  0.00  0.00    +0.000 HD
ENDROOT
BRANCH   1  21
ATOM     15  O   UNL     1       5.916   3.365  15.638  0.00  0.00    +0.000 OA
ATOM     16  C   UNL     1       5.517   4.341  16.266  0.00  0.00    +0.000 C 
ATOM     17  C   UNL     1       6.025   5.738  16.003  0.00  0.00    +0.000 C 
ATOM     18  C   UNL     1       4.926   6.773  16.144  0.00  0.00    +0.000 C 
ATOM     19  C   UNL     1       4.095   6.545  17.376  0.00  0.00    +0.000 A 
ATOM     20  C   UNL     1       3.333   7.605  17.886  0.00  0.00    +0.000 A 
ATOM     21  C   UNL     1       2.474   7.429  18.967  0.00  0.00    +0.000 A 
ATOM     22  C   UNL     1       2.409   6.153  19.544  0.00  0.00    +0.000 A 
ATOM     23  F   UNL     1       1.585   5.929  20.582  0.00  0.00    +0.000 F 
ATOM     24  C   UNL     1       3.151   5.074  19.034  0.00  0.00    +0.000 A 
ATOM     25  C   UNL     1       3.987   5.273  17.938  0.00  0.00    +0.000 A 
ATOM     26  N   UNL     1       4.667   4.203  17.340  0.00  0.00    +0.000 N 
ATOM     27  H   UNL     1       4.463   3.248  17.611  0.00  0.00    +0.000 HD
ENDBRANCH   1  21
TORSDOF 1
ENDMDL
MODEL 8
REMARK VINA RESULT:      -7.5      3.233      9.834
REMARK  Name = 
REMARK  1 active torsions:
REMARK  status: ('A' for Active; 'I' for Inactive)
REMARK    1  A    between atoms: C_7  and  N_8
REMARK                            x       y       z     vdW  Elec       q    Type
REMARK                         _______ _______ _______ _____ _____    ______ ____
ROOT
ATOM      1  N   UNL     1       0.360   9.980  18.865  0.00  0.00    +0.000 N 
ATOM      2  C   UNL     1       0.367  11.189  19.542  0.00  0.00    +0.000 C 
ATOM      3  O   UNL     1       1.144  11.467  20.438  0.00  0.00    +0.000 OA
ATOM      4  N   UNL     1      -0.590  12.107  19.121  0.00  0.00    +0.000 N 
ATOM      5  C   UNL     1      -1.574  11.902  18.062  0.00  0.00    +0.000 C 
ATOM      6  C   UNL     1      -2.943  11.592  18.667  0.00  0.00    +0.000 C 
ATOM      7  C   UNL     1      -3.321  12.556  19.768  0.00  0.00    +0.000 A 
ATOM      8  C   UNL     1      -4.658  12.669  20.178  0.00  0.00    +0.000 A 
ATOM      9  C   UNL     1      -5.013  13.531  21.219  0.00  0.00    +0.000 A 
ATOM     10  C   UNL     1      -4.037  14.278  21.871  0.00  0.00    +0.000 A 
ATOM     11  C   UNL     1      -2.701  14.161  21.480  0.00  0.00    +0.000 A 
ATOM     12  C   UNL     1      -2.327  13.298  20.435  0.00  0.00    +0.000 A 
ATOM     13  C   UNL     1      -0.875  13.236  20.009  0.00  0.00    +0.000 C 
ATOM     14  H   UNL     1      -0.150   9.923  18.001  0.00  0.00    +0.000 HD
ENDROOT
BRANCH   1  21
ATOM     15  O   UNL     1       5.141   3.969  18.835  0.00  0.00    +0.000 OA
ATOM     16  C   UNL     1       4.648   5.092  18.772  0.00  0.00    +0.000 C 
ATOM     17  C   UNL     1       5.112   6.127  17.776  0.00  0.00    +0.000 C 
ATOM     18  C   UNL     1       3.960   6.962  17.253  0.00  0.00    +0.000 C 
ATOM     19  C   UNL     1       3.042   7.407  18.358  0.00  0.00    +0.000 A 
ATOM     20  C   UNL     1       2.195   8.501  18.137  0.00  0.00    +0.000 A 
ATOM     21  C   UNL     1       1.260   8.901  19.086  0.00  0.00    +0.000 A 
ATOM     22  C   UNL     1       1.206   8.179  20.288  0.00  0.00    +0.000 A 
ATOM     23  F   UNL     1       0.310   8.518  21.233  0.00  0.00    +0.000 F 
ATOM     24  C   UNL     1       2.034   7.069  20.520  0.00  0.00    +0.000 A 
ATOM     25  C   UNL     1       2.947   6.678  19.543  0.00  0.00    +0.000 A 
ATOM     26  N   UNL     1       3.721   5.518  19.695  0.00  0.00    +0.000 N 
ATOM     27  H   UNL     1       3.539   4.876  20.457  0.00  0.00    +0.000 HD
ENDBRANCH   1  21
TORSDOF 1
ENDMDL
MODEL 9
REMARK VINA RESULT:      -7.4      3.631      9.212
REMARK  Name = 
REMARK  1 active torsions:
REMARK  status: ('A' for Active; 'I' for Inactive)
REMARK    1  A    between atoms: C_7  and  N_8
REMARK                            x       y       z     vdW  Elec       q    Type
REMARK                         _______ _______ _______ _____ _____    ______ ____
ROOT
ATOM      1  N   UNL     1       1.829   8.447  19.105  0.00  0.00    +0.000 N 
ATOM      2  C   UNL     1       1.510   8.935  20.362  0.00  0.00    +0.000 C 
ATOM      3  O   UNL     1       1.504   8.262  21.377  0.00  0.00    +0.000 OA
ATOM      4  N   UNL     1       1.194  10.289  20.407  0.00  0.00    +0.000 N 
ATOM      5  C   UNL     1       1.167  11.206  19.271  0.00  0.00    +0.000 C 
ATOM      6  C   UNL     1      -0.275  11.455  18.829  0.00  0.00    +0.000 C 
ATOM      7  C   UNL     1      -1.188  11.782  19.988  0.00  0.00    +0.000 A 
ATOM      8  C   UNL     1      -2.429  12.395  19.757  0.00  0.00    +0.000 A 
ATOM      9  C   UNL     1      -3.296  12.670  20.818  0.00  0.00    +0.000 A 
ATOM     10  C   UNL     1      -2.940  12.323  22.118  0.00  0.00    +0.000 A 
ATOM     11  C   UNL     1      -1.714  11.699  22.356  0.00  0.00    +0.000 A 
ATOM     12  C   UNL     1      -0.830  11.416  21.299  0.00  0.00    +0.000 A 
ATOM     13  C   UNL     1       0.511  10.782  21.605  0.00  0.00    +0.000 C 
ATOM     14  H   UNL     1       2.032   9.109  18.377  0.00  0.00    +0.000 HD
ENDROOT
BRANCH   1  21
ATOM     15  O   UNL     1       3.676   1.003  18.698  0.00  0.00    +0.000 OA
ATOM     16  C   UNL     1       3.084   2.079  18.703  0.00  0.00    +0.000 C 
ATOM     17  C   UNL     1       1.692   2.237  19.264  0.00  0.00    +0.000 C 
ATOM     18  C   UNL     1       1.517   3.567  19.970  0.00  0.00    +0.000 C 
ATOM     19  C   UNL     1       2.089   4.706  19.173  0.00  0.00    +0.000 A 
ATOM     20  C   UNL     1       1.658   6.011  19.449  0.00  0.00    +0.000 A 
ATOM     21  C   UNL     1       2.219   7.112  18.809  0.00  0.00    +0.000 A 
ATOM     22  C   UNL     1       3.223   6.870  17.859  0.00  0.00    +0.000 A 
ATOM     23  F   UNL     1       3.805   7.902  17.223  0.00  0.00    +0.000 F 
ATOM     24  C   UNL     1       3.680   5.571  17.583  0.00  0.00    +0.000 A 
ATOM     25  C   UNL     1       3.115   4.488  18.254  0.00  0.00    +0.000 A 
ATOM     26  N   UNL     1       3.611   3.188  18.080  0.00  0.00    +0.000 N 
ATOM     27  H   UNL     1       4.468   3.030  17.564  0.00  0.00    +0.000 HD
ENDBRANCH   1  21
TORSDOF 1
ENDMDL
