MODEL 1
REMARK VINA RESULT:      -8.9      0.000      0.000
REMARK  Name = 
REMARK  2 active torsions:
REMARK  status: ('A' for Active; 'I' for Inactive)
REMARK    1  A    between atoms: C_2  and  C_3
REMARK    2  A    between atoms: C_16  and  N_17
REMARK                            x       y       z     vdW  Elec       q    Type
REMARK                         _______ _______ _______ _____ _____    ______ ____
ROOT
ATOM      1  O   UNL     1       1.552   7.426  21.582  0.00  0.00    +0.000 OA
ATOM      2  C   UNL     1       1.557   7.928  20.457  0.00  0.00    +0.000 C 
ATOM      3  N   UNL     1       0.957   9.163  20.196  0.00  0.00    +0.000 N 
ATOM      4  C   UNL     1       0.971   9.801  18.890  0.00  0.00    +0.000 C 
ATOM      5  C   UNL     1       0.964  11.316  18.935  0.00  0.00    +0.000 C 
ATOM      6  C   UNL     1      -0.158  11.856  19.808  0.00  0.00    +0.000 C 
ATOM      7  C   UNL     1      -0.002  11.203  21.205  0.00  0.00    +0.000 C 
ATOM      8  C   UNL     1      -0.027   9.679  21.146  0.00  0.00    +0.000 C 
ENDROOT
BRANCH   2   9
ATOM      9  C   UNL     1       2.257   7.266  19.369  0.00  0.00    +0.000 A 
ATOM     10  C   UNL     1       3.020   7.764  18.325  0.00  0.00    +0.000 A 
ATOM     11  C   UNL     1       3.640   6.679  17.667  0.00  0.00    +0.000 A 
ATOM     12  C   UNL     1       4.609   6.592  16.654  0.00  0.00    +0.000 A 
ATOM     13  C   UNL     1       4.966   5.330  16.183  0.00  0.00    +0.000 A 
ATOM     14 CL   UNL     1       6.130   5.207  14.921  0.00  0.00    +0.000 Cl
ATOM     15  C   UNL     1       4.390   4.176  16.710  0.00  0.00    +0.000 A 
ATOM     16  C   UNL     1       3.448   4.245  17.744  0.00  0.00    +0.000 A 
ATOM     17  C   UNL     1       3.099   5.515  18.206  0.00  0.00    +0.000 A 
ATOM     18  N   UNL     1       2.225   5.900  19.199  0.00  0.00    +0.000 N 
ATOM     19  H   UNL     1       1.686   5.275  19.784  0.00  0.00    +0.000 HD
ENDBRANCH   2   9
BRANCH   6  20
ATOM     20  N   UNL     1      -1.517  11.793  19.285  0.00  0.00    +0.000 N 
ATOM     21  C   UNL     1      -2.542  12.593  19.862  0.00  0.00    +0.000 A 
ATOM     22  O   UNL     1      -2.458  13.359  20.806  0.00  0.00    +0.000 OA
ATOM     23  N   UNL     1      -3.705  12.359  19.133  0.00  0.00    +0.000 N 
ATOM     24  C   UNL     1      -3.423  11.500  18.087  0.00  0.00    +0.000 A 
ATOM     25  C   UNL     1      -4.300  11.051  17.122  0.00  0.00    +0.000 A 
ATOM     26  C   UNL     1      -3.787  10.204  16.145  0.00  0.00    +0.000 A 
ATOM     27  C   UNL     1      -2.425   9.862  16.148  0.00  0.00    +0.000 A 
ATOM     28  C   UNL     1      -1.552  10.358  17.133  0.00  0.00    +0.000 A 
ATOM     29  C   UNL     1      -2.066  11.161  18.135  0.00  0.00    +0.000 A 
ATOM     30  H   UNL     1      -4.582  12.809  19.336  0.00  0.00    +0.000 HD
ENDBRANCH   6  20
TORSDOF 2
ENDMDL
MODEL 2
REMARK VINA RESULT:      -8.8      0.928      1.054
REMARK  Name = 
REMARK  2 active torsions:
REMARK  status: ('A' for Active; 'I' for Inactive)
REMARK    1  A    between atoms: C_2  and  C_3
REMARK    2  A    between atoms: C_16  and  N_17
REMARK                            x       y       z     vdW  Elec       q    Type
REMARK                         _______ _______ _______ _____ _____    ______ ____
ROOT
ATOM      1  O   UNL     1       1.318   8.471  22.354  0.00  0.00    +0.000 OA
ATOM      2  C   UNL     1       1.238   8.635  21.136  0.00  0.00    +0.000 C 
ATOM      3  N   UNL     1       0.640   9.770  20.581  0.00  0.00    +0.000 N 
ATOM      4  C   UNL     1       0.555  10.015  19.151  0.00  0.00    +0.000 C 
ATOM      5  C   UNL     1       0.578  11.481  18.765  0.00  0.00    +0.000 C 
ATOM      6  C   UNL     1      -0.457  12.289  19.531  0.00  0.00    +0.000 C 
ATOM      7  C   UNL     1      -0.197  12.049  21.040  0.00  0.00    +0.000 C 
ATOM      8  C   UNL     1      -0.253  10.573  21.417  0.00  0.00    +0.000 C 
ENDROOT
BRANCH   2   9
ATOM      9  C   UNL     1       1.833   7.668  20.231  0.00  0.00    +0.000 A 
ATOM     10  C   UNL     1       2.280   7.779  18.924  0.00  0.00    +0.000 A 
ATOM     11  C   UNL     1       2.959   6.590  18.580  0.00  0.00    +0.000 A 
ATOM     12  C   UNL     1       3.720   6.201  17.465  0.00  0.00    +0.000 A 
ATOM     13  C   UNL     1       4.212   4.899  17.418  0.00  0.00    +0.000 A 
ATOM     14 CL   UNL     1       5.121   4.397  16.045  0.00  0.00    +0.000 Cl
ATOM     15  C   UNL     1       3.971   4.001  18.455  0.00  0.00    +0.000 A 
ATOM     16  C   UNL     1       3.242   4.383  19.589  0.00  0.00    +0.000 A 
ATOM     17  C   UNL     1       2.755   5.690  19.623  0.00  0.00    +0.000 A 
ATOM     18  N   UNL     1       2.026   6.352  20.587  0.00  0.00    +0.000 N 
ATOM     19  H   UNL     1       1.732   5.962  21.474  0.00  0.00    +0.000 HD
ENDBRANCH   2   9
BRANCH   6  20
ATOM     20  N   UNL     1      -1.856  12.136  19.151  0.00  0.00    +0.000 N 
ATOM     21  C   UNL     1      -2.881  12.710  19.953  0.00  0.00    +0.000 A 
ATOM     22  O   UNL     1      -2.763  13.334  20.993  0.00  0.00    +0.000 OA
ATOM     23  N   UNL     1      -4.094  12.444  19.324  0.00  0.00    +0.000 N 
ATOM     24  C   UNL     1      -3.854  11.789  18.130  0.00  0.00    +0.000 A 
ATOM     25  C   UNL     1      -4.791  11.381  17.204  0.00  0.00    +0.000 A 
ATOM     26  C   UNL     1      -4.315  10.756  16.055  0.00  0.00    +0.000 A 
ATOM     27  C   UNL     1      -2.935  10.588  15.860  0.00  0.00    +0.000 A 
ATOM     28  C   UNL     1      -2.005  11.038  16.814  0.00  0.00    +0.000 A 
ATOM     29  C   UNL     1      -2.473  11.616  17.979  0.00  0.00    +0.000 A 
ATOM     30  H   UNL     1      -4.982  12.748  19.687  0.00  0.00    +0.000 HD
ENDBRANCH   6  20
TORSDOF 2
ENDMDL
MODEL 3
REMARK VINA RESULT:      -8.6      2.523      3.753
REMARK  Name = 
REMARK  2 active torsions:
REMARK  status: ('A' for Active; 'I' for Inactive)
REMARK    1  A    between atoms: C_2  and  C_3
REMARK    2  A    between atoms: C_16  and  N_17
REMARK                            x       y       z     vdW  Elec       q    Type
REMARK                         _______ _______ _______ _____ _____    ______ ____
ROOT
ATOM      1  O   UNL     1       0.165   9.932  23.828  0.00  0.00    +0.000 OA
ATOM      2  C   UNL     1      -0.083  10.157  22.642  0.00  0.00    +0.000 C 
ATOM      3  N   UNL     1      -1.035  11.103  22.253  0.00  0.00    +0.000 N 
ATOM      4  C   UNL     1      -1.331  11.419  20.865  0.00  0.00    +0.000 C 
ATOM      5  C   UNL     1      -1.769  12.852  20.631  0.00  0.00    +0.000 C 
ATOM      6  C   UNL     1      -2.909  13.258  21.550  0.00  0.00    +0.000 C 
ATOM      7  C   UNL     1      -2.439  12.991  23.003  0.00  0.00    +0.000 C 
ATOM      8  C   UNL     1      -2.031  11.540  23.231  0.00  0.00    +0.000 C 
ENDROOT
BRANCH   2   9
ATOM      9  C   UNL     1       0.670   9.479  21.601  0.00  0.00    +0.000 A 
ATOM     10  C   UNL     1       1.338   8.265  21.586  0.00  0.00    +0.000 A 
ATOM     11  C   UNL     1       1.731   7.986  20.259  0.00  0.00    +0.000 A 
ATOM     12  C   UNL     1       2.302   6.863  19.638  0.00  0.00    +0.000 A 
ATOM     13  C   UNL     1       2.626   6.945  18.285  0.00  0.00    +0.000 A 
ATOM     14 CL   UNL     1       3.355   5.589  17.516  0.00  0.00    +0.000 Cl
ATOM     15  C   UNL     1       2.379   8.106  17.556  0.00  0.00    +0.000 A 
ATOM     16  C   UNL     1       1.779   9.222  18.152  0.00  0.00    +0.000 A 
ATOM     17  C   UNL     1       1.460   9.126  19.508  0.00  0.00    +0.000 A 
ATOM     18  N   UNL     1       0.866  10.035  20.356  0.00  0.00    +0.000 N 
ATOM     19  H   UNL     1       0.541  10.957  20.097  0.00  0.00    +0.000 HD
ENDBRANCH   2   9
BRANCH   6  20
ATOM     20  N   UNL     1      -4.236  12.728  21.263  0.00  0.00    +0.000 N 
ATOM     21  C   UNL     1      -5.273  12.832  22.232  0.00  0.00    +0.000 A 
ATOM     22  O   UNL     1      -5.212  13.309  23.352  0.00  0.00    +0.000 OA
ATOM     23  N   UNL     1      -6.422  12.290  21.664  0.00  0.00    +0.000 N 
ATOM     24  C   UNL     1      -6.155  11.918  20.359  0.00  0.00    +0.000 A 
ATOM     25  C   UNL     1      -7.041  11.371  19.454  0.00  0.00    +0.000 A 
ATOM     26  C   UNL     1      -6.554  11.095  18.180  0.00  0.00    +0.000 A 
ATOM     27  C   UNL     1      -5.223  11.399  17.849  0.00  0.00    +0.000 A 
ATOM     28  C   UNL     1      -4.354  11.980  18.789  0.00  0.00    +0.000 A 
ATOM     29  C   UNL     1      -4.817  12.211  20.071  0.00  0.00    +0.000 A 
ATOM     30  H   UNL     1      -7.305  12.244  22.145  0.00  0.00    +0.000 HD
ENDBRANCH   6  20
TORSDOF 2
ENDMDL
MODEL 4
REMARK VINA RESULT:      -8.5      1.433      1.936
REMARK  Name = 
REMARK  2 active torsions:
REMARK  status: ('A' for Active; 'I' for Inactive)
REMARK    1  A    between atoms: C_2  and  C_3
REMARK    2  A    between atoms: C_16  and  N_17
REMARK                            x       y       z     vdW  Elec       q    Type
REMARK                         _______ _______ _______ _____ _____    ______ ____
ROOT
ATOM      1  O   UNL     1       1.343   8.605  22.699  0.00  0.00    +0.000 OA
ATOM      2  C   UNL     1       1.229   8.574  21.473  0.00  0.00    +0.000 C 
ATOM      3  N   UNL     1       0.730   9.660  20.750  0.00  0.00    +0.000 N 
ATOM      4  C   UNL     1       0.611   9.673  19.301  0.00  0.00    +0.000 C 
ATOM      5  C   UNL     1       0.770  11.044  18.673  0.00  0.00    +0.000 C 
ATOM      6  C   UNL     1      -0.142  12.076  19.317  0.00  0.00    +0.000 C 
ATOM      7  C   UNL     1       0.155  12.061  20.838  0.00  0.00    +0.000 C 
ATOM      8  C   UNL     1      -0.039  10.682  21.460  0.00  0.00    +0.000 C 
ENDROOT
BRANCH   2   9
ATOM      9  C   UNL     1       1.682   7.410  20.730  0.00  0.00    +0.000 A 
ATOM     10  C   UNL     1       1.361   6.066  20.834  0.00  0.00    +0.000 A 
ATOM     11  C   UNL     1       1.929   5.383  19.737  0.00  0.00    +0.000 A 
ATOM     12  C   UNL     1       1.821   4.067  19.259  0.00  0.00    +0.000 A 
ATOM     13  C   UNL     1       2.582   3.698  18.152  0.00  0.00    +0.000 A 
ATOM     14 CL   UNL     1       2.485   2.080  17.571  0.00  0.00    +0.000 Cl
ATOM     15  C   UNL     1       3.424   4.611  17.520  0.00  0.00    +0.000 A 
ATOM     16  C   UNL     1       3.517   5.937  17.964  0.00  0.00    +0.000 A 
ATOM     17  C   UNL     1       2.749   6.293  19.074  0.00  0.00    +0.000 A 
ATOM     18  N   UNL     1       2.621   7.499  19.727  0.00  0.00    +0.000 N 
ATOM     19  H   UNL     1       3.087   8.360  19.470  0.00  0.00    +0.000 HD
ENDBRANCH   2   9
BRANCH   6  20
ATOM     20  N   UNL     1      -1.564  12.017  19.002  0.00  0.00    +0.000 N 
ATOM     21  C   UNL     1      -2.498  12.765  19.771  0.00  0.00    +0.000 A 
ATOM     22  O   UNL     1      -2.280  13.479  20.734  0.00  0.00    +0.000 OA
ATOM     23  N   UNL     1      -3.755  12.550  19.214  0.00  0.00    +0.000 N 
ATOM     24  C   UNL     1      -3.627  11.756  18.090  0.00  0.00    +0.000 A 
ATOM     25  C   UNL     1      -4.635  11.345  17.244  0.00  0.00    +0.000 A 
ATOM     26  C   UNL     1      -4.268  10.562  16.153  0.00  0.00    +0.000 A 
ATOM     27  C   UNL     1      -2.917  10.246  15.931  0.00  0.00    +0.000 A 
ATOM     28  C   UNL     1      -1.911  10.703  16.801  0.00  0.00    +0.000 A 
ATOM     29  C   UNL     1      -2.275  11.439  17.912  0.00  0.00    +0.000 A 
ATOM     30  H   UNL     1      -4.596  12.972  19.572  0.00  0.00    +0.000 HD
ENDBRANCH   6  20
TORSDOF 2
ENDMDL
MODEL 5
REMARK VINA RESULT:      -8.4      1.511      1.937
REMARK  Name = 
REMARK  2 active torsions:
REMARK  status: ('A' for Active; 'I' for Inactive)
REMARK    1  A    between atoms: C_2  and  C_3
REMARK    2  A    between atoms: C_16  and  N_17
REMARK                            x       y       z     vdW  Elec       q    Type
REMARK                         _______ _______ _______ _____ _____    ______ ____
ROOT
ATOM      1  O   UNL     1       1.704   9.269  22.691  0.00  0.00    +0.000 OA
ATOM      2  C   UNL     1       1.331   9.220  21.517  0.00  0.00    +0.000 C 
ATOM      3  N   UNL     1       0.675  10.292  20.905  0.00  0.00    +0.000 N 
ATOM      4  C   UNL     1       0.249  10.284  19.516  0.00  0.00    +0.000 C 
ATOM      5  C   UNL     1       0.254  11.648  18.853  0.00  0.00    +0.000 C 
ATOM      6  C   UNL     1      -0.510  12.680  19.664  0.00  0.00    +0.000 C 
ATOM      7  C   UNL     1       0.106  12.689  21.087  0.00  0.00    +0.000 C 
ATOM      8  C   UNL     1       0.065  11.317  21.752  0.00  0.00    +0.000 C 
ENDROOT
BRANCH   2   9
ATOM      9  C   UNL     1       1.626   8.050  20.709  0.00  0.00    +0.000 A 
ATOM     10  C   UNL     1       2.115   7.920  19.418  0.00  0.00    +0.000 A 
ATOM     11  C   UNL     1       2.411   6.559  19.187  0.00  0.00    +0.000 A 
ATOM     12  C   UNL     1       3.045   5.875  18.137  0.00  0.00    +0.000 A 
ATOM     13  C   UNL     1       3.123   4.485  18.201  0.00  0.00    +0.000 A 
ATOM     14 CL   UNL     1       3.869   3.628  16.908  0.00  0.00    +0.000 Cl
ATOM     15  C   UNL     1       2.599   3.784  19.285  0.00  0.00    +0.000 A 
ATOM     16  C   UNL     1       1.995   4.455  20.357  0.00  0.00    +0.000 A 
ATOM     17  C   UNL     1       1.923   5.846  20.279  0.00  0.00    +0.000 A 
ATOM     18  N   UNL     1       1.406   6.769  21.162  0.00  0.00    +0.000 N 
ATOM     19  H   UNL     1       0.989   6.557  22.059  0.00  0.00    +0.000 HD
ENDBRANCH   2   9
BRANCH   6  20
ATOM     20  N   UNL     1      -1.966  12.605  19.662  0.00  0.00    +0.000 N 
ATOM     21  C   UNL     1      -2.726  13.439  20.529  0.00  0.00    +0.000 A 
ATOM     22  O   UNL     1      -2.319  14.246  21.345  0.00  0.00    +0.000 OA
ATOM     23  N   UNL     1      -4.070  13.182  20.273  0.00  0.00    +0.000 N 
ATOM     24  C   UNL     1      -4.171  12.273  19.235  0.00  0.00    +0.000 A 
ATOM     25  C   UNL     1      -5.330  11.788  18.667  0.00  0.00    +0.000 A 
ATOM     26  C   UNL     1      -5.191  10.893  17.610  0.00  0.00    +0.000 A 
ATOM     27  C   UNL     1      -3.914  10.540  17.145  0.00  0.00    +0.000 A 
ATOM     28  C   UNL     1      -2.752  11.073  17.731  0.00  0.00    +0.000 A 
ATOM     29  C   UNL     1      -2.883  11.925  18.812  0.00  0.00    +0.000 A 
ATOM     30  H   UNL     1      -4.821  13.647  20.753  0.00  0.00    +0.000 HD
ENDBRANCH   6  20
TORSDOF 2
ENDMDL
MODEL 6
REMARK VINA RESULT:      -8.3      3.305      8.377
REMARK  Name = 
REMARK  2 active torsions:
REMARK  status: ('A' for Active; 'I' for Inactive)
REMARK    1  A    between atoms: C_2  and  C_3
REMARK    2  A    between atoms: C_16  and  N_17
REMARK                            x       y       z     vdW  Elec       q    Type
REMARK                         _______ _______ _______ _____ _____    ______ ____
ROOT
ATOM      1  O   UNL     1       0.178   7.789  21.972  0.00  0.00    +0.000 OA
ATOM      2  C   UNL     1       0.768   8.150  20.952  0.00  0.00    +0.000 C 
ATOM      3  N   UNL     1       1.439   7.243  20.127  0.00  0.00    +0.000 N 
ATOM      4  C   UNL     1       2.118   7.625  18.900  0.00  0.00    +0.000 C 
ATOM      5  C   UNL     1       2.129   6.549  17.831  0.00  0.00    +0.000 C 
ATOM      6  C   UNL     1       2.643   5.222  18.363  0.00  0.00    +0.000 C 
ATOM      7  C   UNL     1       1.773   4.854  19.591  0.00  0.00    +0.000 C 
ATOM      8  C   UNL     1       1.796   5.932  20.670  0.00  0.00    +0.000 C 
ENDROOT
BRANCH   2   9
ATOM      9  C   UNL     1       0.723   9.542  20.540  0.00  0.00    +0.000 A 
ATOM     10  C   UNL     1       1.549  10.616  20.826  0.00  0.00    +0.000 A 
ATOM     11  C   UNL     1       1.173  11.702  20.006  0.00  0.00    +0.000 A 
ATOM     12  C   UNL     1       1.729  12.970  19.768  0.00  0.00    +0.000 A 
ATOM     13  C   UNL     1       1.053  13.843  18.918  0.00  0.00    +0.000 A 
ATOM     14 CL   UNL     1       1.705  15.411  18.640  0.00  0.00    +0.000 Cl
ATOM     15  C   UNL     1      -0.141  13.470  18.305  0.00  0.00    +0.000 A 
ATOM     16  C   UNL     1      -0.691  12.197  18.505  0.00  0.00    +0.000 A 
ATOM     17  C   UNL     1      -0.003  11.333  19.358  0.00  0.00    +0.000 A 
ATOM     18  N   UNL     1      -0.282  10.038  19.740  0.00  0.00    +0.000 N 
ATOM     19  H   UNL     1      -1.070   9.488  19.424  0.00  0.00    +0.000 HD
ENDBRANCH   2   9
BRANCH   6  20
ATOM     20  N   UNL     1       4.075   5.096  18.607  0.00  0.00    +0.000 N 
ATOM     21  C   UNL     1       4.590   3.939  19.256  0.00  0.00    +0.000 A 
ATOM     22  O   UNL     1       3.973   2.982  19.690  0.00  0.00    +0.000 OA
ATOM     23  N   UNL     1       5.974   4.078  19.306  0.00  0.00    +0.000 N 
ATOM     24  C   UNL     1       6.340   5.240  18.652  0.00  0.00    +0.000 A 
ATOM     25  C   UNL     1       7.620   5.715  18.458  0.00  0.00    +0.000 A 
ATOM     26  C   UNL     1       7.754   6.903  17.746  0.00  0.00    +0.000 A 
ATOM     27  C   UNL     1       6.619   7.553  17.234  0.00  0.00    +0.000 A 
ATOM     28  C   UNL     1       5.329   7.027  17.429  0.00  0.00    +0.000 A 
ATOM     29  C   UNL     1       5.186   5.873  18.177  0.00  0.00    +0.000 A 
ATOM     30  H   UNL     1       6.582   3.389  19.716  0.00  0.00    +0.000 HD
ENDBRANCH   6  20
TORSDOF 2
ENDMDL
MODEL 7
REMARK VINA RESULT:      -8.2      1.949      3.010
REMARK  Name = 
REMARK  2 active torsions:
REMARK  status: ('A' for Active; 'I' for Inactive)
REMARK    1  A    between atoms: C_2  and  C_3
REMARK    2  A    between atoms: C_16  and  N_17
REMARK                            x       y       z     vdW  Elec       q    Type
REMARK                         _______ _______ _______ _____ _____    ______ ____
ROOT
ATOM      1  O   UNL     1       1.484   9.255  22.677  0.00  0.00    +0.000 OA
ATOM      2  C   UNL     1       1.186   9.146  21.486  0.00  0.00    +0.000 C 
ATOM      3  N   UNL     1       0.553  10.176  20.786  0.00  0.00    +0.000 N 
ATOM      4  C   UNL     1       0.215  10.097  19.374  0.00  0.00    +0.000 C 
ATOM      5  C   UNL     1       0.239  11.429  18.650  0.00  0.00    +0.000 C 
ATOM      6  C   UNL     1      -0.592  12.482  19.364  0.00  0.00    +0.000 C 
ATOM      7  C   UNL     1      -0.068  12.567  20.820  0.00  0.00    +0.000 C 
ATOM      8  C   UNL     1      -0.126  11.226  21.544  0.00  0.00    +0.000 C 
ENDROOT
BRANCH   2   9
ATOM      9  C   UNL     1       1.552   7.947  20.752  0.00  0.00    +0.000 A 
ATOM     10  C   UNL     1       2.208   7.768  19.545  0.00  0.00    +0.000 A 
ATOM     11  C   UNL     1       2.489   6.393  19.387  0.00  0.00    +0.000 A 
ATOM     12  C   UNL     1       3.238   5.663  18.450  0.00  0.00    +0.000 A 
ATOM     13  C   UNL     1       3.262   4.274  18.556  0.00  0.00    +0.000 A 
ATOM     14 CL   UNL     1       4.149   3.361  17.397  0.00  0.00    +0.000 Cl
ATOM     15  C   UNL     1       2.572   3.618  19.573  0.00  0.00    +0.000 A 
ATOM     16  C   UNL     1       1.848   4.334  20.536  0.00  0.00    +0.000 A 
ATOM     17  C   UNL     1       1.833   5.725  20.418  0.00  0.00    +0.000 A 
ATOM     18  N   UNL     1       1.230   6.685  21.200  0.00  0.00    +0.000 N 
ATOM     19  H   UNL     1       0.687   6.509  22.035  0.00  0.00    +0.000 HD
ENDBRANCH   2   9
BRANCH   6  20
ATOM     20  N   UNL     1      -2.043  12.377  19.276  0.00  0.00    +0.000 N 
ATOM     21  C   UNL     1      -2.652  11.855  18.100  0.00  0.00    +0.000 A 
ATOM     22  O   UNL     1      -2.111  11.476  17.077  0.00  0.00    +0.000 OA
ATOM     23  N   UNL     1      -4.026  11.833  18.324  0.00  0.00    +0.000 N 
ATOM     24  C   UNL     1      -4.285  12.256  19.614  0.00  0.00    +0.000 A 
ATOM     25  C   UNL     1      -5.518  12.345  20.227  0.00  0.00    +0.000 A 
ATOM     26  C   UNL     1      -5.538  12.777  21.550  0.00  0.00    +0.000 A 
ATOM     27  C   UNL     1      -4.338  13.073  22.216  0.00  0.00    +0.000 A 
ATOM     28  C   UNL     1      -3.096  12.947  21.569  0.00  0.00    +0.000 A 
ATOM     29  C   UNL     1      -3.073  12.565  20.241  0.00  0.00    +0.000 A 
ATOM     30  H   UNL     1      -4.690  11.502  17.644  0.00  0.00    +0.000 HD
ENDBRANCH   6  20
TORSDOF 2
ENDMDL
MODEL 8
REMARK VINA RESULT:      -8.2      3.690      8.538
REMARK  Name = 
REMARK  2 active torsions:
REMARK  status: ('A' for Active; 'I' for Inactive)
REMARK    1  A    between atoms: C_2  and  C_3
REMARK    2  A    between atoms: C_16  and  N_17
REMARK                            x       y       z     vdW  Elec       q    Type
REMARK                         _______ _______ _______ _____ _____    ______ ____
ROOT
ATOM      1  O   UNL     1       0.222   8.009  21.872  0.00  0.00    +0.000 OA
ATOM      2  C   UNL     1       0.830   8.325  20.848  0.00  0.00    +0.000 C 
ATOM      3  N   UNL     1       1.478   7.376  20.052  0.00  0.00    +0.000 N 
ATOM      4  C   UNL     1       2.178   7.705  18.821  0.00  0.00    +0.000 C 
ATOM      5  C   UNL     1       2.162   6.603  17.779  0.00  0.00    +0.000 C 
ATOM      6  C   UNL     1       2.628   5.273  18.348  0.00  0.00    +0.000 C 
ATOM      7  C   UNL     1       1.737   4.965  19.578  0.00  0.00    +0.000 C 
ATOM      8  C   UNL     1       1.788   6.068  20.629  0.00  0.00    +0.000 C 
ENDROOT
BRANCH   2   9
ATOM      9  C   UNL     1       0.834   9.707  20.401  0.00  0.00    +0.000 A 
ATOM     10  C   UNL     1       0.127  10.355  19.401  0.00  0.00    +0.000 A 
ATOM     11  C   UNL     1       0.355  11.743  19.519  0.00  0.00    +0.000 A 
ATOM     12  C   UNL     1      -0.195  12.869  18.884  0.00  0.00    +0.000 A 
ATOM     13  C   UNL     1       0.311  14.126  19.205  0.00  0.00    +0.000 A 
ATOM     14 CL   UNL     1      -0.330  15.514  18.413  0.00  0.00    +0.000 Cl
ATOM     15  C   UNL     1       1.330  14.274  20.143  0.00  0.00    +0.000 A 
ATOM     16  C   UNL     1       1.866  13.164  20.811  0.00  0.00    +0.000 A 
ATOM     17  C   UNL     1       1.349  11.911  20.479  0.00  0.00    +0.000 A 
ATOM     18  N   UNL     1       1.659  10.657  20.960  0.00  0.00    +0.000 N 
ATOM     19  H   UNL     1       2.340  10.454  21.680  0.00  0.00    +0.000 HD
ENDBRANCH   2   9
BRANCH   6  20
ATOM     20  N   UNL     1       4.053   5.107  18.607  0.00  0.00    +0.000 N 
ATOM     21  C   UNL     1       4.531   3.928  19.245  0.00  0.00    +0.000 A 
ATOM     22  O   UNL     1       3.885   2.981  19.658  0.00  0.00    +0.000 OA
ATOM     23  N   UNL     1       5.917   4.030  19.313  0.00  0.00    +0.000 N 
ATOM     24  C   UNL     1       6.321   5.192  18.681  0.00  0.00    +0.000 A 
ATOM     25  C   UNL     1       7.615   5.636  18.508  0.00  0.00    +0.000 A 
ATOM     26  C   UNL     1       7.787   6.831  17.816  0.00  0.00    +0.000 A 
ATOM     27  C   UNL     1       6.675   7.517  17.300  0.00  0.00    +0.000 A 
ATOM     28  C   UNL     1       5.370   7.022  17.472  0.00  0.00    +0.000 A 
ATOM     29  C   UNL     1       5.189   5.862  18.201  0.00  0.00    +0.000 A 
ATOM     30  H   UNL     1       6.503   3.320  19.719  0.00  0.00    +0.000 HD
ENDBRANCH   6  20
TORSDOF 2
ENDMDL
MODEL 9
REMARK VINA RESULT:      -8.1      2.056      2.875
REMARK  Name = 
REMARK  2 active torsions:
REMARK  status: ('A' for Active; 'I' for Inactive)
REMARK    1  A    between atoms: C_2  and  C_3
REMARK    2  A    between atoms: C_16  and  N_17
REMARK                            x       y       z     vdW  Elec       q    Type
REMARK                         _______ _______ _______ _____ _____    ______ ____
ROOT
ATOM      1  O   UNL     1       0.690   9.696  23.402  0.00  0.00    +0.000 OA
ATOM      2  C   UNL     1       0.362   9.767  22.216  0.00  0.00    +0.000 C 
ATOM      3  N   UNL     1      -0.472  10.781  21.740  0.00  0.00    +0.000 N 
ATOM      4  C   UNL     1      -0.855  10.917  20.344  0.00  0.00    +0.000 C 
ATOM      5  C   UNL     1      -1.096  12.346  19.899  0.00  0.00    +0.000 C 
ATOM      6  C   UNL     1      -2.066  13.073  20.815  0.00  0.00    +0.000 C 
ATOM      7  C   UNL     1      -1.499  12.968  22.254  0.00  0.00    +0.000 C 
ATOM      8  C   UNL     1      -1.290  11.525  22.698  0.00  0.00    +0.000 C 
ENDROOT
BRANCH   2   9
ATOM      9  C   UNL     1       0.899   8.819  21.255  0.00  0.00    +0.000 A 
ATOM     10  C   UNL     1       1.467   8.994  20.004  0.00  0.00    +0.000 A 
ATOM     11  C   UNL     1       2.009   7.761  19.580  0.00  0.00    +0.000 A 
ATOM     12  C   UNL     1       2.804   7.382  18.487  0.00  0.00    +0.000 A 
ATOM     13  C   UNL     1       3.122   6.034  18.332  0.00  0.00    +0.000 A 
ATOM     14 CL   UNL     1       4.070   5.547  16.981  0.00  0.00    +0.000 Cl
ATOM     15  C   UNL     1       2.675   5.080  19.245  0.00  0.00    +0.000 A 
ATOM     16  C   UNL     1       1.910   5.448  20.360  0.00  0.00    +0.000 A 
ATOM     17  C   UNL     1       1.599   6.801  20.502  0.00  0.00    +0.000 A 
ATOM     18  N   UNL     1       0.885   7.460  21.478  0.00  0.00    +0.000 N 
ATOM     19  H   UNL     1       0.467   7.030  22.293  0.00  0.00    +0.000 HD
ENDBRANCH   2   9
BRANCH   6  20
ATOM     20  N   UNL     1      -3.479  12.728  20.721  0.00  0.00    +0.000 N 
ATOM     21  C   UNL     1      -4.383  13.129  21.745  0.00  0.00    +0.000 A 
ATOM     22  O   UNL     1      -4.136  13.738  22.771  0.00  0.00    +0.000 OA
ATOM     23  N   UNL     1      -5.652  12.704  21.363  0.00  0.00    +0.000 N 
ATOM     24  C   UNL     1      -5.580  12.119  20.112  0.00  0.00    +0.000 A 
ATOM     25  C   UNL     1      -6.626  11.602  19.376  0.00  0.00    +0.000 A 
ATOM     26  C   UNL     1      -6.321  11.080  18.123  0.00  0.00    +0.000 A 
ATOM     27  C   UNL     1      -5.002  11.118  17.641  0.00  0.00    +0.000 A 
ATOM     28  C   UNL     1      -3.963  11.676  18.408  0.00  0.00    +0.000 A 
ATOM     29  C   UNL     1      -4.251  12.152  19.673  0.00  0.00    +0.000 A 
ATOM     30  H   UNL     1      -6.477  12.867  21.915  0.00  0.00    +0.000 HD
ENDBRANCH   6  20
TORSDOF 2
ENDMDL
