MODEL 1
REMARK VINA RESULT:      -9.2      0.000      0.000
REMARK  Name = 
REMARK  8 active torsions:
REMARK  status: ('A' for Active; 'I' for Inactive)
REMARK    1  A    between atoms: C_1  and  C_2
REMARK    2  A    between atoms: C_2  and  C_3
REMARK    3  A    between atoms: C_7  and  C_8
REMARK    4  A    between atoms: N_14  and  C_15
REMARK    5  A    between atoms: C_19  and  C_20
REMARK    6  A    between atoms: C_20  and  C_21
REMARK    7  A    between atoms: C_21  and  C_22
REMARK    8  A    between atoms: N_26  and  C_27
REMARK                            x       y       z     vdW  Elec       q    Type
REMARK                         _______ _______ _______ _____ _____    ______ ____
ROOT
ATOM      1  C   UNL     1       3.012   6.381  19.444  0.00  0.00    +0.000 A 
ATOM      2  C   UNL     1       2.553   5.108  19.786  0.00  0.00    +0.000 A 
ATOM      3  C   UNL     1       3.390   4.000  19.674  0.00  0.00    +0.000 A 
ATOM      4  C   UNL     1       4.704   4.158  19.235  0.00  0.00    +0.000 A 
ATOM      5  C   UNL     1       5.217   5.417  18.868  0.00  0.00    +0.000 A 
ATOM      6  C   UNL     1       4.327   6.503  18.975  0.00  0.00    +0.000 A 
ENDROOT
BRANCH   1  14
ATOM      7  C   UNL     1      -0.282  11.427  19.266  0.00  0.00    +0.000 A 
ATOM      8  C   UNL     1       0.555  10.598  18.516  0.00  0.00    +0.000 A 
ATOM      9  C   UNL     1       1.069   9.479  19.132  0.00  0.00    +0.000 A 
ATOM     10  C   UNL     1       0.786   9.138  20.453  0.00  0.00    +0.000 A 
ATOM     11  C   UNL     1      -0.031   9.953  21.232  0.00  0.00    +0.000 A 
ATOM     12  C   UNL     1      -0.560  11.105  20.615  0.00  0.00    +0.000 A 
ATOM     13  C   UNL     1       1.465   7.849  20.780  0.00  0.00    +0.000 C 
ATOM     14  N   UNL     1       2.193   7.531  19.558  0.00  0.00    +0.000 N 
ATOM     15  C   UNL     1       1.975   8.479  18.566  0.00  0.00    +0.000 C 
ATOM     16  O   UNL     1       2.385   8.553  17.420  0.00  0.00    +0.000 OA
BRANCH  11  17
ATOM     17  C   UNL     1      -0.339   9.661  22.676  0.00  0.00    +0.000 C 
ATOM     18  F   UNL     1      -1.095  10.619  23.281  0.00  0.00    +0.000 F 
ATOM     19  F   UNL     1      -1.025   8.495  22.832  0.00  0.00    +0.000 F 
ATOM     20  F   UNL     1       0.784   9.541  23.433  0.00  0.00    +0.000 F 
ENDBRANCH  11  17
BRANCH   7  22
ATOM     21  C   UNL     1      -1.045  13.760  19.701  0.00  0.00    +0.000 C 
ATOM     22  C   UNL     1      -0.829  12.686  18.645  0.00  0.00    +0.000 C 
ENDBRANCH   7  22
ENDBRANCH   1  14
BRANCH   5  23
ATOM     23  C   UNL     1       6.717   5.609  18.338  0.00  0.00    +0.000 C 
ATOM     24  C   UNL     1       7.773   5.945  19.426  0.00  0.00    +0.000 C 
ATOM     25  O   UNL     1       8.349   6.989  18.607  0.00  0.00    +0.000 OA
ATOM     26  C   UNL     1       7.175   6.978  17.755  0.00  0.00    +0.000 C 
BRANCH  23  27
ATOM     27  C   UNL     1       7.132   4.424  17.448  0.00  0.00    +0.000 C 
BRANCH  27  28
ATOM     28  C   UNL     1       6.806   4.575  15.980  0.00  0.00    +0.000 C 
ATOM     29  N   UNL     1       7.676   5.066  15.128  0.00  0.00    +0.000 NA
ATOM     30  C   UNL     1       6.955   5.025  13.818  0.00  0.00    +0.000 C 
ATOM     31  C   UNL     1       5.793   4.044  14.004  0.00  0.00    +0.000 C 
ATOM     32  N   UNL     1       5.628   4.128  15.434  0.00  0.00    +0.000 N 
ATOM     33  C   UNL     1       4.544   3.459  16.099  0.00  0.00    +0.000 C 
ENDBRANCH  27  28
ENDBRANCH  23  27
ENDBRANCH   5  23
TORSDOF 6
ENDMDL
MODEL 2
REMARK VINA RESULT:      -8.9      3.367      8.552
REMARK  Name = 
REMARK  8 active torsions:
REMARK  status: ('A' for Active; 'I' for Inactive)
REMARK    1  A    between atoms: C_1  and  C_2
REMARK    2  A    between atoms: C_2  and  C_3
REMARK    3  A    between atoms: C_7  and  C_8
REMARK    4  A    between atoms: N_14  and  C_15
REMARK    5  A    between atoms: C_19  and  C_20
REMARK    6  A    between atoms: C_20  and  C_21
REMARK    7  A    between atoms: C_21  and  C_22
REMARK    8  A    between atoms: N_26  and  C_27
REMARK                            x       y       z     vdW  Elec       q    Type
REMARK                         _______ _______ _______ _____ _____    ______ ____
ROOT
ATOM      1  C   UNL     1       0.787   9.010  20.675  0.00  0.00    +0.000 A 
ATOM      2  C   UNL     1       0.745   9.210  22.055  0.00  0.00    +0.000 A 
ATOM      3  C   UNL     1       0.038  10.283  22.593  0.00  0.00    +0.000 A 
ATOM      4  C   UNL     1      -0.651  11.158  21.753  0.00  0.00    +0.000 A 
ATOM      5  C   UNL     1      -0.634  11.010  20.353  0.00  0.00    +0.000 A 
ATOM      6  C   UNL     1       0.113   9.925  19.854  0.00  0.00    +0.000 A 
ENDROOT
BRANCH   1  14
ATOM      7  C   UNL     1       3.938   4.827  17.688  0.00  0.00    +0.000 A 
ATOM      8  C   UNL     1       3.566   6.173  17.689  0.00  0.00    +0.000 A 
ATOM      9  C   UNL     1       2.757   6.614  18.713  0.00  0.00    +0.000 A 
ATOM     10  C   UNL     1       2.308   5.787  19.739  0.00  0.00    +0.000 A 
ATOM     11  C   UNL     1       2.647   4.437  19.756  0.00  0.00    +0.000 A 
ATOM     12  C   UNL     1       3.470   3.970  18.712  0.00  0.00    +0.000 A 
ATOM     13  C   UNL     1       1.497   6.596  20.698  0.00  0.00    +0.000 C 
ATOM     14  N   UNL     1       1.485   7.922  20.094  0.00  0.00    +0.000 N 
ATOM     15  C   UNL     1       2.224   7.961  18.918  0.00  0.00    +0.000 C 
ATOM     16  O   UNL     1       2.463   8.876  18.149  0.00  0.00    +0.000 OA
BRANCH  11  17
ATOM     17  C   UNL     1       2.158   3.484  20.814  0.00  0.00    +0.000 C 
ATOM     18  F   UNL     1       0.804   3.331  20.833  0.00  0.00    +0.000 F 
ATOM     19  F   UNL     1       2.669   2.232  20.659  0.00  0.00    +0.000 F 
ATOM     20  F   UNL     1       2.503   3.878  22.069  0.00  0.00    +0.000 F 
ENDBRANCH  11  17
BRANCH   7  22
ATOM     21  C   UNL     1       5.427   5.429  15.781  0.00  0.00    +0.000 C 
ATOM     22  C   UNL     1       4.785   4.292  16.562  0.00  0.00    +0.000 C 
ENDBRANCH   7  22
ENDBRANCH   1  14
BRANCH   5  23
ATOM     23  C   UNL     1      -1.400  12.022  19.375  0.00  0.00    +0.000 C 
ATOM     24  C   UNL     1      -2.947  12.035  19.503  0.00  0.00    +0.000 C 
ATOM     25  O   UNL     1      -3.110  12.004  18.065  0.00  0.00    +0.000 OA
ATOM     26  C   UNL     1      -1.723  11.606  17.911  0.00  0.00    +0.000 C 
BRANCH  23  27
ATOM     27  C   UNL     1      -0.781  13.429  19.461  0.00  0.00    +0.000 C 
BRANCH  27  28
ATOM     28  C   UNL     1       0.723  13.482  19.337  0.00  0.00    +0.000 C 
ATOM     29  N   UNL     1       1.333  13.186  18.212  0.00  0.00    +0.000 NA
ATOM     30  C   UNL     1       2.782  13.376  18.529  0.00  0.00    +0.000 C 
ATOM     31  C   UNL     1       2.829  14.235  19.796  0.00  0.00    +0.000 C 
ATOM     32  N   UNL     1       1.535  13.925  20.352  0.00  0.00    +0.000 N 
ATOM     33  C   UNL     1       1.145  14.408  21.647  0.00  0.00    +0.000 C 
ENDBRANCH  27  28
ENDBRANCH  23  27
ENDBRANCH   5  23
TORSDOF 6
ENDMDL
MODEL 3
REMARK VINA RESULT:      -8.8      3.326      8.644
REMARK  Name = 
REMARK  8 active torsions:
REMARK  status: ('A' for Active; 'I' for Inactive)
REMARK    1  A    between atoms: C_1  and  C_2
REMARK    2  A    between atoms: C_2  and  C_3
REMARK    3  A    between atoms: C_7  and  C_8
REMARK    4  A    between atoms: N_14  and  C_15
REMARK    5  A    between atoms: C_19  and  C_20
REMARK    6  A    between atoms: C_20  and  C_21
REMARK    7  A    between atoms: C_21  and  C_22
REMARK    8  A    between atoms: N_26  and  C_27
REMARK                            x       y       z     vdW  Elec       q    Type
REMARK                         _______ _______ _______ _____ _____    ______ ____
ROOT
ATOM      1  C   UNL     1       0.670   9.036  20.857  0.00  0.00    +0.000 A 
ATOM      2  C   UNL     1       0.502   9.105  22.241  0.00  0.00    +0.000 A 
ATOM      3  C   UNL     1      -0.212  10.155  22.815  0.00  0.00    +0.000 A 
ATOM      4  C   UNL     1      -0.782  11.137  22.006  0.00  0.00    +0.000 A 
ATOM      5  C   UNL     1      -0.635  11.122  20.605  0.00  0.00    +0.000 A 
ATOM      6  C   UNL     1       0.114  10.055  20.073  0.00  0.00    +0.000 A 
ENDROOT
BRANCH   1  14
ATOM      7  C   UNL     1       3.875   4.997  17.732  0.00  0.00    +0.000 A 
ATOM      8  C   UNL     1       3.500   6.341  17.789  0.00  0.00    +0.000 A 
ATOM      9  C   UNL     1       2.675   6.734  18.820  0.00  0.00    +0.000 A 
ATOM     10  C   UNL     1       2.212   5.860  19.800  0.00  0.00    +0.000 A 
ATOM     11  C   UNL     1       2.553   4.511  19.761  0.00  0.00    +0.000 A 
ATOM     12  C   UNL     1       3.394   4.094  18.710  0.00  0.00    +0.000 A 
ATOM     13  C   UNL     1       1.385   6.624  20.782  0.00  0.00    +0.000 C 
ATOM     14  N   UNL     1       1.379   7.976  20.239  0.00  0.00    +0.000 N 
ATOM     15  C   UNL     1       2.136   8.070  19.077  0.00  0.00    +0.000 C 
ATOM     16  O   UNL     1       2.384   9.018  18.354  0.00  0.00    +0.000 OA
BRANCH  11  17
ATOM     17  C   UNL     1       2.050   3.511  20.767  0.00  0.00    +0.000 C 
ATOM     18  F   UNL     1       2.502   2.244  20.556  0.00  0.00    +0.000 F 
ATOM     19  F   UNL     1       2.418   3.828  22.039  0.00  0.00    +0.000 F 
ATOM     20  F   UNL     1       0.693   3.424  20.780  0.00  0.00    +0.000 F 
ENDBRANCH  11  17
BRANCH   7  22
ATOM     21  C   UNL     1       6.214   4.708  16.920  0.00  0.00    +0.000 C 
ATOM     22  C   UNL     1       4.740   4.515  16.597  0.00  0.00    +0.000 C 
ENDBRANCH   7  22
ENDBRANCH   1  14
BRANCH   5  23
ATOM     23  C   UNL     1      -1.264  12.259  19.666  0.00  0.00    +0.000 C 
ATOM     24  C   UNL     1      -0.388  12.688  18.458  0.00  0.00    +0.000 C 
ATOM     25  O   UNL     1      -0.633  14.089  18.722  0.00  0.00    +0.000 OA
ATOM     26  C   UNL     1      -1.121  13.760  20.048  0.00  0.00    +0.000 C 
BRANCH  23  27
ATOM     27  C   UNL     1      -2.702  11.891  19.261  0.00  0.00    +0.000 C 
BRANCH  27  28
ATOM     28  C   UNL     1      -2.865  11.383  17.848  0.00  0.00    +0.000 C 
ATOM     29  N   UNL     1      -1.936  10.661  17.263  0.00  0.00    +0.000 NA
ATOM     30  C   UNL     1      -2.504  10.374  15.910  0.00  0.00    +0.000 C 
ATOM     31  C   UNL     1      -4.009  10.638  16.017  0.00  0.00    +0.000 C 
ATOM     32  N   UNL     1      -4.018  11.563  17.124  0.00  0.00    +0.000 N 
ATOM     33  C   UNL     1      -5.227  12.216  17.539  0.00  0.00    +0.000 C 
ENDBRANCH  27  28
ENDBRANCH  23  27
ENDBRANCH   5  23
TORSDOF 6
ENDMDL
MODEL 4
REMARK VINA RESULT:      -8.8      3.254      8.672
REMARK  Name = 
REMARK  8 active torsions:
REMARK  status: ('A' for Active; 'I' for Inactive)
REMARK    1  A    between atoms: C_1  and  C_2
REMARK    2  A    between atoms: C_2  and  C_3
REMARK    3  A    between atoms: C_7  and  C_8
REMARK    4  A    between atoms: N_14  and  C_15
REMARK    5  A    between atoms: C_19  and  C_20
REMARK    6  A    between atoms: C_20  and  C_21
REMARK    7  A    between atoms: C_21  and  C_22
REMARK    8  A    between atoms: N_26  and  C_27
REMARK                            x       y       z     vdW  Elec       q    Type
REMARK                         _______ _______ _______ _____ _____    ______ ____
ROOT
ATOM      1  C   UNL     1       0.931   8.984  20.485  0.00  0.00    +0.000 A 
ATOM      2  C   UNL     1       1.042   9.335  21.830  0.00  0.00    +0.000 A 
ATOM      3  C   UNL     1       0.350  10.434  22.335  0.00  0.00    +0.000 A 
ATOM      4  C   UNL     1      -0.477  11.183  21.498  0.00  0.00    +0.000 A 
ATOM      5  C   UNL     1      -0.619  10.880  20.130  0.00  0.00    +0.000 A 
ATOM      6  C   UNL     1       0.119   9.775  19.661  0.00  0.00    +0.000 A 
ENDROOT
BRANCH   1  14
ATOM      7  C   UNL     1       4.023   4.654  17.648  0.00  0.00    +0.000 A 
ATOM      8  C   UNL     1       3.685   6.009  17.612  0.00  0.00    +0.000 A 
ATOM      9  C   UNL     1       2.871   6.494  18.612  0.00  0.00    +0.000 A 
ATOM     10  C   UNL     1       2.385   5.703  19.649  0.00  0.00    +0.000 A 
ATOM     11  C   UNL     1       2.689   4.345  19.704  0.00  0.00    +0.000 A 
ATOM     12  C   UNL     1       3.517   3.834  18.685  0.00  0.00    +0.000 A 
ATOM     13  C   UNL     1       1.579   6.554  20.576  0.00  0.00    +0.000 C 
ATOM     14  N   UNL     1       1.610   7.866  19.941  0.00  0.00    +0.000 N 
ATOM     15  C   UNL     1       2.369   7.858  18.777  0.00  0.00    +0.000 C 
ATOM     16  O   UNL     1       2.644   8.748  17.991  0.00  0.00    +0.000 OA
BRANCH  11  17
ATOM     17  C   UNL     1       2.159   3.430  20.775  0.00  0.00    +0.000 C 
ATOM     18  F   UNL     1       0.808   3.256  20.730  0.00  0.00    +0.000 F 
ATOM     19  F   UNL     1       2.695   2.181  20.701  0.00  0.00    +0.000 F 
ATOM     20  F   UNL     1       2.433   3.883  22.028  0.00  0.00    +0.000 F 
ENDBRANCH  11  17
BRANCH   7  22
ATOM     21  C   UNL     1       6.322   4.514  16.696  0.00  0.00    +0.000 C 
ATOM     22  C   UNL     1       4.874   4.072  16.550  0.00  0.00    +0.000 C 
ENDBRANCH   7  22
ENDBRANCH   1  14
BRANCH   5  23
ATOM     23  C   UNL     1      -1.546  11.747  19.152  0.00  0.00    +0.000 C 
ATOM     24  C   UNL     1      -2.778  12.418  19.819  0.00  0.00    +0.000 C 
ATOM     25  O   UNL     1      -3.645  12.001  18.739  0.00  0.00    +0.000 OA
ATOM     26  C   UNL     1      -2.641  11.055  18.290  0.00  0.00    +0.000 C 
BRANCH  23  27
ATOM     27  C   UNL     1      -0.695  12.735  18.336  0.00  0.00    +0.000 C 
BRANCH  27  28
ATOM     28  C   UNL     1       0.320  13.522  19.131  0.00  0.00    +0.000 C 
ATOM     29  N   UNL     1      -0.044  14.412  20.026  0.00  0.00    +0.000 NA
ATOM     30  C   UNL     1       1.252  14.929  20.564  0.00  0.00    +0.000 C 
ATOM     31  C   UNL     1       2.313  13.894  20.181  0.00  0.00    +0.000 C 
ATOM     32  N   UNL     1       1.671  13.296  19.036  0.00  0.00    +0.000 N 
ATOM     33  C   UNL     1       2.348  12.322  18.226  0.00  0.00    +0.000 C 
ENDBRANCH  27  28
ENDBRANCH  23  27
ENDBRANCH   5  23
TORSDOF 6
ENDMDL
MODEL 5
REMARK VINA RESULT:      -8.7      3.637      8.701
REMARK  Name = 
REMARK  8 active torsions:
REMARK  status: ('A' for Active; 'I' for Inactive)
REMARK    1  A    between atoms: C_1  and  C_2
REMARK    2  A    between atoms: C_2  and  C_3
REMARK    3  A    between atoms: C_7  and  C_8
REMARK    4  A    between atoms: N_14  and  C_15
REMARK    5  A    between atoms: C_19  and  C_20
REMARK    6  A    between atoms: C_20  and  C_21
REMARK    7  A    between atoms: C_21  and  C_22
REMARK    8  A    between atoms: N_26  and  C_27
REMARK                            x       y       z     vdW  Elec       q    Type
REMARK                         _______ _______ _______ _____ _____    ______ ____
ROOT
ATOM      1  C   UNL     1       1.404   8.436  20.070  0.00  0.00    +0.000 A 
ATOM      2  C   UNL     1       1.438   8.376  21.464  0.00  0.00    +0.000 A 
ATOM      3  C   UNL     1       0.612   9.197  22.228  0.00  0.00    +0.000 A 
ATOM      4  C   UNL     1      -0.272  10.076  21.603  0.00  0.00    +0.000 A 
ATOM      5  C   UNL     1      -0.341  10.186  20.201  0.00  0.00    +0.000 A 
ATOM      6  C   UNL     1       0.529   9.353  19.471  0.00  0.00    +0.000 A 
ENDROOT
BRANCH   1  14
ATOM      7  C   UNL     1       4.991   5.479  16.231  0.00  0.00    +0.000 A 
ATOM      8  C   UNL     1       4.454   6.731  16.539  0.00  0.00    +0.000 A 
ATOM      9  C   UNL     1       3.617   6.821  17.629  0.00  0.00    +0.000 A 
ATOM     10  C   UNL     1       3.294   5.731  18.433  0.00  0.00    +0.000 A 
ATOM     11  C   UNL     1       3.799   4.466  18.143  0.00  0.00    +0.000 A 
ATOM     12  C   UNL     1       4.653   4.359  17.027  0.00  0.00    +0.000 A 
ATOM     13  C   UNL     1       2.409   6.190  19.545  0.00  0.00    +0.000 C 
ATOM     14  N   UNL     1       2.219   7.607  19.262  0.00  0.00    +0.000 N 
ATOM     15  C   UNL     1       2.925   8.007  18.133  0.00  0.00    +0.000 C 
ATOM     16  O   UNL     1       3.033   9.096  17.597  0.00  0.00    +0.000 OA
BRANCH  11  17
ATOM     17  C   UNL     1       3.453   3.243  18.949  0.00  0.00    +0.000 C 
ATOM     18  F   UNL     1       2.114   3.016  19.057  0.00  0.00    +0.000 F 
ATOM     19  F   UNL     1       3.979   2.106  18.415  0.00  0.00    +0.000 F 
ATOM     20  F   UNL     1       3.922   3.310  20.224  0.00  0.00    +0.000 F 
ENDBRANCH  11  17
BRANCH   7  22
ATOM     21  C   UNL     1       6.066   3.859  14.672  0.00  0.00    +0.000 C 
ATOM     22  C   UNL     1       5.874   5.327  15.021  0.00  0.00    +0.000 C 
ENDBRANCH   7  22
ENDBRANCH   1  14
BRANCH   5  23
ATOM     23  C   UNL     1      -1.334  11.209  19.470  0.00  0.00    +0.000 C 
ATOM     24  C   UNL     1      -0.682  12.126  18.400  0.00  0.00    +0.000 C 
ATOM     25  O   UNL     1      -1.370  13.290  18.915  0.00  0.00    +0.000 OA
ATOM     26  C   UNL     1      -1.686  12.572  20.134  0.00  0.00    +0.000 C 
BRANCH  23  27
ATOM     27  C   UNL     1      -2.580  10.473  18.947  0.00  0.00    +0.000 C 
BRANCH  27  28
ATOM     28  C   UNL     1      -2.802  10.559  17.455  0.00  0.00    +0.000 C 
ATOM     29  N   UNL     1      -2.071   9.871  16.608  0.00  0.00    +0.000 NA
ATOM     30  C   UNL     1      -2.628  10.243  15.271  0.00  0.00    +0.000 C 
ATOM     31  C   UNL     1      -4.011  10.841  15.539  0.00  0.00    +0.000 C 
ATOM     32  N   UNL     1      -3.829  11.282  16.900  0.00  0.00    +0.000 N 
ATOM     33  C   UNL     1      -4.841  12.042  17.579  0.00  0.00    +0.000 C 
ENDBRANCH  27  28
ENDBRANCH  23  27
ENDBRANCH   5  23
TORSDOF 6
ENDMDL
MODEL 6
REMARK VINA RESULT:      -8.7      3.425      8.931
REMARK  Name = 
REMARK  8 active torsions:
REMARK  status: ('A' for Active; 'I' for Inactive)
REMARK    1  A    between atoms: C_1  and  C_2
REMARK    2  A    between atoms: C_2  and  C_3
REMARK    3  A    between atoms: C_7  and  C_8
REMARK    4  A    between atoms: N_14  and  C_15
REMARK    5  A    between atoms: C_19  and  C_20
REMARK    6  A    between atoms: C_20  and  C_21
REMARK    7  A    between atoms: C_21  and  C_22
REMARK    8  A    between atoms: N_26  and  C_27
REMARK                            x       y       z     vdW  Elec       q    Type
REMARK                         _______ _______ _______ _____ _____    ______ ____
ROOT
ATOM      1  C   UNL     1       1.590   8.144  20.155  0.00  0.00    +0.000 A 
ATOM      2  C   UNL     1       1.448   8.068  21.541  0.00  0.00    +0.000 A 
ATOM      3  C   UNL     1       0.758   9.058  22.237  0.00  0.00    +0.000 A 
ATOM      4  C   UNL     1       0.187  10.128  21.549  0.00  0.00    +0.000 A 
ATOM      5  C   UNL     1       0.308  10.260  20.152  0.00  0.00    +0.000 A 
ATOM      6  C   UNL     1       1.033   9.248  19.495  0.00  0.00    +0.000 A 
ENDROOT
BRANCH   1  14
ATOM      7  C   UNL     1       4.716   4.432  16.578  0.00  0.00    +0.000 A 
ATOM      8  C   UNL     1       4.391   5.771  16.808  0.00  0.00    +0.000 A 
ATOM      9  C   UNL     1       3.556   6.056  17.866  0.00  0.00    +0.000 A 
ATOM     10  C   UNL     1       3.034   5.078  18.709  0.00  0.00    +0.000 A 
ATOM     11  C   UNL     1       3.325   3.734  18.496  0.00  0.00    +0.000 A 
ATOM     12  C   UNL     1       4.175   3.427  17.414  0.00  0.00    +0.000 A 
ATOM     13  C   UNL     1       2.213   5.737  19.769  0.00  0.00    +0.000 C 
ATOM     14  N   UNL     1       2.273   7.149  19.413  0.00  0.00    +0.000 N 
ATOM     15  C   UNL     1       3.062   7.366  18.291  0.00  0.00    +0.000 C 
ATOM     16  O   UNL     1       3.365   8.392  17.707  0.00  0.00    +0.000 OA
BRANCH  11  17
ATOM     17  C   UNL     1       2.758   2.629  19.347  0.00  0.00    +0.000 C 
ATOM     18  F   UNL     1       1.399   2.649  19.440  0.00  0.00    +0.000 F 
ATOM     19  F   UNL     1       3.078   1.394  18.872  0.00  0.00    +0.000 F 
ATOM     20  F   UNL     1       3.218   2.670  20.626  0.00  0.00    +0.000 F 
ENDBRANCH  11  17
BRANCH   7  22
ATOM     21  C   UNL     1       6.972   4.689  15.551  0.00  0.00    +0.000 C 
ATOM     22  C   UNL     1       5.589   4.071  15.405  0.00  0.00    +0.000 C 
ENDBRANCH   7  22
ENDBRANCH   1  14
BRANCH   5  23
ATOM     23  C   UNL     1      -0.323  11.497  19.352  0.00  0.00    +0.000 C 
ATOM     24  C   UNL     1      -1.546  12.177  20.025  0.00  0.00    +0.000 C 
ATOM     25  O   UNL     1      -2.272  12.209  18.774  0.00  0.00    +0.000 OA
ATOM     26  C   UNL     1      -1.344  11.252  18.204  0.00  0.00    +0.000 C 
BRANCH  23  27
ATOM     27  C   UNL     1       0.775  12.500  18.955  0.00  0.00    +0.000 C 
BRANCH  27  28
ATOM     28  C   UNL     1       1.068  13.574  19.976  0.00  0.00    +0.000 C 
ATOM     29  N   UNL     1       1.852  13.351  21.006  0.00  0.00    +0.000 NA
ATOM     30  C   UNL     1       1.869  14.659  21.732  0.00  0.00    +0.000 C 
ATOM     31  C   UNL     1       1.380  15.707  20.730  0.00  0.00    +0.000 C 
ATOM     32  N   UNL     1       0.612  14.863  19.847  0.00  0.00    +0.000 N 
ATOM     33  C   UNL     1      -0.171  15.419  18.779  0.00  0.00    +0.000 C 
ENDBRANCH  27  28
ENDBRANCH  23  27
ENDBRANCH   5  23
TORSDOF 6
ENDMDL
MODEL 7
REMARK VINA RESULT:      -8.7      3.360      8.733
REMARK  Name = 
REMARK  8 active torsions:
REMARK  status: ('A' for Active; 'I' for Inactive)
REMARK    1  A    between atoms: C_1  and  C_2
REMARK    2  A    between atoms: C_2  and  C_3
REMARK    3  A    between atoms: C_7  and  C_8
REMARK    4  A    between atoms: N_14  and  C_15
REMARK    5  A    between atoms: C_19  and  C_20
REMARK    6  A    between atoms: C_20  and  C_21
REMARK    7  A    between atoms: C_21  and  C_22
REMARK    8  A    between atoms: N_26  and  C_27
REMARK                            x       y       z     vdW  Elec       q    Type
REMARK                         _______ _______ _______ _____ _____    ______ ____
ROOT
ATOM      1  C   UNL     1       0.720   9.140  20.708  0.00  0.00    +0.000 A 
ATOM      2  C   UNL     1       0.315   9.138  22.043  0.00  0.00    +0.000 A 
ATOM      3  C   UNL     1      -0.387  10.219  22.571  0.00  0.00    +0.000 A 
ATOM      4  C   UNL     1      -0.708  11.308  21.760  0.00  0.00    +0.000 A 
ATOM      5  C   UNL     1      -0.315  11.367  20.409  0.00  0.00    +0.000 A 
ATOM      6  C   UNL     1       0.413  10.262  19.927  0.00  0.00    +0.000 A 
ENDROOT
BRANCH   1  14
ATOM      7  C   UNL     1       3.900   4.957  17.752  0.00  0.00    +0.000 A 
ATOM      8  C   UNL     1       3.525   6.302  17.748  0.00  0.00    +0.000 A 
ATOM      9  C   UNL     1       2.708   6.744  18.765  0.00  0.00    +0.000 A 
ATOM     10  C   UNL     1       2.254   5.918  19.790  0.00  0.00    +0.000 A 
ATOM     11  C   UNL     1       2.595   4.568  19.813  0.00  0.00    +0.000 A 
ATOM     12  C   UNL     1       3.427   4.101  18.775  0.00  0.00    +0.000 A 
ATOM     13  C   UNL     1       1.435   6.727  20.742  0.00  0.00    +0.000 C 
ATOM     14  N   UNL     1       1.424   8.052  20.135  0.00  0.00    +0.000 N 
ATOM     15  C   UNL     1       2.171   8.090  18.964  0.00  0.00    +0.000 C 
ATOM     16  O   UNL     1       2.413   9.003  18.193  0.00  0.00    +0.000 OA
BRANCH  11  17
ATOM     17  C   UNL     1       2.101   3.617  20.870  0.00  0.00    +0.000 C 
ATOM     18  F   UNL     1       2.579   2.349  20.735  0.00  0.00    +0.000 F 
ATOM     19  F   UNL     1       2.450   4.013  22.125  0.00  0.00    +0.000 F 
ATOM     20  F   UNL     1       0.746   3.505  20.875  0.00  0.00    +0.000 F 
ENDBRANCH  11  17
BRANCH   7  22
ATOM     21  C   UNL     1       5.315   5.556  15.790  0.00  0.00    +0.000 C 
ATOM     22  C   UNL     1       4.755   4.421  16.633  0.00  0.00    +0.000 C 
ENDBRANCH   7  22
ENDBRANCH   1  14
BRANCH   5  23
ATOM     23  C   UNL     1      -0.655  12.623  19.473  0.00  0.00    +0.000 C 
ATOM     24  C   UNL     1       0.486  13.664  19.310  0.00  0.00    +0.000 C 
ATOM     25  O   UNL     1      -0.430  14.765  19.518  0.00  0.00    +0.000 OA
ATOM     26  C   UNL     1      -1.421  13.848  20.050  0.00  0.00    +0.000 C 
BRANCH  23  27
ATOM     27  C   UNL     1      -1.231  12.152  18.125  0.00  0.00    +0.000 C 
BRANCH  27  28
ATOM     28  C   UNL     1      -2.695  11.779  18.145  0.00  0.00    +0.000 C 
ATOM     29  N   UNL     1      -3.468  12.072  19.166  0.00  0.00    +0.000 NA
ATOM     30  C   UNL     1      -4.807  11.540  18.765  0.00  0.00    +0.000 C 
ATOM     31  C   UNL     1      -4.749  11.347  17.247  0.00  0.00    +0.000 C 
ATOM     32  N   UNL     1      -3.325  11.199  17.072  0.00  0.00    +0.000 N 
ATOM     33  C   UNL     1      -2.763  10.863  15.794  0.00  0.00    +0.000 C 
ENDBRANCH  27  28
ENDBRANCH  23  27
ENDBRANCH   5  23
TORSDOF 6
ENDMDL
MODEL 8
REMARK VINA RESULT:      -8.7      3.421      8.666
REMARK  Name = 
REMARK  8 active torsions:
REMARK  status: ('A' for Active; 'I' for Inactive)
REMARK    1  A    between atoms: C_1  and  C_2
REMARK    2  A    between atoms: C_2  and  C_3
REMARK    3  A    between atoms: C_7  and  C_8
REMARK    4  A    between atoms: N_14  and  C_15
REMARK    5  A    between atoms: C_19  and  C_20
REMARK    6  A    between atoms: C_20  and  C_21
REMARK    7  A    between atoms: C_21  and  C_22
REMARK    8  A    between atoms: N_26  and  C_27
REMARK                            x       y       z     vdW  Elec       q    Type
REMARK                         _______ _______ _______ _____ _____    ______ ____
ROOT
ATOM      1  C   UNL     1       1.115   8.564  20.728  0.00  0.00    +0.000 A 
ATOM      2  C   UNL     1       0.982   8.541  22.117  0.00  0.00    +0.000 A 
ATOM      3  C   UNL     1       0.328   9.576  22.783  0.00  0.00    +0.000 A 
ATOM      4  C   UNL     1      -0.218  10.637  22.060  0.00  0.00    +0.000 A 
ATOM      5  C   UNL     1      -0.104  10.716  20.659  0.00  0.00    +0.000 A 
ATOM      6  C   UNL     1       0.586   9.659  20.033  0.00  0.00    +0.000 A 
ENDROOT
BRANCH   1  14
ATOM      7  C   UNL     1       4.079   4.631  17.250  0.00  0.00    +0.000 A 
ATOM      8  C   UNL     1       3.775   5.984  17.419  0.00  0.00    +0.000 A 
ATOM      9  C   UNL     1       2.980   6.335  18.488  0.00  0.00    +0.000 A 
ATOM     10  C   UNL     1       2.480   5.409  19.401  0.00  0.00    +0.000 A 
ATOM     11  C   UNL     1       2.750   4.052  19.250  0.00  0.00    +0.000 A 
ATOM     12  C   UNL     1       3.559   3.679  18.158  0.00  0.00    +0.000 A 
ATOM     13  C   UNL     1       1.702   6.133  20.451  0.00  0.00    +0.000 C 
ATOM     14  N   UNL     1       1.762   7.523  20.018  0.00  0.00    +0.000 N 
ATOM     15  C   UNL     1       2.513   7.671  18.859  0.00  0.00    +0.000 C 
ATOM     16  O   UNL     1       2.805   8.661  18.210  0.00  0.00    +0.000 OA
BRANCH  11  17
ATOM     17  C   UNL     1       2.204   3.001  20.179  0.00  0.00    +0.000 C 
ATOM     18  F   UNL     1       0.856   3.076  20.362  0.00  0.00    +0.000 F 
ATOM     19  F   UNL     1       2.447   1.739  19.731  0.00  0.00    +0.000 F 
ATOM     20  F   UNL     1       2.752   3.071  21.422  0.00  0.00    +0.000 F 
ENDBRANCH  11  17
BRANCH   7  22
ATOM     21  C   UNL     1       5.492   5.405  15.348  0.00  0.00    +0.000 C 
ATOM     22  C   UNL     1       4.907   4.199  16.069  0.00  0.00    +0.000 C 
ENDBRANCH   7  22
ENDBRANCH   1  14
BRANCH   5  23
ATOM     23  C   UNL     1      -0.705  11.942  19.819  0.00  0.00    +0.000 C 
ATOM     24  C   UNL     1      -2.209  11.827  19.450  0.00  0.00    +0.000 C 
ATOM     25  O   UNL     1      -1.951  12.243  18.088  0.00  0.00    +0.000 OA
ATOM     26  C   UNL     1      -0.535  11.992  18.273  0.00  0.00    +0.000 C 
BRANCH  23  27
ATOM     27  C   UNL     1      -0.354  13.281  20.491  0.00  0.00    +0.000 C 
BRANCH  27  28
ATOM     28  C   UNL     1       0.926  13.926  20.016  0.00  0.00    +0.000 C 
ATOM     29  N   UNL     1       2.100  13.390  20.261  0.00  0.00    +0.000 NA
ATOM     30  C   UNL     1       3.065  14.333  19.615  0.00  0.00    +0.000 C 
ATOM     31  C   UNL     1       2.246  15.167  18.626  0.00  0.00    +0.000 C 
ATOM     32  N   UNL     1       0.941  15.051  19.229  0.00  0.00    +0.000 N 
ATOM     33  C   UNL     1      -0.183  15.787  18.721  0.00  0.00    +0.000 C 
ENDBRANCH  27  28
ENDBRANCH  23  27
ENDBRANCH   5  23
TORSDOF 6
ENDMDL
MODEL 9
REMARK VINA RESULT:      -8.6      3.409      8.502
REMARK  Name = 
REMARK  8 active torsions:
REMARK  status: ('A' for Active; 'I' for Inactive)
REMARK    1  A    between atoms: C_1  and  C_2
REMARK    2  A    between atoms: C_2  and  C_3
REMARK    3  A    between atoms: C_7  and  C_8
REMARK    4  A    between atoms: N_14  and  C_15
REMARK    5  A    between atoms: C_19  and  C_20
REMARK    6  A    between atoms: C_20  and  C_21
REMARK    7  A    between atoms: C_21  and  C_22
REMARK    8  A    between atoms: N_26  and  C_27
REMARK                            x       y       z     vdW  Elec       q    Type
REMARK                         _______ _______ _______ _____ _____    ______ ____
ROOT
ATOM      1  C   UNL     1       0.882   8.869  20.849  0.00  0.00    +0.000 A 
ATOM      2  C   UNL     1       0.211   8.730  22.064  0.00  0.00    +0.000 A 
ATOM      3  C   UNL     1      -0.425   9.822  22.651  0.00  0.00    +0.000 A 
ATOM      4  C   UNL     1      -0.410  11.064  22.016  0.00  0.00    +0.000 A 
ATOM      5  C   UNL     1       0.261  11.264  20.794  0.00  0.00    +0.000 A 
ATOM      6  C   UNL     1       0.908  10.137  20.251  0.00  0.00    +0.000 A 
ENDROOT
BRANCH   1  14
ATOM      7  C   UNL     1       3.812   4.680  17.654  0.00  0.00    +0.000 A 
ATOM      8  C   UNL     1       3.484   6.036  17.704  0.00  0.00    +0.000 A 
ATOM      9  C   UNL     1       2.718   6.472  18.764  0.00  0.00    +0.000 A 
ATOM     10  C   UNL     1       2.271   5.629  19.778  0.00  0.00    +0.000 A 
ATOM     11  C   UNL     1       2.567   4.269  19.747  0.00  0.00    +0.000 A 
ATOM     12  C   UNL     1       3.345   3.808  18.666  0.00  0.00    +0.000 A 
ATOM     13  C   UNL     1       1.514   6.435  20.783  0.00  0.00    +0.000 C 
ATOM     14  N   UNL     1       1.528   7.778  20.218  0.00  0.00    +0.000 N 
ATOM     15  C   UNL     1       2.235   7.828  19.023  0.00  0.00    +0.000 C 
ATOM     16  O   UNL     1       2.482   8.757  18.273  0.00  0.00    +0.000 OA
BRANCH  11  17
ATOM     17  C   UNL     1       2.077   3.302  20.790  0.00  0.00    +0.000 C 
ATOM     18  F   UNL     1       2.531   3.571  22.046  0.00  0.00    +0.000 F 
ATOM     19  F   UNL     1       0.718   3.286  20.884  0.00  0.00    +0.000 F 
ATOM     20  F   UNL     1       2.450   2.020  20.528  0.00  0.00    +0.000 F 
ENDBRANCH  11  17
BRANCH   7  22
ATOM     21  C   UNL     1       5.409   5.267  15.832  0.00  0.00    +0.000 C 
ATOM     22  C   UNL     1       4.609   4.152  16.489  0.00  0.00    +0.000 C 
ENDBRANCH   7  22
ENDBRANCH   1  14
BRANCH   5  23
ATOM     23  C   UNL     1       0.307  12.691  20.066  0.00  0.00    +0.000 C 
ATOM     24  C   UNL     1       1.719  13.317  19.910  0.00  0.00    +0.000 C 
ATOM     25  O   UNL     1       1.243  14.609  20.354  0.00  0.00    +0.000 OA
ATOM     26  C   UNL     1       0.037  13.993  20.873  0.00  0.00    +0.000 C 
BRANCH  23  27
ATOM     27  C   UNL     1      -0.477  12.648  18.742  0.00  0.00    +0.000 C 
BRANCH  27  28
ATOM     28  C   UNL     1      -1.905  12.168  18.853  0.00  0.00    +0.000 C 
ATOM     29  N   UNL     1      -2.817  12.860  19.497  0.00  0.00    +0.000 NA
ATOM     30  C   UNL     1      -4.059  12.039  19.350  0.00  0.00    +0.000 C 
ATOM     31  C   UNL     1      -3.799  11.082  18.184  0.00  0.00    +0.000 C 
ATOM     32  N   UNL     1      -2.358  11.037  18.219  0.00  0.00    +0.000 N 
ATOM     33  C   UNL     1      -1.619  10.147  17.367  0.00  0.00    +0.000 C 
ENDBRANCH  27  28
ENDBRANCH  23  27
ENDBRANCH   5  23
TORSDOF 6
ENDMDL
