MODEL 1
REMARK VINA RESULT:      -8.6      0.000      0.000
REMARK  Name = 
REMARK  5 active torsions:
REMARK  status: ('A' for Active; 'I' for Inactive)
REMARK    1  A    between atoms: C_1  and  C_2
REMARK    2  A    between atoms: C_4  and  C_5
REMARK    3  A    between atoms: C_13  and  C_14
REMARK    4  A    between atoms: N_16  and  C_17
REMARK    5  A    between atoms: C_17  and  C_18
REMARK                            x       y       z     vdW  Elec       q    Type
REMARK                         _______ _______ _______ _____ _____    ______ ____
ROOT
ATOM      1  C   UNL     1       2.383   4.363  20.494  0.00  0.00    +0.000 C 
ATOM      2  C   UNL     1       2.328   5.657  19.739  0.00  0.00    +0.000 A 
ATOM      3  N   UNL     1       1.801   6.693  20.458  0.00  0.00    +0.000 NA
ATOM      4  C   UNL     1       1.712   7.927  19.902  0.00  0.00    +0.000 A 
ATOM      5  C   UNL     1       2.173   8.157  18.611  0.00  0.00    +0.000 A 
ATOM      6  C   UNL     1       2.698   7.093  17.868  0.00  0.00    +0.000 A 
ATOM      7  C   UNL     1       2.762   5.807  18.416  0.00  0.00    +0.000 A 
ENDROOT
BRANCH   4   8
ATOM      8  C   UNL     1       1.053   8.960  20.730  0.00  0.00    +0.000 A 
ATOM      9  C   UNL     1       0.752  10.248  20.245  0.00  0.00    +0.000 A 
ATOM     10  C   UNL     1       0.091  11.191  21.042  0.00  0.00    +0.000 A 
ATOM     11  C   UNL     1      -0.282  10.870  22.344  0.00  0.00    +0.000 A 
ATOM     12  C   UNL     1       0.017   9.612  22.857  0.00  0.00    +0.000 A 
ATOM     13  C   UNL     1       0.680   8.675  22.059  0.00  0.00    +0.000 A 
ENDBRANCH   4   8
BRANCH   7  14
ATOM     14  C   UNL     1       3.302   4.670  17.600  0.00  0.00    +0.000 C 
ATOM     15  O   UNL     1       2.588   3.737  17.253  0.00  0.00    +0.000 OA
ATOM     16  N   UNL     1       4.639   4.735  17.262  0.00  0.00    +0.000 N 
ATOM     17  H   UNL     1       5.178   5.579  17.422  0.00  0.00    +0.000 HD
BRANCH  16  18
ATOM     18  C   UNL     1       5.309   3.691  16.502  0.00  0.00    +0.000 C 
BRANCH  18  19
ATOM     19  C   UNL     1       6.265   4.321  15.546  0.00  0.00    +0.000 A 
ATOM     20  N   UNL     1       7.224   5.196  15.836  0.00  0.00    +0.000 NA
ATOM     21  N   UNL     1       7.871   5.566  14.662  0.00  0.00    +0.000 NA
ATOM     22  C   UNL     1       7.287   4.911  13.702  0.00  0.00    +0.000 A 
ATOM     23  N   UNL     1       6.299   4.122  14.209  0.00  0.00    +0.000 N 
ATOM     24  C   UNL     1       5.607   3.363  13.196  0.00  0.00    +0.000 C 
ATOM     25  C   UNL     1       6.530   3.535  11.965  0.00  0.00    +0.000 C 
ATOM     26  C   UNL     1       7.393   4.793  12.237  0.00  0.00    +0.000 C 
ENDBRANCH  18  19
ENDBRANCH  16  18
ENDBRANCH   7  14
TORSDOF 4
ENDMDL
MODEL 2
REMARK VINA RESULT:      -8.3      1.963      2.860
REMARK  Name = 
REMARK  5 active torsions:
REMARK  status: ('A' for Active; 'I' for Inactive)
REMARK    1  A    between atoms: C_1  and  C_2
REMARK    2  A    between atoms: C_4  and  C_5
REMARK    3  A    between atoms: C_13  and  C_14
REMARK    4  A    between atoms: N_16  and  C_17
REMARK    5  A    between atoms: C_17  and  C_18
REMARK                            x       y       z     vdW  Elec       q    Type
REMARK                         _______ _______ _______ _____ _____    ______ ____
ROOT
ATOM      1  C   UNL     1       1.382   7.118  21.154  0.00  0.00    +0.000 C 
ATOM      2  C   UNL     1       1.629   7.935  19.920  0.00  0.00    +0.000 A 
ATOM      3  N   UNL     1       1.122   9.202  19.987  0.00  0.00    +0.000 NA
ATOM      4  C   UNL     1       1.293  10.056  18.948  0.00  0.00    +0.000 A 
ATOM      5  C   UNL     1       2.000   9.663  17.817  0.00  0.00    +0.000 A 
ATOM      6  C   UNL     1       2.506   8.359  17.741  0.00  0.00    +0.000 A 
ATOM      7  C   UNL     1       2.305   7.456  18.791  0.00  0.00    +0.000 A 
ENDROOT
BRANCH   4   8
ATOM      8  C   UNL     1       0.638  11.375  19.083  0.00  0.00    +0.000 A 
ATOM      9  C   UNL     1       1.224  12.568  18.617  0.00  0.00    +0.000 A 
ATOM     10  C   UNL     1       0.560  13.796  18.725  0.00  0.00    +0.000 A 
ATOM     11  C   UNL     1      -0.705  13.861  19.303  0.00  0.00    +0.000 A 
ATOM     12  C   UNL     1      -1.301  12.702  19.788  0.00  0.00    +0.000 A 
ATOM     13  C   UNL     1      -0.633  11.479  19.682  0.00  0.00    +0.000 A 
ENDBRANCH   4   8
BRANCH   7  14
ATOM     14  C   UNL     1       2.829   6.055  18.685  0.00  0.00    +0.000 C 
ATOM     15  O   UNL     1       2.181   5.170  18.138  0.00  0.00    +0.000 OA
ATOM     16  N   UNL     1       4.074   5.819  19.233  0.00  0.00    +0.000 N 
ATOM     17  H   UNL     1       4.662   6.585  19.543  0.00  0.00    +0.000 HD
BRANCH  16  18
ATOM     18  C   UNL     1       4.696   4.503  19.234  0.00  0.00    +0.000 C 
BRANCH  18  19
ATOM     19  C   UNL     1       5.847   4.509  18.286  0.00  0.00    +0.000 A 
ATOM     20  N   UNL     1       7.140   4.521  18.600  0.00  0.00    +0.000 NA
ATOM     21  N   UNL     1       7.891   4.556  17.430  0.00  0.00    +0.000 NA
ATOM     22  C   UNL     1       7.037   4.565  16.449  0.00  0.00    +0.000 A 
ATOM     23  N   UNL     1       5.766   4.524  16.937  0.00  0.00    +0.000 N 
ATOM     24  C   UNL     1       4.763   4.530  15.900  0.00  0.00    +0.000 C 
ATOM     25  C   UNL     1       5.599   4.247  14.629  0.00  0.00    +0.000 C 
ATOM     26  C   UNL     1       7.064   4.614  14.977  0.00  0.00    +0.000 C 
ENDBRANCH  18  19
ENDBRANCH  16  18
ENDBRANCH   7  14
TORSDOF 4
ENDMDL
MODEL 3
REMARK VINA RESULT:      -8.3      4.614      7.208
REMARK  Name = 
REMARK  5 active torsions:
REMARK  status: ('A' for Active; 'I' for Inactive)
REMARK    1  A    between atoms: C_1  and  C_2
REMARK    2  A    between atoms: C_4  and  C_5
REMARK    3  A    between atoms: C_13  and  C_14
REMARK    4  A    between atoms: N_16  and  C_17
REMARK    5  A    between atoms: C_17  and  C_18
REMARK                            x       y       z     vdW  Elec       q    Type
REMARK                         _______ _______ _______ _____ _____    ______ ____
ROOT
ATOM      1  C   UNL     1       5.003   7.034  15.861  0.00  0.00    +0.000 C 
ATOM      2  C   UNL     1       6.155   6.916  16.814  0.00  0.00    +0.000 A 
ATOM      3  N   UNL     1       6.731   8.113  17.134  0.00  0.00    +0.000 NA
ATOM      4  C   UNL     1       7.770   8.154  18.004  0.00  0.00    +0.000 A 
ATOM      5  C   UNL     1       8.245   6.989  18.594  0.00  0.00    +0.000 A 
ATOM      6  C   UNL     1       7.667   5.760  18.255  0.00  0.00    +0.000 A 
ATOM      7  C   UNL     1       6.618   5.700  17.330  0.00  0.00    +0.000 A 
ENDROOT
BRANCH   4   8
ATOM      8  C   UNL     1       8.376   9.485  18.222  0.00  0.00    +0.000 A 
ATOM      9  C   UNL     1       8.029  10.615  17.455  0.00  0.00    +0.000 A 
ATOM     10  C   UNL     1       8.592  11.871  17.712  0.00  0.00    +0.000 A 
ATOM     11  C   UNL     1       9.516  12.028  18.741  0.00  0.00    +0.000 A 
ATOM     12  C   UNL     1       9.891  10.927  19.505  0.00  0.00    +0.000 A 
ATOM     13  C   UNL     1       9.329   9.674  19.242  0.00  0.00    +0.000 A 
ENDBRANCH   4   8
BRANCH   7  14
ATOM     14  C   UNL     1       6.024   4.374  16.955  0.00  0.00    +0.000 C 
ATOM     15  O   UNL     1       6.358   3.792  15.930  0.00  0.00    +0.000 OA
ATOM     16  N   UNL     1       5.089   3.849  17.825  0.00  0.00    +0.000 N 
ATOM     17  H   UNL     1       4.936   4.261  18.739  0.00  0.00    +0.000 HD
BRANCH  16  18
ATOM     18  C   UNL     1       4.406   2.588  17.577  0.00  0.00    +0.000 C 
BRANCH  18  19
ATOM     19  C   UNL     1       3.026   2.663  18.138  0.00  0.00    +0.000 A 
ATOM     20  N   UNL     1       1.885   2.669  17.454  0.00  0.00    +0.000 NA
ATOM     21  N   UNL     1       0.822   2.783  18.344  0.00  0.00    +0.000 NA
ATOM     22  C   UNL     1       1.348   2.845  19.533  0.00  0.00    +0.000 A 
ATOM     23  N   UNL     1       2.705   2.760  19.448  0.00  0.00    +0.000 N 
ATOM     24  C   UNL     1       3.355   2.821  20.734  0.00  0.00    +0.000 C 
ATOM     25  C   UNL     1       2.173   2.624  21.713  0.00  0.00    +0.000 C 
ATOM     26  C   UNL     1       0.887   2.984  20.925  0.00  0.00    +0.000 C 
ENDBRANCH  18  19
ENDBRANCH  16  18
ENDBRANCH   7  14
TORSDOF 4
ENDMDL
MODEL 4
REMARK VINA RESULT:      -8.2      2.000      3.228
REMARK  Name = 
REMARK  5 active torsions:
REMARK  status: ('A' for Active; 'I' for Inactive)
REMARK    1  A    between atoms: C_1  and  C_2
REMARK    2  A    between atoms: C_4  and  C_5
REMARK    3  A    between atoms: C_13  and  C_14
REMARK    4  A    between atoms: N_16  and  C_17
REMARK    5  A    between atoms: C_17  and  C_18
REMARK                            x       y       z     vdW  Elec       q    Type
REMARK                         _______ _______ _______ _____ _____    ______ ____
ROOT
ATOM      1  C   UNL     1       2.246   8.682  17.662  0.00  0.00    +0.000 C 
ATOM      2  C   UNL     1       1.785   8.549  19.082  0.00  0.00    +0.000 A 
ATOM      3  N   UNL     1       1.271   9.701  19.606  0.00  0.00    +0.000 NA
ATOM      4  C   UNL     1       0.796   9.716  20.876  0.00  0.00    +0.000 A 
ATOM      5  C   UNL     1       0.806   8.560  21.649  0.00  0.00    +0.000 A 
ATOM      6  C   UNL     1       1.347   7.383  21.119  0.00  0.00    +0.000 A 
ATOM      7  C   UNL     1       1.874   7.364  19.823  0.00  0.00    +0.000 A 
ENDROOT
BRANCH   4   8
ATOM      8  C   UNL     1       0.336  11.029  21.377  0.00  0.00    +0.000 A 
ATOM      9  C   UNL     1       0.812  12.250  20.861  0.00  0.00    +0.000 A 
ATOM     10  C   UNL     1       0.327  13.478  21.329  0.00  0.00    +0.000 A 
ATOM     11  C   UNL     1      -0.643  13.514  22.327  0.00  0.00    +0.000 A 
ATOM     12  C   UNL     1      -1.120  12.324  22.868  0.00  0.00    +0.000 A 
ATOM     13  C   UNL     1      -0.631  11.101  22.400  0.00  0.00    +0.000 A 
ENDBRANCH   4   8
BRANCH   7  14
ATOM     14  C   UNL     1       2.476   6.102  19.277  0.00  0.00    +0.000 C 
ATOM     15  O   UNL     1       2.160   5.670  18.175  0.00  0.00    +0.000 OA
ATOM     16  N   UNL     1       3.399   5.462  20.079  0.00  0.00    +0.000 N 
ATOM     17  H   UNL     1       3.763   5.907  20.914  0.00  0.00    +0.000 HD
BRANCH  16  18
ATOM     18  C   UNL     1       4.041   4.213  19.697  0.00  0.00    +0.000 C 
BRANCH  18  19
ATOM     19  C   UNL     1       5.334   4.518  19.019  0.00  0.00    +0.000 A 
ATOM     20  N   UNL     1       6.450   4.962  19.591  0.00  0.00    +0.000 NA
ATOM     21  N   UNL     1       7.419   5.152  18.611  0.00  0.00    +0.000 NA
ATOM     22  C   UNL     1       6.863   4.823  17.482  0.00  0.00    +0.000 A 
ATOM     23  N   UNL     1       5.581   4.414  17.694  0.00  0.00    +0.000 N 
ATOM     24  C   UNL     1       4.903   4.032  16.480  0.00  0.00    +0.000 C 
ATOM     25  C   UNL     1       6.067   3.941  15.464  0.00  0.00    +0.000 C 
ATOM     26  C   UNL     1       7.231   4.777  16.056  0.00  0.00    +0.000 C 
ENDBRANCH  18  19
ENDBRANCH  16  18
ENDBRANCH   7  14
TORSDOF 4
ENDMDL
MODEL 5
REMARK VINA RESULT:      -8.2      2.166      3.422
REMARK  Name = 
REMARK  5 active torsions:
REMARK  status: ('A' for Active; 'I' for Inactive)
REMARK    1  A    between atoms: C_1  and  C_2
REMARK    2  A    between atoms: C_4  and  C_5
REMARK    3  A    between atoms: C_13  and  C_14
REMARK    4  A    between atoms: N_16  and  C_17
REMARK    5  A    between atoms: C_17  and  C_18
REMARK                            x       y       z     vdW  Elec       q    Type
REMARK                         _______ _______ _______ _____ _____    ______ ____
ROOT
ATOM      1  C   UNL     1       1.173   7.593  21.236  0.00  0.00    +0.000 C 
ATOM      2  C   UNL     1       1.466   8.360  19.982  0.00  0.00    +0.000 A 
ATOM      3  N   UNL     1       1.011   9.649  20.004  0.00  0.00    +0.000 NA
ATOM      4  C   UNL     1       1.229  10.463  18.942  0.00  0.00    +0.000 A 
ATOM      5  C   UNL     1       1.931  10.007  17.832  0.00  0.00    +0.000 A 
ATOM      6  C   UNL     1       2.383   8.682  17.801  0.00  0.00    +0.000 A 
ATOM      7  C   UNL     1       2.133   7.820  18.876  0.00  0.00    +0.000 A 
ENDROOT
BRANCH   4   8
ATOM      8  C   UNL     1       0.628  11.811  19.030  0.00  0.00    +0.000 A 
ATOM      9  C   UNL     1      -0.681  12.033  19.500  0.00  0.00    +0.000 A 
ATOM     10  C   UNL     1      -1.207  13.326  19.609  0.00  0.00    +0.000 A 
ATOM     11  C   UNL     1      -0.438  14.429  19.248  0.00  0.00    +0.000 A 
ATOM     12  C   UNL     1       0.852  14.240  18.763  0.00  0.00    +0.000 A 
ATOM     13  C   UNL     1       1.372  12.947  18.653  0.00  0.00    +0.000 A 
ENDBRANCH   4   8
BRANCH   7  14
ATOM     14  C   UNL     1       2.600   6.396  18.818  0.00  0.00    +0.000 C 
ATOM     15  O   UNL     1       2.008   5.557  18.149  0.00  0.00    +0.000 OA
ATOM     16  N   UNL     1       3.726   6.085  19.555  0.00  0.00    +0.000 N 
ATOM     17  H   UNL     1       4.291   6.814  19.977  0.00  0.00    +0.000 HD
BRANCH  16  18
ATOM     18  C   UNL     1       4.276   4.740  19.621  0.00  0.00    +0.000 C 
BRANCH  18  19
ATOM     19  C   UNL     1       5.553   4.698  18.852  0.00  0.00    +0.000 A 
ATOM     20  N   UNL     1       6.784   4.818  19.341  0.00  0.00    +0.000 NA
ATOM     21  N   UNL     1       7.697   4.757  18.295  0.00  0.00    +0.000 NA
ATOM     22  C   UNL     1       6.997   4.604  17.209  0.00  0.00    +0.000 A 
ATOM     23  N   UNL     1       5.670   4.550  17.514  0.00  0.00    +0.000 N 
ATOM     24  C   UNL     1       4.832   4.381  16.352  0.00  0.00    +0.000 C 
ATOM     25  C   UNL     1       5.856   3.997  15.257  0.00  0.00    +0.000 C 
ATOM     26  C   UNL     1       7.239   4.482  15.761  0.00  0.00    +0.000 C 
ENDBRANCH  18  19
ENDBRANCH  16  18
ENDBRANCH   7  14
TORSDOF 4
ENDMDL
MODEL 6
REMARK VINA RESULT:      -8.1      1.593      2.724
REMARK  Name = 
REMARK  5 active torsions:
REMARK  status: ('A' for Active; 'I' for Inactive)
REMARK    1  A    between atoms: C_1  and  C_2
REMARK    2  A    between atoms: C_4  and  C_5
REMARK    3  A    between atoms: C_13  and  C_14
REMARK    4  A    between atoms: N_16  and  C_17
REMARK    5  A    between atoms: C_17  and  C_18
REMARK                            x       y       z     vdW  Elec       q    Type
REMARK                         _______ _______ _______ _____ _____    ______ ____
ROOT
ATOM      1  C   UNL     1       2.528   8.585  17.656  0.00  0.00    +0.000 C 
ATOM      2  C   UNL     1       2.002   8.285  19.027  0.00  0.00    +0.000 A 
ATOM      3  N   UNL     1       1.319   9.323  19.596  0.00  0.00    +0.000 NA
ATOM      4  C   UNL     1       0.770   9.179  20.828  0.00  0.00    +0.000 A 
ATOM      5  C   UNL     1       0.876   7.975  21.514  0.00  0.00    +0.000 A 
ATOM      6  C   UNL     1       1.590   6.916  20.940  0.00  0.00    +0.000 A 
ATOM      7  C   UNL     1       2.193   7.063  19.685  0.00  0.00    +0.000 A 
ENDROOT
BRANCH   4   8
ATOM      8  C   UNL     1       0.123  10.384  21.389  0.00  0.00    +0.000 A 
ATOM      9  C   UNL     1      -0.698  10.346  22.533  0.00  0.00    +0.000 A 
ATOM     10  C   UNL     1      -1.264  11.512  23.063  0.00  0.00    +0.000 A 
ATOM     11  C   UNL     1      -1.025  12.744  22.461  0.00  0.00    +0.000 A 
ATOM     12  C   UNL     1      -0.233  12.811  21.320  0.00  0.00    +0.000 A 
ATOM     13  C   UNL     1       0.328  11.644  20.792  0.00  0.00    +0.000 A 
ENDBRANCH   4   8
BRANCH   7  14
ATOM     14  C   UNL     1       2.977   5.930  19.093  0.00  0.00    +0.000 C 
ATOM     15  O   UNL     1       2.491   5.194  18.242  0.00  0.00    +0.000 OA
ATOM     16  N   UNL     1       4.267   5.765  19.555  0.00  0.00    +0.000 N 
ATOM     17  H   UNL     1       4.706   6.467  20.140  0.00  0.00    +0.000 HD
BRANCH  16  18
ATOM     18  C   UNL     1       5.136   4.691  19.096  0.00  0.00    +0.000 C 
BRANCH  18  19
ATOM     19  C   UNL     1       5.991   5.197  17.984  0.00  0.00    +0.000 A 
ATOM     20  N   UNL     1       6.874   6.190  18.044  0.00  0.00    +0.000 NA
ATOM     21  N   UNL     1       7.438   6.373  16.786  0.00  0.00    +0.000 NA
ATOM     22  C   UNL     1       6.883   5.493  16.006  0.00  0.00    +0.000 A 
ATOM     23  N   UNL     1       5.993   4.740  16.712  0.00  0.00    +0.000 N 
ATOM     24  C   UNL     1       5.337   3.739  15.906  0.00  0.00    +0.000 C 
ATOM     25  C   UNL     1       6.193   3.739  14.617  0.00  0.00    +0.000 C 
ATOM     26  C   UNL     1       6.944   5.095  14.589  0.00  0.00    +0.000 C 
ENDBRANCH  18  19
ENDBRANCH  16  18
ENDBRANCH   7  14
TORSDOF 4
ENDMDL
MODEL 7
REMARK VINA RESULT:      -8.1      1.729      9.231
REMARK  Name = 
REMARK  5 active torsions:
REMARK  status: ('A' for Active; 'I' for Inactive)
REMARK    1  A    between atoms: C_1  and  C_2
REMARK    2  A    between atoms: C_4  and  C_5
REMARK    3  A    between atoms: C_13  and  C_14
REMARK    4  A    between atoms: N_16  and  C_17
REMARK    5  A    between atoms: C_17  and  C_18
REMARK                            x       y       z     vdW  Elec       q    Type
REMARK                         _______ _______ _______ _____ _____    ______ ____
ROOT
ATOM      1  C   UNL     1       3.000   3.102  17.955  0.00  0.00    +0.000 C 
ATOM      2  C   UNL     1       3.764   4.287  17.445  0.00  0.00    +0.000 A 
ATOM      3  N   UNL     1       4.417   4.056  16.267  0.00  0.00    +0.000 NA
ATOM      4  C   UNL     1       5.130   5.050  15.682  0.00  0.00    +0.000 A 
ATOM      5  C   UNL     1       5.187   6.314  16.257  0.00  0.00    +0.000 A 
ATOM      6  C   UNL     1       4.532   6.547  17.472  0.00  0.00    +0.000 A 
ATOM      7  C   UNL     1       3.823   5.520  18.106  0.00  0.00    +0.000 A 
ENDROOT
BRANCH   4   8
ATOM      8  C   UNL     1       5.866   4.678  14.454  0.00  0.00    +0.000 A 
ATOM      9  C   UNL     1       5.374   3.741  13.525  0.00  0.00    +0.000 A 
ATOM     10  C   UNL     1       6.076   3.440  12.352  0.00  0.00    +0.000 A 
ATOM     11  C   UNL     1       7.290   4.066  12.080  0.00  0.00    +0.000 A 
ATOM     12  C   UNL     1       7.810   4.983  12.988  0.00  0.00    +0.000 A 
ATOM     13  C   UNL     1       7.107   5.278  14.160  0.00  0.00    +0.000 A 
ENDBRANCH   4   8
BRANCH   7  14
ATOM     14  C   UNL     1       3.148   5.776  19.420  0.00  0.00    +0.000 C 
ATOM     15  O   UNL     1       3.240   4.983  20.350  0.00  0.00    +0.000 OA
ATOM     16  N   UNL     1       2.423   6.946  19.524  0.00  0.00    +0.000 N 
ATOM     17  H   UNL     1       2.481   7.662  18.807  0.00  0.00    +0.000 HD
BRANCH  16  18
ATOM     18  C   UNL     1       1.689   7.313  20.726  0.00  0.00    +0.000 C 
BRANCH  18  19
ATOM     19  C   UNL     1       1.128   8.684  20.555  0.00  0.00    +0.000 A 
ATOM     20  N   UNL     1       1.172   9.434  19.457  0.00  0.00    +0.000 NA
ATOM     21  N   UNL     1       0.566  10.658  19.718  0.00  0.00    +0.000 NA
ATOM     22  C   UNL     1       0.177  10.615  20.958  0.00  0.00    +0.000 A 
ATOM     23  N   UNL     1       0.495   9.408  21.505  0.00  0.00    +0.000 N 
ATOM     24  C   UNL     1       0.091   9.290  22.884  0.00  0.00    +0.000 C 
ATOM     25  C   UNL     1      -0.849  10.507  23.060  0.00  0.00    +0.000 C 
ATOM     26  C   UNL     1      -0.496  11.500  21.924  0.00  0.00    +0.000 C 
ENDBRANCH  18  19
ENDBRANCH  16  18
ENDBRANCH   7  14
TORSDOF 4
ENDMDL
MODEL 8
REMARK VINA RESULT:      -8.1      5.551      7.225
REMARK  Name = 
REMARK  5 active torsions:
REMARK  status: ('A' for Active; 'I' for Inactive)
REMARK    1  A    between atoms: C_1  and  C_2
REMARK    2  A    between atoms: C_4  and  C_5
REMARK    3  A    between atoms: C_13  and  C_14
REMARK    4  A    between atoms: N_16  and  C_17
REMARK    5  A    between atoms: C_17  and  C_18
REMARK                            x       y       z     vdW  Elec       q    Type
REMARK                         _______ _______ _______ _____ _____    ______ ____
ROOT
ATOM      1  C   UNL     1       7.480   5.501  19.568  0.00  0.00    +0.000 C 
ATOM      2  C   UNL     1       6.215   5.827  18.832  0.00  0.00    +0.000 A 
ATOM      3  N   UNL     1       5.129   5.116  19.258  0.00  0.00    +0.000 NA
ATOM      4  C   UNL     1       3.915   5.329  18.693  0.00  0.00    +0.000 A 
ATOM      5  C   UNL     1       3.757   6.281  17.693  0.00  0.00    +0.000 A 
ATOM      6  C   UNL     1       4.872   6.999  17.243  0.00  0.00    +0.000 A 
ATOM      7  C   UNL     1       6.137   6.763  17.793  0.00  0.00    +0.000 A 
ENDROOT
BRANCH   4   8
ATOM      8  C   UNL     1       2.821   4.453  19.167  0.00  0.00    +0.000 A 
ATOM      9  C   UNL     1       2.412   4.407  20.513  0.00  0.00    +0.000 A 
ATOM     10  C   UNL     1       1.345   3.597  20.923  0.00  0.00    +0.000 A 
ATOM     11  C   UNL     1       0.665   2.811  19.997  0.00  0.00    +0.000 A 
ATOM     12  C   UNL     1       1.059   2.823  18.663  0.00  0.00    +0.000 A 
ATOM     13  C   UNL     1       2.126   3.630  18.259  0.00  0.00    +0.000 A 
ENDBRANCH   4   8
BRANCH   7  14
ATOM     14  C   UNL     1       7.328   7.520  17.284  0.00  0.00    +0.000 C 
ATOM     15  O   UNL     1       8.058   7.054  16.417  0.00  0.00    +0.000 OA
ATOM     16  N   UNL     1       7.554   8.763  17.842  0.00  0.00    +0.000 N 
ATOM     17  H   UNL     1       6.862   9.199  18.442  0.00  0.00    +0.000 HD
BRANCH  16  18
ATOM     18  C   UNL     1       8.687   9.597  17.471  0.00  0.00    +0.000 C 
BRANCH  18  19
ATOM     19  C   UNL     1       9.213  10.275  18.690  0.00  0.00    +0.000 A 
ATOM     20  N   UNL     1       8.803  10.096  19.943  0.00  0.00    +0.000 NA
ATOM     21  N   UNL     1       9.523  10.940  20.782  0.00  0.00    +0.000 NA
ATOM     22  C   UNL     1      10.341  11.603  20.017  0.00  0.00    +0.000 A 
ATOM     23  N   UNL     1      10.188  11.211  18.721  0.00  0.00    +0.000 N 
ATOM     24  C   UNL     1      11.067  11.907  17.815  0.00  0.00    +0.000 C 
ATOM     25  C   UNL     1      12.065  12.591  18.780  0.00  0.00    +0.000 C 
ATOM     26  C   UNL     1      11.367  12.649  20.162  0.00  0.00    +0.000 C 
ENDBRANCH  18  19
ENDBRANCH  16  18
ENDBRANCH   7  14
TORSDOF 4
ENDMDL
MODEL 9
REMARK VINA RESULT:      -8.0      1.714      2.698
REMARK  Name = 
REMARK  5 active torsions:
REMARK  status: ('A' for Active; 'I' for Inactive)
REMARK    1  A    between atoms: C_1  and  C_2
REMARK    2  A    between atoms: C_4  and  C_5
REMARK    3  A    between atoms: C_13  and  C_14
REMARK    4  A    between atoms: N_16  and  C_17
REMARK    5  A    between atoms: C_17  and  C_18
REMARK                            x       y       z     vdW  Elec       q    Type
REMARK                         _______ _______ _______ _____ _____    ______ ____
ROOT
ATOM      1  C   UNL     1       2.936   7.790  17.482  0.00  0.00    +0.000 C 
ATOM      2  C   UNL     1       2.263   7.855  18.820  0.00  0.00    +0.000 A 
ATOM      3  N   UNL     1       1.718   9.075  19.105  0.00  0.00    +0.000 NA
ATOM      4  C   UNL     1       1.059   9.266  20.275  0.00  0.00    +0.000 A 
ATOM      5  C   UNL     1       0.913   8.225  21.184  0.00  0.00    +0.000 A 
ATOM      6  C   UNL     1       1.485   6.979  20.901  0.00  0.00    +0.000 A 
ATOM      7  C   UNL     1       2.198   6.778  19.713  0.00  0.00    +0.000 A 
ENDROOT
BRANCH   4   8
ATOM      8  C   UNL     1       0.578  10.642  20.525  0.00  0.00    +0.000 A 
ATOM      9  C   UNL     1       0.765  11.694  19.607  0.00  0.00    +0.000 A 
ATOM     10  C   UNL     1       0.261  12.976  19.856  0.00  0.00    +0.000 A 
ATOM     11  C   UNL     1      -0.440  13.240  21.030  0.00  0.00    +0.000 A 
ATOM     12  C   UNL     1      -0.625  12.225  21.963  0.00  0.00    +0.000 A 
ATOM     13  C   UNL     1      -0.118  10.947  21.713  0.00  0.00    +0.000 A 
ENDBRANCH   4   8
BRANCH   7  14
ATOM     14  C   UNL     1       2.829   5.446  19.434  0.00  0.00    +0.000 C 
ATOM     15  O   UNL     1       2.163   4.492  19.049  0.00  0.00    +0.000 OA
ATOM     16  N   UNL     1       4.192   5.355  19.633  0.00  0.00    +0.000 N 
ATOM     17  H   UNL     1       4.752   6.184  19.801  0.00  0.00    +0.000 HD
BRANCH  16  18
ATOM     18  C   UNL     1       4.936   4.120  19.433  0.00  0.00    +0.000 C 
BRANCH  18  19
ATOM     19  C   UNL     1       5.992   4.348  18.405  0.00  0.00    +0.000 A 
ATOM     20  N   UNL     1       7.289   4.544  18.623  0.00  0.00    +0.000 NA
ATOM     21  N   UNL     1       7.928   4.750  17.405  0.00  0.00    +0.000 NA
ATOM     22  C   UNL     1       7.005   4.675  16.492  0.00  0.00    +0.000 A 
ATOM     23  N   UNL     1       5.799   4.415  17.069  0.00  0.00    +0.000 N 
ATOM     24  C   UNL     1       4.725   4.317  16.111  0.00  0.00    +0.000 C 
ATOM     25  C   UNL     1       5.487   4.226  14.767  0.00  0.00    +0.000 C 
ATOM     26  C   UNL     1       6.904   4.797  15.027  0.00  0.00    +0.000 C 
ENDBRANCH  18  19
ENDBRANCH  16  18
ENDBRANCH   7  14
TORSDOF 4
ENDMDL
