MODEL 1
REMARK VINA RESULT:      -9.2      0.000      0.000
REMARK  Name = 
REMARK  6 active torsions:
REMARK  status: ('A' for Active; 'I' for Inactive)
REMARK    1  A    between atoms: C_2  and  C_13
REMARK    2  A    between atoms: N_3  and  C_4
REMARK    3  A    between atoms: C_4  and  C_5
REMARK    4  A    between atoms: C_6  and  C_7
REMARK    5  A    between atoms: N_15  and  C_16
REMARK    6  A    between atoms: C_16  and  C_17
REMARK                            x       y       z     vdW  Elec       q    Type
REMARK                         _______ _______ _______ _____ _____    ______ ____
ROOT
ATOM      1  C   UNL     1       2.614   6.154  18.900  0.00  0.00    +0.000 A 
ATOM      2  N   UNL     1       3.585   6.390  18.063  0.00  0.00    +0.000 NA
ATOM      3  N   UNL     1       4.209   5.320  17.444  0.00  0.00    +0.000 N 
ATOM      4  C   UNL     1       3.855   3.989  17.637  0.00  0.00    +0.000 A 
ATOM      5  O   UNL     1       4.392   3.039  17.069  0.00  0.00    +0.000 OA
ATOM      6  C   UNL     1       2.781   3.727  18.606  0.00  0.00    +0.000 A 
ATOM      7  C   UNL     1       2.446   2.401  18.921  0.00  0.00    +0.000 A 
ATOM      8  C   UNL     1       1.451   2.135  19.858  0.00  0.00    +0.000 A 
ATOM      9  C   UNL     1       0.769   3.193  20.453  0.00  0.00    +0.000 A 
ATOM     10  C   UNL     1       1.095   4.515  20.128  0.00  0.00    +0.000 A 
ATOM     11  C   UNL     1       2.130   4.791  19.223  0.00  0.00    +0.000 A 
ENDROOT
BRANCH   1  13
ATOM     12  O   UNL     1       1.787   7.371  20.799  0.00  0.00    +0.000 OA
ATOM     13  C   UNL     1       2.007   7.381  19.597  0.00  0.00    +0.000 C 
ATOM     14  N   UNL     1       1.776   8.472  18.784  0.00  0.00    +0.000 N 
ATOM     15  H   UNL     1       2.131   8.451  17.835  0.00  0.00    +0.000 HD
BRANCH  14  16
ATOM     16  C   UNL     1       1.257   9.685  19.363  0.00  0.00    +0.000 C 
BRANCH  16  17
ATOM     17  C   UNL     1       0.061  10.189  18.681  0.00  0.00    +0.000 C 
ATOM     18  C   UNL     1      -0.990  10.499  18.190  0.00  0.00    +0.000 C 
BRANCH  18  19
ATOM     19  C   UNL     1      -2.300  10.807  17.692  0.00  0.00    +0.000 A 
ATOM     20  C   UNL     1      -2.618  10.517  16.364  0.00  0.00    +0.000 A 
ATOM     21  C   UNL     1      -3.874  10.848  15.852  0.00  0.00    +0.000 A 
ATOM     22  C   UNL     1      -4.816  11.472  16.668  0.00  0.00    +0.000 A 
ATOM     23  C   UNL     1      -4.503  11.766  17.995  0.00  0.00    +0.000 A 
ATOM     24  C   UNL     1      -3.244  11.435  18.509  0.00  0.00    +0.000 A 
ENDBRANCH  18  19
ENDBRANCH  16  17
ENDBRANCH  14  16
ENDBRANCH   1  13
BRANCH   3  25
ATOM     25  C   UNL     1       5.334   5.624  16.559  0.00  0.00    +0.000 C 
BRANCH  25  26
ATOM     26  C   UNL     1       6.465   6.311  17.284  0.00  0.00    +0.000 A 
ATOM     27  C   UNL     1       7.131   5.659  18.332  0.00  0.00    +0.000 A 
ATOM     28  C   UNL     1       8.134   6.313  19.047  0.00  0.00    +0.000 A 
ATOM     29  C   UNL     1       8.483   7.623  18.722  0.00  0.00    +0.000 A 
ATOM     30  C   UNL     1       7.841   8.275  17.671  0.00  0.00    +0.000 A 
ATOM     31  C   UNL     1       6.837   7.623  16.955  0.00  0.00    +0.000 A 
ENDBRANCH  25  26
ENDBRANCH   3  25
TORSDOF 6
ENDMDL
MODEL 2
REMARK VINA RESULT:      -9.1      2.319      7.873
REMARK  Name = 
REMARK  6 active torsions:
REMARK  status: ('A' for Active; 'I' for Inactive)
REMARK    1  A    between atoms: C_2  and  C_13
REMARK    2  A    between atoms: N_3  and  C_4
REMARK    3  A    between atoms: C_4  and  C_5
REMARK    4  A    between atoms: C_6  and  C_7
REMARK    5  A    between atoms: N_15  and  C_16
REMARK    6  A    between atoms: C_16  and  C_17
REMARK                            x       y       z     vdW  Elec       q    Type
REMARK                         _______ _______ _______ _____ _____    ______ ____
ROOT
ATOM      1  C   UNL     1       3.961   5.887  18.343  0.00  0.00    +0.000 A 
ATOM      2  N   UNL     1       3.480   6.785  19.157  0.00  0.00    +0.000 NA
ATOM      3  N   UNL     1       2.407   6.447  19.965  0.00  0.00    +0.000 N 
ATOM      4  C   UNL     1       1.807   5.193  19.987  0.00  0.00    +0.000 A 
ATOM      5  O   UNL     1       0.870   4.885  20.722  0.00  0.00    +0.000 OA
ATOM      6  C   UNL     1       2.333   4.195  19.045  0.00  0.00    +0.000 A 
ATOM      7  C   UNL     1       1.707   2.942  18.947  0.00  0.00    +0.000 A 
ATOM      8  C   UNL     1       2.175   1.996  18.040  0.00  0.00    +0.000 A 
ATOM      9  C   UNL     1       3.288   2.289  17.256  0.00  0.00    +0.000 A 
ATOM     10  C   UNL     1       3.920   3.533  17.364  0.00  0.00    +0.000 A 
ATOM     11  C   UNL     1       3.423   4.509  18.239  0.00  0.00    +0.000 A 
ENDROOT
BRANCH   1  13
ATOM     12  O   UNL     1       4.900   6.661  16.272  0.00  0.00    +0.000 OA
ATOM     13  C   UNL     1       5.111   6.344  17.434  0.00  0.00    +0.000 C 
ATOM     14  N   UNL     1       6.354   6.403  18.030  0.00  0.00    +0.000 N 
ATOM     15  H   UNL     1       6.414   6.275  19.035  0.00  0.00    +0.000 HD
BRANCH  14  16
ATOM     16  C   UNL     1       7.481   6.873  17.267  0.00  0.00    +0.000 C 
BRANCH  16  17
ATOM     17  C   UNL     1       7.921   8.219  17.648  0.00  0.00    +0.000 C 
ATOM     18  C   UNL     1       8.354   9.258  18.066  0.00  0.00    +0.000 C 
BRANCH  18  19
ATOM     19  C   UNL     1       8.957  10.436  18.622  0.00  0.00    +0.000 A 
ATOM     20  C   UNL     1       8.962  11.621  17.884  0.00  0.00    +0.000 A 
ATOM     21  C   UNL     1       9.580  12.764  18.393  0.00  0.00    +0.000 A 
ATOM     22  C   UNL     1      10.196  12.726  19.643  0.00  0.00    +0.000 A 
ATOM     23  C   UNL     1      10.196  11.544  20.384  0.00  0.00    +0.000 A 
ATOM     24  C   UNL     1       9.576  10.396  19.874  0.00  0.00    +0.000 A 
ENDBRANCH  18  19
ENDBRANCH  16  17
ENDBRANCH  14  16
ENDBRANCH   1  13
BRANCH   3  25
ATOM     25  C   UNL     1       1.857   7.501  20.818  0.00  0.00    +0.000 C 
BRANCH  25  26
ATOM     26  C   UNL     1       1.162   8.580  20.023  0.00  0.00    +0.000 A 
ATOM     27  C   UNL     1       0.126   9.326  20.602  0.00  0.00    +0.000 A 
ATOM     28  C   UNL     1      -0.562  10.279  19.852  0.00  0.00    +0.000 A 
ATOM     29  C   UNL     1      -0.221  10.498  18.517  0.00  0.00    +0.000 A 
ATOM     30  C   UNL     1       0.819   9.775  17.937  0.00  0.00    +0.000 A 
ATOM     31  C   UNL     1       1.508   8.821  18.685  0.00  0.00    +0.000 A 
ENDBRANCH  25  26
ENDBRANCH   3  25
TORSDOF 6
ENDMDL
MODEL 3
REMARK VINA RESULT:      -9.0      0.255      1.272
REMARK  Name = 
REMARK  6 active torsions:
REMARK  status: ('A' for Active; 'I' for Inactive)
REMARK    1  A    between atoms: C_2  and  C_13
REMARK    2  A    between atoms: N_3  and  C_4
REMARK    3  A    between atoms: C_4  and  C_5
REMARK    4  A    between atoms: C_6  and  C_7
REMARK    5  A    between atoms: N_15  and  C_16
REMARK    6  A    between atoms: C_16  and  C_17
REMARK                            x       y       z     vdW  Elec       q    Type
REMARK                         _______ _______ _______ _____ _____    ______ ____
ROOT
ATOM      1  C   UNL     1       2.606   6.095  18.834  0.00  0.00    +0.000 A 
ATOM      2  N   UNL     1       3.589   6.430  18.046  0.00  0.00    +0.000 NA
ATOM      3  N   UNL     1       4.252   5.437  17.345  0.00  0.00    +0.000 N 
ATOM      4  C   UNL     1       3.927   4.086  17.405  0.00  0.00    +0.000 A 
ATOM      5  O   UNL     1       4.499   3.206  16.764  0.00  0.00    +0.000 OA
ATOM      6  C   UNL     1       2.839   3.710  18.319  0.00  0.00    +0.000 A 
ATOM      7  C   UNL     1       2.529   2.353  18.500  0.00  0.00    +0.000 A 
ATOM      8  C   UNL     1       1.520   1.978  19.384  0.00  0.00    +0.000 A 
ATOM      9  C   UNL     1       0.800   2.960  20.059  0.00  0.00    +0.000 A 
ATOM     10  C   UNL     1       1.101   4.314  19.867  0.00  0.00    +0.000 A 
ATOM     11  C   UNL     1       2.149   4.696  19.017  0.00  0.00    +0.000 A 
ENDROOT
BRANCH   1  13
ATOM     12  O   UNL     1       1.641   7.084  20.799  0.00  0.00    +0.000 OA
ATOM     13  C   UNL     1       1.953   7.237  19.628  0.00  0.00    +0.000 C 
ATOM     14  N   UNL     1       1.792   8.422  18.940  0.00  0.00    +0.000 N 
ATOM     15  H   UNL     1       2.220   8.511  18.024  0.00  0.00    +0.000 HD
BRANCH  14  16
ATOM     16  C   UNL     1       1.238   9.563  19.621  0.00  0.00    +0.000 C 
BRANCH  16  17
ATOM     17  C   UNL     1       0.078  10.142  18.936  0.00  0.00    +0.000 C 
ATOM     18  C   UNL     1      -0.927  10.486  18.376  0.00  0.00    +0.000 C 
BRANCH  18  19
ATOM     19  C   UNL     1      -2.181  10.795  17.750  0.00  0.00    +0.000 A 
ATOM     20  C   UNL     1      -3.179  11.437  18.485  0.00  0.00    +0.000 A 
ATOM     21  C   UNL     1      -4.418  11.708  17.903  0.00  0.00    +0.000 A 
ATOM     22  C   UNL     1      -4.664  11.337  16.582  0.00  0.00    +0.000 A 
ATOM     23  C   UNL     1      -3.671  10.695  15.843  0.00  0.00    +0.000 A 
ATOM     24  C   UNL     1      -2.428  10.422  16.425  0.00  0.00    +0.000 A 
ENDBRANCH  18  19
ENDBRANCH  16  17
ENDBRANCH  14  16
ENDBRANCH   1  13
BRANCH   3  25
ATOM     25  C   UNL     1       5.388   5.848  16.521  0.00  0.00    +0.000 C 
BRANCH  25  26
ATOM     26  C   UNL     1       6.468   6.527  17.328  0.00  0.00    +0.000 A 
ATOM     27  C   UNL     1       6.860   7.837  17.021  0.00  0.00    +0.000 A 
ATOM     28  C   UNL     1       7.901   8.445  17.721  0.00  0.00    +0.000 A 
ATOM     29  C   UNL     1       8.559   7.752  18.737  0.00  0.00    +0.000 A 
ATOM     30  C   UNL     1       8.166   6.456  19.063  0.00  0.00    +0.000 A 
ATOM     31  C   UNL     1       7.126   5.845  18.363  0.00  0.00    +0.000 A 
ENDBRANCH  25  26
ENDBRANCH   3  25
TORSDOF 6
ENDMDL
MODEL 4
REMARK VINA RESULT:      -9.0      2.727      7.729
REMARK  Name = 
REMARK  6 active torsions:
REMARK  status: ('A' for Active; 'I' for Inactive)
REMARK    1  A    between atoms: C_2  and  C_13
REMARK    2  A    between atoms: N_3  and  C_4
REMARK    3  A    between atoms: C_4  and  C_5
REMARK    4  A    between atoms: C_6  and  C_7
REMARK    5  A    between atoms: N_15  and  C_16
REMARK    6  A    between atoms: C_16  and  C_17
REMARK                            x       y       z     vdW  Elec       q    Type
REMARK                         _______ _______ _______ _____ _____    ______ ____
ROOT
ATOM      1  C   UNL     1       4.361   5.246  19.237  0.00  0.00    +0.000 A 
ATOM      2  N   UNL     1       3.748   6.191  19.894  0.00  0.00    +0.000 NA
ATOM      3  N   UNL     1       2.422   6.008  20.247  0.00  0.00    +0.000 N 
ATOM      4  C   UNL     1       1.688   4.861  19.966  0.00  0.00    +0.000 A 
ATOM      5  O   UNL     1       0.517   4.687  20.300  0.00  0.00    +0.000 OA
ATOM      6  C   UNL     1       2.374   3.812  19.198  0.00  0.00    +0.000 A 
ATOM      7  C   UNL     1       1.659   2.673  18.796  0.00  0.00    +0.000 A 
ATOM      8  C   UNL     1       2.286   1.683  18.043  0.00  0.00    +0.000 A 
ATOM      9  C   UNL     1       3.634   1.816  17.723  0.00  0.00    +0.000 A 
ATOM     10  C   UNL     1       4.350   2.946  18.136  0.00  0.00    +0.000 A 
ATOM     11  C   UNL     1       3.712   3.970  18.851  0.00  0.00    +0.000 A 
ENDROOT
BRANCH   1  13
ATOM     12  O   UNL     1       6.744   4.986  19.390  0.00  0.00    +0.000 OA
ATOM     13  C   UNL     1       5.811   5.538  18.825  0.00  0.00    +0.000 C 
ATOM     14  N   UNL     1       5.964   6.416  17.772  0.00  0.00    +0.000 N 
ATOM     15  H   UNL     1       5.138   6.706  17.260  0.00  0.00    +0.000 HD
BRANCH  14  16
ATOM     16  C   UNL     1       7.288   6.707  17.284  0.00  0.00    +0.000 C 
BRANCH  16  17
ATOM     17  C   UNL     1       7.769   8.038  17.667  0.00  0.00    +0.000 C 
ATOM     18  C   UNL     1       8.253   9.061  18.069  0.00  0.00    +0.000 C 
BRANCH  18  19
ATOM     19  C   UNL     1       8.927  10.218  18.586  0.00  0.00    +0.000 A 
ATOM     20  C   UNL     1       9.186  11.299  17.742  0.00  0.00    +0.000 A 
ATOM     21  C   UNL     1       9.876  12.415  18.219  0.00  0.00    +0.000 A 
ATOM     22  C   UNL     1      10.310  12.452  19.543  0.00  0.00    +0.000 A 
ATOM     23  C   UNL     1      10.056  11.374  20.390  0.00  0.00    +0.000 A 
ATOM     24  C   UNL     1       9.364  10.254  19.914  0.00  0.00    +0.000 A 
ENDBRANCH  18  19
ENDBRANCH  16  17
ENDBRANCH  14  16
ENDBRANCH   1  13
BRANCH   3  25
ATOM     25  C   UNL     1       1.753   7.117  20.927  0.00  0.00    +0.000 C 
BRANCH  25  26
ATOM     26  C   UNL     1       1.488   8.282  20.005  0.00  0.00    +0.000 A 
ATOM     27  C   UNL     1       1.996   8.277  18.699  0.00  0.00    +0.000 A 
ATOM     28  C   UNL     1       1.809   9.378  17.863  0.00  0.00    +0.000 A 
ATOM     29  C   UNL     1       1.111  10.494  18.324  0.00  0.00    +0.000 A 
ATOM     30  C   UNL     1       0.586  10.503  19.614  0.00  0.00    +0.000 A 
ATOM     31  C   UNL     1       0.773   9.403  20.452  0.00  0.00    +0.000 A 
ENDBRANCH  25  26
ENDBRANCH   3  25
TORSDOF 6
ENDMDL
MODEL 5
REMARK VINA RESULT:      -8.9      2.428      8.063
REMARK  Name = 
REMARK  6 active torsions:
REMARK  status: ('A' for Active; 'I' for Inactive)
REMARK    1  A    between atoms: C_2  and  C_13
REMARK    2  A    between atoms: N_3  and  C_4
REMARK    3  A    between atoms: C_4  and  C_5
REMARK    4  A    between atoms: C_6  and  C_7
REMARK    5  A    between atoms: N_15  and  C_16
REMARK    6  A    between atoms: C_16  and  C_17
REMARK                            x       y       z     vdW  Elec       q    Type
REMARK                         _______ _______ _______ _____ _____    ______ ____
ROOT
ATOM      1  C   UNL     1       3.897   6.056  18.315  0.00  0.00    +0.000 A 
ATOM      2  N   UNL     1       3.382   6.906  19.160  0.00  0.00    +0.000 NA
ATOM      3  N   UNL     1       2.334   6.495  19.965  0.00  0.00    +0.000 N 
ATOM      4  C   UNL     1       1.792   5.214  19.955  0.00  0.00    +0.000 A 
ATOM      5  O   UNL     1       0.877   4.842  20.687  0.00  0.00    +0.000 OA
ATOM      6  C   UNL     1       2.355   4.270  18.978  0.00  0.00    +0.000 A 
ATOM      7  C   UNL     1       1.786   2.994  18.848  0.00  0.00    +0.000 A 
ATOM      8  C   UNL     1       2.288   2.097  17.908  0.00  0.00    +0.000 A 
ATOM      9  C   UNL     1       3.379   2.464  17.124  0.00  0.00    +0.000 A 
ATOM     10  C   UNL     1       3.954   3.733  17.265  0.00  0.00    +0.000 A 
ATOM     11  C   UNL     1       3.422   4.659  18.174  0.00  0.00    +0.000 A 
ENDROOT
BRANCH   1  13
ATOM     12  O   UNL     1       4.778   6.939  16.262  0.00  0.00    +0.000 OA
ATOM     13  C   UNL     1       5.016   6.593  17.410  0.00  0.00    +0.000 C 
ATOM     14  N   UNL     1       6.261   6.685  17.996  0.00  0.00    +0.000 N 
ATOM     15  H   UNL     1       6.338   6.526  18.995  0.00  0.00    +0.000 HD
BRANCH  14  16
ATOM     16  C   UNL     1       7.358   7.229  17.238  0.00  0.00    +0.000 C 
BRANCH  16  17
ATOM     17  C   UNL     1       8.083   8.290  17.944  0.00  0.00    +0.000 C 
ATOM     18  C   UNL     1       8.673   9.232  18.400  0.00  0.00    +0.000 C 
BRANCH  18  19
ATOM     19  C   UNL     1       9.334  10.422  18.852  0.00  0.00    +0.000 A 
ATOM     20  C   UNL     1       9.423  10.684  20.221  0.00  0.00    +0.000 A 
ATOM     21  C   UNL     1      10.027  11.857  20.676  0.00  0.00    +0.000 A 
ATOM     22  C   UNL     1      10.544  12.775  19.762  0.00  0.00    +0.000 A 
ATOM     23  C   UNL     1      10.457  12.519  18.394  0.00  0.00    +0.000 A 
ATOM     24  C   UNL     1       9.851  11.343  17.936  0.00  0.00    +0.000 A 
ENDBRANCH  18  19
ENDBRANCH  16  17
ENDBRANCH  14  16
ENDBRANCH   1  13
BRANCH   3  25
ATOM     25  C   UNL     1       1.744   7.497  20.854  0.00  0.00    +0.000 C 
BRANCH  25  26
ATOM     26  C   UNL     1       1.063   8.609  20.095  0.00  0.00    +0.000 A 
ATOM     27  C   UNL     1       1.492   8.950  18.806  0.00  0.00    +0.000 A 
ATOM     28  C   UNL     1       0.909  10.019  18.126  0.00  0.00    +0.000 A 
ATOM     29  C   UNL     1      -0.111  10.756  18.727  0.00  0.00    +0.000 A 
ATOM     30  C   UNL     1      -0.559  10.415  20.001  0.00  0.00    +0.000 A 
ATOM     31  C   UNL     1       0.024   9.347  20.683  0.00  0.00    +0.000 A 
ENDBRANCH  25  26
ENDBRANCH   3  25
TORSDOF 6
ENDMDL
MODEL 6
REMARK VINA RESULT:      -8.3      3.326      8.108
REMARK  Name = 
REMARK  6 active torsions:
REMARK  status: ('A' for Active; 'I' for Inactive)
REMARK    1  A    between atoms: C_2  and  C_13
REMARK    2  A    between atoms: N_3  and  C_4
REMARK    3  A    between atoms: C_4  and  C_5
REMARK    4  A    between atoms: C_6  and  C_7
REMARK    5  A    between atoms: N_15  and  C_16
REMARK    6  A    between atoms: C_16  and  C_17
REMARK                            x       y       z     vdW  Elec       q    Type
REMARK                         _______ _______ _______ _____ _____    ______ ____
ROOT
ATOM      1  C   UNL     1       6.150   5.515  18.264  0.00  0.00    +0.000 A 
ATOM      2  N   UNL     1       5.123   5.520  19.067  0.00  0.00    +0.000 NA
ATOM      3  N   UNL     1       3.918   5.010  18.614  0.00  0.00    +0.000 N 
ATOM      4  C   UNL     1       3.724   4.463  17.351  0.00  0.00    +0.000 A 
ATOM      5  O   UNL     1       2.660   3.987  16.956  0.00  0.00    +0.000 OA
ATOM      6  C   UNL     1       4.877   4.489  16.438  0.00  0.00    +0.000 A 
ATOM      7  C   UNL     1       4.719   4.044  15.117  0.00  0.00    +0.000 A 
ATOM      8  C   UNL     1       5.793   4.088  14.231  0.00  0.00    +0.000 A 
ATOM      9  C   UNL     1       7.030   4.544  14.677  0.00  0.00    +0.000 A 
ATOM     10  C   UNL     1       7.190   4.974  15.999  0.00  0.00    +0.000 A 
ATOM     11  C   UNL     1       6.100   4.980  16.882  0.00  0.00    +0.000 A 
ENDROOT
BRANCH   1  13
ATOM     12  O   UNL     1       8.204   5.505  19.510  0.00  0.00    +0.000 OA
ATOM     13  C   UNL     1       7.439   6.150  18.807  0.00  0.00    +0.000 C 
ATOM     14  N   UNL     1       7.671   7.452  18.415  0.00  0.00    +0.000 N 
ATOM     15  H   UNL     1       7.068   7.858  17.708  0.00  0.00    +0.000 HD
BRANCH  14  16
ATOM     16  C   UNL     1       8.882   8.109  18.835  0.00  0.00    +0.000 C 
BRANCH  16  17
ATOM     17  C   UNL     1       8.891   9.547  18.551  0.00  0.00    +0.000 C 
ATOM     18  C   UNL     1       9.040  10.718  18.330  0.00  0.00    +0.000 C 
BRANCH  18  19
ATOM     19  C   UNL     1       9.333  12.092  18.038  0.00  0.00    +0.000 A 
ATOM     20  C   UNL     1      10.583  12.435  17.521  0.00  0.00    +0.000 A 
ATOM     21  C   UNL     1      10.899  13.772  17.270  0.00  0.00    +0.000 A 
ATOM     22  C   UNL     1       9.964  14.771  17.536  0.00  0.00    +0.000 A 
ATOM     23  C   UNL     1       8.713  14.434  18.054  0.00  0.00    +0.000 A 
ATOM     24  C   UNL     1       8.395  13.094  18.307  0.00  0.00    +0.000 A 
ENDBRANCH  18  19
ENDBRANCH  16  17
ENDBRANCH  14  16
ENDBRANCH   1  13
BRANCH   3  25
ATOM     25  C   UNL     1       2.775   5.092  19.524  0.00  0.00    +0.000 C 
BRANCH  25  26
ATOM     26  C   UNL     1       2.213   6.489  19.617  0.00  0.00    +0.000 A 
ATOM     27  C   UNL     1       2.310   7.363  18.525  0.00  0.00    +0.000 A 
ATOM     28  C   UNL     1       1.850   8.675  18.627  0.00  0.00    +0.000 A 
ATOM     29  C   UNL     1       1.286   9.128  19.820  0.00  0.00    +0.000 A 
ATOM     30  C   UNL     1       1.168   8.263  20.906  0.00  0.00    +0.000 A 
ATOM     31  C   UNL     1       1.628   6.950  20.807  0.00  0.00    +0.000 A 
ENDBRANCH  25  26
ENDBRANCH   3  25
TORSDOF 6
ENDMDL
MODEL 7
REMARK VINA RESULT:      -8.3      1.560      2.267
REMARK  Name = 
REMARK  6 active torsions:
REMARK  status: ('A' for Active; 'I' for Inactive)
REMARK    1  A    between atoms: C_2  and  C_13
REMARK    2  A    between atoms: N_3  and  C_4
REMARK    3  A    between atoms: C_4  and  C_5
REMARK    4  A    between atoms: C_6  and  C_7
REMARK    5  A    between atoms: N_15  and  C_16
REMARK    6  A    between atoms: C_16  and  C_17
REMARK                            x       y       z     vdW  Elec       q    Type
REMARK                         _______ _______ _______ _____ _____    ______ ____
ROOT
ATOM      1  C   UNL     1       3.168   6.116  19.126  0.00  0.00    +0.000 A 
ATOM      2  N   UNL     1       4.340   6.070  18.556  0.00  0.00    +0.000 NA
ATOM      3  N   UNL     1       4.998   4.853  18.479  0.00  0.00    +0.000 N 
ATOM      4  C   UNL     1       4.481   3.652  18.953  0.00  0.00    +0.000 A 
ATOM      5  O   UNL     1       5.053   2.567  18.862  0.00  0.00    +0.000 OA
ATOM      6  C   UNL     1       3.173   3.716  19.622  0.00  0.00    +0.000 A 
ATOM      7  C   UNL     1       2.644   2.558  20.211  0.00  0.00    +0.000 A 
ATOM      8  C   UNL     1       1.420   2.607  20.873  0.00  0.00    +0.000 A 
ATOM      9  C   UNL     1       0.712   3.805  20.917  0.00  0.00    +0.000 A 
ATOM     10  C   UNL     1       1.235   4.957  20.318  0.00  0.00    +0.000 A 
ATOM     11  C   UNL     1       2.490   4.926  19.693  0.00  0.00    +0.000 A 
ENDROOT
BRANCH   1  13
ATOM     12  O   UNL     1       2.069   7.903  20.296  0.00  0.00    +0.000 OA
ATOM     13  C   UNL     1       2.521   7.505  19.232  0.00  0.00    +0.000 C 
ATOM     14  N   UNL     1       2.530   8.255  18.074  0.00  0.00    +0.000 N 
ATOM     15  H   UNL     1       3.063   7.914  17.282  0.00  0.00    +0.000 HD
BRANCH  14  16
ATOM     16  C   UNL     1       1.993   9.591  18.096  0.00  0.00    +0.000 C 
BRANCH  16  17
ATOM     17  C   UNL     1       0.552   9.642  17.827  0.00  0.00    +0.000 C 
ATOM     18  C   UNL     1      -0.610   9.824  17.587  0.00  0.00    +0.000 C 
BRANCH  18  19
ATOM     19  C   UNL     1      -1.967  10.146  17.248  0.00  0.00    +0.000 A 
ATOM     20  C   UNL     1      -2.357  10.165  15.907  0.00  0.00    +0.000 A 
ATOM     21  C   UNL     1      -3.662  10.516  15.558  0.00  0.00    +0.000 A 
ATOM     22  C   UNL     1      -4.583  10.850  16.549  0.00  0.00    +0.000 A 
ATOM     23  C   UNL     1      -4.199  10.835  17.890  0.00  0.00    +0.000 A 
ATOM     24  C   UNL     1      -2.890  10.484  18.242  0.00  0.00    +0.000 A 
ENDBRANCH  18  19
ENDBRANCH  16  17
ENDBRANCH  14  16
ENDBRANCH   1  13
BRANCH   3  25
ATOM     25  C   UNL     1       6.336   4.855  17.889  0.00  0.00    +0.000 C 
BRANCH  25  26
ATOM     26  C   UNL     1       6.303   4.723  16.386  0.00  0.00    +0.000 A 
ATOM     27  C   UNL     1       5.180   4.177  15.750  0.00  0.00    +0.000 A 
ATOM     28  C   UNL     1       5.169   3.994  14.368  0.00  0.00    +0.000 A 
ATOM     29  C   UNL     1       6.280   4.357  13.606  0.00  0.00    +0.000 A 
ATOM     30  C   UNL     1       7.395   4.918  14.225  0.00  0.00    +0.000 A 
ATOM     31  C   UNL     1       7.408   5.101  15.607  0.00  0.00    +0.000 A 
ENDBRANCH  25  26
ENDBRANCH   3  25
TORSDOF 6
ENDMDL
MODEL 8
REMARK VINA RESULT:      -8.3      2.551      3.323
REMARK  Name = 
REMARK  6 active torsions:
REMARK  status: ('A' for Active; 'I' for Inactive)
REMARK    1  A    between atoms: C_2  and  C_13
REMARK    2  A    between atoms: N_3  and  C_4
REMARK    3  A    between atoms: C_4  and  C_5
REMARK    4  A    between atoms: C_6  and  C_7
REMARK    5  A    between atoms: N_15  and  C_16
REMARK    6  A    between atoms: C_16  and  C_17
REMARK                            x       y       z     vdW  Elec       q    Type
REMARK                         _______ _______ _______ _____ _____    ______ ____
ROOT
ATOM      1  C   UNL     1       2.505   6.300  18.883  0.00  0.00    +0.000 A 
ATOM      2  N   UNL     1       3.446   6.695  18.072  0.00  0.00    +0.000 NA
ATOM      3  N   UNL     1       4.107   5.749  17.306  0.00  0.00    +0.000 N 
ATOM      4  C   UNL     1       3.822   4.388  17.323  0.00  0.00    +0.000 A 
ATOM      5  O   UNL     1       4.392   3.551  16.625  0.00  0.00    +0.000 OA
ATOM      6  C   UNL     1       2.782   3.946  18.264  0.00  0.00    +0.000 A 
ATOM      7  C   UNL     1       2.517   2.575  18.402  0.00  0.00    +0.000 A 
ATOM      8  C   UNL     1       1.555   2.136  19.308  0.00  0.00    +0.000 A 
ATOM      9  C   UNL     1       0.836   3.070  20.050  0.00  0.00    +0.000 A 
ATOM     10  C   UNL     1       1.092   4.438  19.901  0.00  0.00    +0.000 A 
ATOM     11  C   UNL     1       2.094   4.883  19.027  0.00  0.00    +0.000 A 
ENDROOT
BRANCH   1  13
ATOM     12  O   UNL     1       1.689   7.223  20.946  0.00  0.00    +0.000 OA
ATOM     13  C   UNL     1       1.853   7.392  19.747  0.00  0.00    +0.000 C 
ATOM     14  N   UNL     1       1.519   8.554  19.083  0.00  0.00    +0.000 N 
ATOM     15  H   UNL     1       1.832   8.671  18.126  0.00  0.00    +0.000 HD
BRANCH  14  16
ATOM     16  C   UNL     1       0.952   9.651  19.825  0.00  0.00    +0.000 C 
BRANCH  16  17
ATOM     17  C   UNL     1       1.334  10.966  19.299  0.00  0.00    +0.000 C 
ATOM     18  C   UNL     1       1.589  12.097  18.988  0.00  0.00    +0.000 C 
BRANCH  18  19
ATOM     19  C   UNL     1       1.882  13.478  18.733  0.00  0.00    +0.000 A 
ATOM     20  C   UNL     1       0.930  14.452  19.040  0.00  0.00    +0.000 A 
ATOM     21  C   UNL     1       1.183  15.797  18.759  0.00  0.00    +0.000 A 
ATOM     22  C   UNL     1       2.390  16.171  18.170  0.00  0.00    +0.000 A 
ATOM     23  C   UNL     1       3.343  15.202  17.860  0.00  0.00    +0.000 A 
ATOM     24  C   UNL     1       3.091  13.853  18.140  0.00  0.00    +0.000 A 
ENDBRANCH  18  19
ENDBRANCH  16  17
ENDBRANCH  14  16
ENDBRANCH   1  13
BRANCH   3  25
ATOM     25  C   UNL     1       5.198   6.225  16.455  0.00  0.00    +0.000 C 
BRANCH  25  26
ATOM     26  C   UNL     1       6.396   6.676  17.254  0.00  0.00    +0.000 A 
ATOM     27  C   UNL     1       6.970   5.824  18.208  0.00  0.00    +0.000 A 
ATOM     28  C   UNL     1       8.036   6.259  18.994  0.00  0.00    +0.000 A 
ATOM     29  C   UNL     1       8.541   7.549  18.834  0.00  0.00    +0.000 A 
ATOM     30  C   UNL     1       7.991   8.399  17.878  0.00  0.00    +0.000 A 
ATOM     31  C   UNL     1       6.924   7.966  17.091  0.00  0.00    +0.000 A 
ENDBRANCH  25  26
ENDBRANCH   3  25
TORSDOF 6
ENDMDL
MODEL 9
REMARK VINA RESULT:      -8.2      3.778     10.461
REMARK  Name = 
REMARK  6 active torsions:
REMARK  status: ('A' for Active; 'I' for Inactive)
REMARK    1  A    between atoms: C_2  and  C_13
REMARK    2  A    between atoms: N_3  and  C_4
REMARK    3  A    between atoms: C_4  and  C_5
REMARK    4  A    between atoms: C_6  and  C_7
REMARK    5  A    between atoms: N_15  and  C_16
REMARK    6  A    between atoms: C_16  and  C_17
REMARK                            x       y       z     vdW  Elec       q    Type
REMARK                         _______ _______ _______ _____ _____    ______ ____
ROOT
ATOM      1  C   UNL     1      -1.478  11.448  19.898  0.00  0.00    +0.000 A 
ATOM      2  N   UNL     1      -1.965  12.343  20.712  0.00  0.00    +0.000 NA
ATOM      3  N   UNL     1      -3.197  12.906  20.426  0.00  0.00    +0.000 N 
ATOM      4  C   UNL     1      -3.978  12.565  19.326  0.00  0.00    +0.000 A 
ATOM      5  O   UNL     1      -5.083  13.047  19.084  0.00  0.00    +0.000 OA
ATOM      6  C   UNL     1      -3.409  11.580  18.395  0.00  0.00    +0.000 A 
ATOM      7  C   UNL     1      -4.101  11.268  17.214  0.00  0.00    +0.000 A 
ATOM      8  C   UNL     1      -3.563  10.358  16.308  0.00  0.00    +0.000 A 
ATOM      9  C   UNL     1      -2.352   9.736  16.598  0.00  0.00    +0.000 A 
ATOM     10  C   UNL     1      -1.669  10.037  17.783  0.00  0.00    +0.000 A 
ATOM     11  C   UNL     1      -2.180  10.990  18.676  0.00  0.00    +0.000 A 
ENDROOT
BRANCH   1  13
ATOM     12  O   UNL     1       0.923  11.540  19.942  0.00  0.00    +0.000 OA
ATOM     13  C   UNL     1      -0.080  10.909  20.241  0.00  0.00    +0.000 C 
ATOM     14  N   UNL     1      -0.057   9.713  20.928  0.00  0.00    +0.000 N 
ATOM     15  H   UNL     1      -0.934   9.338  21.273  0.00  0.00    +0.000 HD
BRANCH  14  16
ATOM     16  C   UNL     1       1.208   9.161  21.338  0.00  0.00    +0.000 C 
BRANCH  16  17
ATOM     17  C   UNL     1       1.435   7.800  20.841  0.00  0.00    +0.000 C 
ATOM     18  C   UNL     1       1.672   6.655  20.565  0.00  0.00    +0.000 C 
BRANCH  18  19
ATOM     19  C   UNL     1       1.957   5.265  20.353  0.00  0.00    +0.000 A 
ATOM     20  C   UNL     1       3.212   4.883  19.875  0.00  0.00    +0.000 A 
ATOM     21  C   UNL     1       3.491   3.539  19.625  0.00  0.00    +0.000 A 
ATOM     22  C   UNL     1       2.514   2.570  19.851  0.00  0.00    +0.000 A 
ATOM     23  C   UNL     1       1.258   2.946  20.327  0.00  0.00    +0.000 A 
ATOM     24  C   UNL     1       0.976   4.294  20.578  0.00  0.00    +0.000 A 
ENDBRANCH  18  19
ENDBRANCH  16  17
ENDBRANCH  14  16
ENDBRANCH   1  13
BRANCH   3  25
ATOM     25  C   UNL     1      -3.680  13.950  21.330  0.00  0.00    +0.000 C 
BRANCH  25  26
ATOM     26  C   UNL     1      -4.416  13.385  22.520  0.00  0.00    +0.000 A 
ATOM     27  C   UNL     1      -3.704  12.879  23.616  0.00  0.00    +0.000 A 
ATOM     28  C   UNL     1      -4.377  12.298  24.689  0.00  0.00    +0.000 A 
ATOM     29  C   UNL     1      -5.770  12.218  24.680  0.00  0.00    +0.000 A 
ATOM     30  C   UNL     1      -6.490  12.733  23.604  0.00  0.00    +0.000 A 
ATOM     31  C   UNL     1      -5.818  13.314  22.529  0.00  0.00    +0.000 A 
ENDBRANCH  25  26
ENDBRANCH   3  25
TORSDOF 6
ENDMDL
