MODEL 1
REMARK VINA RESULT:      -8.1      0.000      0.000
REMARK  Name = 
REMARK  7 active torsions:
REMARK  status: ('A' for Active; 'I' for Inactive)
REMARK    1  A    between atoms: C_1  and  C_2
REMARK    2  A    between atoms: C_4  and  C_5
REMARK    3  A    between atoms: N_6  and  C_7
REMARK    4  A    between atoms: C_10  and  N_11
REMARK    5  A    between atoms: C_12  and  C_14
REMARK    6  A    between atoms: C_16  and  C_17
REMARK    7  A    between atoms: N_20  and  C_21
REMARK                            x       y       z     vdW  Elec       q    Type
REMARK                         _______ _______ _______ _____ _____    ______ ____
ROOT
ATOM      1  N   UNL     1       2.267   7.558  19.965  0.00  0.00    +0.000 N 
ATOM      2  C   UNL     1       2.132   6.183  20.109  0.00  0.00    +0.000 C 
ATOM      3  O   UNL     1       1.315   5.595  20.811  0.00  0.00    +0.000 OA
ATOM      4  H   UNL     1       3.034   7.839  19.360  0.00  0.00    +0.000 HD
ENDROOT
BRANCH   1   8
ATOM      5  C   UNL     1      -0.143  10.583  21.691  0.00  0.00    +0.000 A 
ATOM      6  C   UNL     1       0.537   9.675  22.499  0.00  0.00    +0.000 A 
ATOM      7  C   UNL     1       1.336   8.679  21.939  0.00  0.00    +0.000 A 
ATOM      8  C   UNL     1       1.467   8.552  20.558  0.00  0.00    +0.000 A 
ATOM      9  C   UNL     1       0.753   9.435  19.738  0.00  0.00    +0.000 A 
ATOM     10  C   UNL     1      -0.060  10.437  20.298  0.00  0.00    +0.000 A 
BRANCH   5  16
ATOM     11  C   UNL     1      -3.785  12.504  24.215  0.00  0.00    +0.000 C 
ATOM     12  C   UNL     1      -2.535  12.458  23.420  0.00  0.00    +0.000 A 
ATOM     13  C   UNL     1      -1.651  13.518  23.161  0.00  0.00    +0.000 A 
ATOM     14  C   UNL     1      -0.651  12.982  22.378  0.00  0.00    +0.000 A 
ATOM     15  C   UNL     1       0.453  13.705  21.695  0.00  0.00    +0.000 C 
ATOM     16  N   UNL     1      -0.931  11.620  22.270  0.00  0.00    +0.000 N 
ATOM     17  N   UNL     1      -2.141  11.328  22.823  0.00  0.00    +0.000 NA
ENDBRANCH   5  16
ENDBRANCH   1   8
BRANCH   2  18
ATOM     18  C   UNL     1       3.100   5.422  19.306  0.00  0.00    +0.000 A 
ATOM     19  C   UNL     1       3.776   5.905  18.152  0.00  0.00    +0.000 A 
ATOM     20  C   UNL     1       4.590   4.875  17.751  0.00  0.00    +0.000 A 
ATOM     21  N   UNL     1       4.370   3.863  18.636  0.00  0.00    +0.000 N 
ATOM     22  N   UNL     1       3.466   4.155  19.595  0.00  0.00    +0.000 NA
ATOM     23  H   UNL     1       4.812   2.950  18.658  0.00  0.00    +0.000 HD
BRANCH  20  24
ATOM     24  C   UNL     1       5.525   4.851  16.610  0.00  0.00    +0.000 A 
ATOM     25  C   UNL     1       6.784   5.467  16.485  0.00  0.00    +0.000 A 
ATOM     26  N   UNL     1       7.344   5.243  15.292  0.00  0.00    +0.000 NA
ATOM     27  N   UNL     1       6.435   4.478  14.656  0.00  0.00    +0.000 N 
ATOM     28  C   UNL     1       6.672   4.053  13.298  0.00  0.00    +0.000 C 
ATOM     29  C   UNL     1       5.329   4.206  15.411  0.00  0.00    +0.000 A 
ENDBRANCH  20  24
ENDBRANCH   2  18
TORSDOF 4
ENDMDL
MODEL 2
REMARK VINA RESULT:      -7.9      2.378     10.897
REMARK  Name = 
REMARK  7 active torsions:
REMARK  status: ('A' for Active; 'I' for Inactive)
REMARK    1  A    between atoms: C_1  and  C_2
REMARK    2  A    between atoms: C_4  and  C_5
REMARK    3  A    between atoms: N_6  and  C_7
REMARK    4  A    between atoms: C_10  and  N_11
REMARK    5  A    between atoms: C_12  and  C_14
REMARK    6  A    between atoms: C_16  and  C_17
REMARK    7  A    between atoms: N_20  and  C_21
REMARK                            x       y       z     vdW  Elec       q    Type
REMARK                         _______ _______ _______ _____ _____    ______ ____
ROOT
ATOM      1  N   UNL     1       0.208  10.142  20.690  0.00  0.00    +0.000 N 
ATOM      2  C   UNL     1       0.614  11.385  21.159  0.00  0.00    +0.000 C 
ATOM      3  O   UNL     1       1.741  11.864  21.090  0.00  0.00    +0.000 OA
ATOM      4  H   UNL     1      -0.766   9.923  20.880  0.00  0.00    +0.000 HD
ENDROOT
BRANCH   1   8
ATOM      5  C   UNL     1       2.560   7.334  18.562  0.00  0.00    +0.000 A 
ATOM      6  C   UNL     1       2.306   7.158  19.920  0.00  0.00    +0.000 A 
ATOM      7  C   UNL     1       1.530   8.075  20.627  0.00  0.00    +0.000 A 
ATOM      8  C   UNL     1       0.997   9.200  20.002  0.00  0.00    +0.000 A 
ATOM      9  C   UNL     1       1.282   9.407  18.647  0.00  0.00    +0.000 A 
ATOM     10  C   UNL     1       2.071   8.488  17.931  0.00  0.00    +0.000 A 
BRANCH   5  16
ATOM     11  C   UNL     1       6.387   5.593  16.186  0.00  0.00    +0.000 C 
ATOM     12  C   UNL     1       5.044   5.604  16.813  0.00  0.00    +0.000 A 
ATOM     13  C   UNL     1       4.185   4.510  17.003  0.00  0.00    +0.000 A 
ATOM     14  C   UNL     1       3.062   5.024  17.615  0.00  0.00    +0.000 A 
ATOM     15  C   UNL     1       1.781   4.325  17.898  0.00  0.00    +0.000 C 
ATOM     16  N   UNL     1       3.325   6.375  17.837  0.00  0.00    +0.000 N 
ATOM     17  N   UNL     1       4.498   6.744  17.249  0.00  0.00    +0.000 NA
ENDBRANCH   5  16
ENDBRANCH   1   8
BRANCH   2  18
ATOM     18  C   UNL     1      -0.476  12.147  21.786  0.00  0.00    +0.000 A 
ATOM     19  C   UNL     1      -1.766  11.637  22.101  0.00  0.00    +0.000 A 
ATOM     20  C   UNL     1      -2.435  12.680  22.690  0.00  0.00    +0.000 A 
ATOM     21  N   UNL     1      -1.561  13.725  22.695  0.00  0.00    +0.000 N 
ATOM     22  N   UNL     1      -0.359  13.442  22.148  0.00  0.00    +0.000 NA
ATOM     23  H   UNL     1      -1.708  14.657  23.067  0.00  0.00    +0.000 HD
BRANCH  20  24
ATOM     24  C   UNL     1      -3.809  12.688  23.225  0.00  0.00    +0.000 A 
ATOM     25  C   UNL     1      -4.268  12.285  24.493  0.00  0.00    +0.000 A 
ATOM     26  N   UNL     1      -5.592  12.415  24.621  0.00  0.00    +0.000 NA
ATOM     27  N   UNL     1      -5.976  12.907  23.428  0.00  0.00    +0.000 N 
ATOM     28  C   UNL     1      -7.373  13.153  23.164  0.00  0.00    +0.000 C 
ATOM     29  C   UNL     1      -4.940  13.099  22.558  0.00  0.00    +0.000 A 
ENDBRANCH  20  24
ENDBRANCH   2  18
TORSDOF 4
ENDMDL
MODEL 3
REMARK VINA RESULT:      -7.8      6.992     10.682
REMARK  Name = 
REMARK  7 active torsions:
REMARK  status: ('A' for Active; 'I' for Inactive)
REMARK    1  A    between atoms: C_1  and  C_2
REMARK    2  A    between atoms: C_4  and  C_5
REMARK    3  A    between atoms: N_6  and  C_7
REMARK    4  A    between atoms: C_10  and  N_11
REMARK    5  A    between atoms: C_12  and  C_14
REMARK    6  A    between atoms: C_16  and  C_17
REMARK    7  A    between atoms: N_20  and  C_21
REMARK                            x       y       z     vdW  Elec       q    Type
REMARK                         _______ _______ _______ _____ _____    ______ ____
ROOT
ATOM      1  N   UNL     1       8.509   9.538  17.689  0.00  0.00    +0.000 N 
ATOM      2  C   UNL     1       9.075  10.264  18.729  0.00  0.00    +0.000 C 
ATOM      3  O   UNL     1       9.017  10.001  19.926  0.00  0.00    +0.000 OA
ATOM      4  H   UNL     1       8.647   9.951  16.771  0.00  0.00    +0.000 HD
ENDROOT
BRANCH   1   8
ATOM      5  C   UNL     1       6.301   5.935  17.983  0.00  0.00    +0.000 A 
ATOM      6  C   UNL     1       7.561   6.041  18.567  0.00  0.00    +0.000 A 
ATOM      7  C   UNL     1       8.293   7.224  18.479  0.00  0.00    +0.000 A 
ATOM      8  C   UNL     1       7.794   8.330  17.794  0.00  0.00    +0.000 A 
ATOM      9  C   UNL     1       6.546   8.218  17.168  0.00  0.00    +0.000 A 
ATOM     10  C   UNL     1       5.807   7.024  17.248  0.00  0.00    +0.000 A 
BRANCH   5  16
ATOM     11  C   UNL     1       3.870   2.436  20.257  0.00  0.00    +0.000 C 
ATOM     12  C   UNL     1       4.440   3.205  19.125  0.00  0.00    +0.000 A 
ATOM     13  C   UNL     1       4.207   3.000  17.755  0.00  0.00    +0.000 A 
ATOM     14  C   UNL     1       4.961   3.954  17.107  0.00  0.00    +0.000 A 
ATOM     15  C   UNL     1       5.201   4.083  15.646  0.00  0.00    +0.000 C 
ATOM     16  N   UNL     1       5.544   4.734  18.105  0.00  0.00    +0.000 N 
ATOM     17  N   UNL     1       5.303   4.204  19.337  0.00  0.00    +0.000 NA
ENDBRANCH   5  16
ENDBRANCH   1   8
BRANCH   2  18
ATOM     18  C   UNL     1       9.804  11.455  18.269  0.00  0.00    +0.000 A 
ATOM     19  C   UNL     1       9.314  12.789  18.304  0.00  0.00    +0.000 A 
ATOM     20  C   UNL     1      10.332  13.563  17.806  0.00  0.00    +0.000 A 
ATOM     21  N   UNL     1      11.339  12.698  17.499  0.00  0.00    +0.000 N 
ATOM     22  N   UNL     1      11.055  11.404  17.762  0.00  0.00    +0.000 NA
ATOM     23  H   UNL     1      12.254  12.919  17.122  0.00  0.00    +0.000 HD
BRANCH  20  24
ATOM     24  C   UNL     1      10.357  15.028  17.639  0.00  0.00    +0.000 A 
ATOM     25  C   UNL     1      11.287  15.824  16.944  0.00  0.00    +0.000 A 
ATOM     26  N   UNL     1      11.002  17.127  17.024  0.00  0.00    +0.000 NA
ATOM     27  N   UNL     1       9.883  17.160  17.773  0.00  0.00    +0.000 N 
ATOM     28  C   UNL     1       9.278  18.424  18.115  0.00  0.00    +0.000 C 
ATOM     29  C   UNL     1       9.449  15.922  18.158  0.00  0.00    +0.000 A 
ENDBRANCH  20  24
ENDBRANCH   2  18
TORSDOF 4
ENDMDL
MODEL 4
REMARK VINA RESULT:      -7.8      1.621      2.132
REMARK  Name = 
REMARK  7 active torsions:
REMARK  status: ('A' for Active; 'I' for Inactive)
REMARK    1  A    between atoms: C_1  and  C_2
REMARK    2  A    between atoms: C_4  and  C_5
REMARK    3  A    between atoms: N_6  and  C_7
REMARK    4  A    between atoms: C_10  and  N_11
REMARK    5  A    between atoms: C_12  and  C_14
REMARK    6  A    between atoms: C_16  and  C_17
REMARK    7  A    between atoms: N_20  and  C_21
REMARK                            x       y       z     vdW  Elec       q    Type
REMARK                         _______ _______ _______ _____ _____    ______ ____
ROOT
ATOM      1  N   UNL     1       1.245   8.738  20.430  0.00  0.00    +0.000 N 
ATOM      2  C   UNL     1       1.511   8.655  19.069  0.00  0.00    +0.000 C 
ATOM      3  O   UNL     1       1.010   9.336  18.180  0.00  0.00    +0.000 OA
ATOM      4  H   UNL     1       1.744   8.055  20.994  0.00  0.00    +0.000 HD
ENDROOT
BRANCH   1   8
ATOM      5  C   UNL     1      -1.360  11.434  22.402  0.00  0.00    +0.000 A 
ATOM      6  C   UNL     1      -1.027  11.625  21.062  0.00  0.00    +0.000 A 
ATOM      7  C   UNL     1      -0.174  10.740  20.405  0.00  0.00    +0.000 A 
ATOM      8  C   UNL     1       0.382   9.648  21.068  0.00  0.00    +0.000 A 
ATOM      9  C   UNL     1       0.085   9.472  22.426  0.00  0.00    +0.000 A 
ATOM     10  C   UNL     1      -0.770  10.367  23.095  0.00  0.00    +0.000 A 
BRANCH   5  16
ATOM     11  C   UNL     1      -5.450  12.799  24.577  0.00  0.00    +0.000 C 
ATOM     12  C   UNL     1      -4.069  12.906  24.051  0.00  0.00    +0.000 A 
ATOM     13  C   UNL     1      -3.166  13.965  24.240  0.00  0.00    +0.000 A 
ATOM     14  C   UNL     1      -2.025  13.604  23.555  0.00  0.00    +0.000 A 
ATOM     15  C   UNL     1      -0.819  14.434  23.299  0.00  0.00    +0.000 C 
ATOM     16  N   UNL     1      -2.260  12.323  23.058  0.00  0.00    +0.000 N 
ATOM     17  N   UNL     1      -3.550  11.946  23.278  0.00  0.00    +0.000 NA
ENDBRANCH   5  16
ENDBRANCH   1   8
BRANCH   2  18
ATOM     18  C   UNL     1       2.507   7.625  18.740  0.00  0.00    +0.000 A 
ATOM     19  C   UNL     1       3.433   7.687  17.662  0.00  0.00    +0.000 A 
ATOM     20  C   UNL     1       4.174   6.536  17.754  0.00  0.00    +0.000 A 
ATOM     21  N   UNL     1       3.678   5.860  18.828  0.00  0.00    +0.000 N 
ATOM     22  N   UNL     1       2.658   6.489  19.453  0.00  0.00    +0.000 NA
ATOM     23  H   UNL     1       3.994   4.973  19.204  0.00  0.00    +0.000 HD
BRANCH  20  24
ATOM     24  C   UNL     1       5.288   6.104  16.889  0.00  0.00    +0.000 A 
ATOM     25  C   UNL     1       6.659   6.407  16.994  0.00  0.00    +0.000 A 
ATOM     26  N   UNL     1       7.379   5.853  16.014  0.00  0.00    +0.000 NA
ATOM     27  N   UNL     1       6.460   5.191  15.283  0.00  0.00    +0.000 N 
ATOM     28  C   UNL     1       6.859   4.481  14.093  0.00  0.00    +0.000 C 
ATOM     29  C   UNL     1       5.190   5.303  15.775  0.00  0.00    +0.000 A 
ENDBRANCH  20  24
ENDBRANCH   2  18
TORSDOF 4
ENDMDL
MODEL 5
REMARK VINA RESULT:      -7.8      1.441      1.586
REMARK  Name = 
REMARK  7 active torsions:
REMARK  status: ('A' for Active; 'I' for Inactive)
REMARK    1  A    between atoms: C_1  and  C_2
REMARK    2  A    between atoms: C_4  and  C_5
REMARK    3  A    between atoms: N_6  and  C_7
REMARK    4  A    between atoms: C_10  and  N_11
REMARK    5  A    between atoms: C_12  and  C_14
REMARK    6  A    between atoms: C_16  and  C_17
REMARK    7  A    between atoms: N_20  and  C_21
REMARK                            x       y       z     vdW  Elec       q    Type
REMARK                         _______ _______ _______ _____ _____    ______ ____
ROOT
ATOM      1  N   UNL     1       1.498   8.373  20.229  0.00  0.00    +0.000 N 
ATOM      2  C   UNL     1       1.957   8.490  18.924  0.00  0.00    +0.000 C 
ATOM      3  O   UNL     1       1.681   9.380  18.125  0.00  0.00    +0.000 OA
ATOM      4  H   UNL     1       1.821   7.538  20.711  0.00  0.00    +0.000 HD
ENDROOT
BRANCH   1   8
ATOM      5  C   UNL     1      -1.026  11.121  22.236  0.00  0.00    +0.000 A 
ATOM      6  C   UNL     1      -0.324  10.153  22.952  0.00  0.00    +0.000 A 
ATOM      7  C   UNL     1       0.512   9.248  22.299  0.00  0.00    +0.000 A 
ATOM      8  C   UNL     1       0.660   9.273  20.914  0.00  0.00    +0.000 A 
ATOM      9  C   UNL     1      -0.074  10.216  20.184  0.00  0.00    +0.000 A 
ATOM     10  C   UNL     1      -0.924  11.127  20.836  0.00  0.00    +0.000 A 
BRANCH   5  16
ATOM     11  C   UNL     1      -4.793  12.657  24.838  0.00  0.00    +0.000 C 
ATOM     12  C   UNL     1      -3.512  12.728  24.095  0.00  0.00    +0.000 A 
ATOM     13  C   UNL     1      -2.637  13.823  24.011  0.00  0.00    +0.000 A 
ATOM     14  C   UNL     1      -1.599  13.404  23.206  0.00  0.00    +0.000 A 
ATOM     15  C   UNL     1      -0.481  14.222  22.667  0.00  0.00    +0.000 C 
ATOM     16  N   UNL     1      -1.852  12.065  22.912  0.00  0.00    +0.000 N 
ATOM     17  N   UNL     1      -3.077  11.690  23.373  0.00  0.00    +0.000 NA
ENDBRANCH   5  16
ENDBRANCH   1   8
BRANCH   2  18
ATOM     18  C   UNL     1       2.864   7.401  18.534  0.00  0.00    +0.000 A 
ATOM     19  C   UNL     1       3.706   7.398  17.387  0.00  0.00    +0.000 A 
ATOM     20  C   UNL     1       4.385   6.207  17.438  0.00  0.00    +0.000 A 
ATOM     21  N   UNL     1       3.935   5.572  18.557  0.00  0.00    +0.000 N 
ATOM     22  N   UNL     1       3.004   6.264  19.249  0.00  0.00    +0.000 NA
ATOM     23  H   UNL     1       4.227   4.671  18.920  0.00  0.00    +0.000 HD
BRANCH  20  24
ATOM     24  C   UNL     1       5.402   5.702  16.497  0.00  0.00    +0.000 A 
ATOM     25  C   UNL     1       6.798   5.885  16.521  0.00  0.00    +0.000 A 
ATOM     26  N   UNL     1       7.405   5.295  15.487  0.00  0.00    +0.000 NA
ATOM     27  N   UNL     1       6.390   4.732  14.804  0.00  0.00    +0.000 N 
ATOM     28  C   UNL     1       6.652   4.020  13.577  0.00  0.00    +0.000 C 
ATOM     29  C   UNL     1       5.167   4.940  15.377  0.00  0.00    +0.000 A 
ENDBRANCH  20  24
ENDBRANCH   2  18
TORSDOF 4
ENDMDL
MODEL 6
REMARK VINA RESULT:      -7.7      2.423     10.869
REMARK  Name = 
REMARK  7 active torsions:
REMARK  status: ('A' for Active; 'I' for Inactive)
REMARK    1  A    between atoms: C_1  and  C_2
REMARK    2  A    between atoms: C_4  and  C_5
REMARK    3  A    between atoms: N_6  and  C_7
REMARK    4  A    between atoms: C_10  and  N_11
REMARK    5  A    between atoms: C_12  and  C_14
REMARK    6  A    between atoms: C_16  and  C_17
REMARK    7  A    between atoms: N_20  and  C_21
REMARK                            x       y       z     vdW  Elec       q    Type
REMARK                         _______ _______ _______ _____ _____    ______ ____
ROOT
ATOM      1  N   UNL     1       0.499  10.320  19.938  0.00  0.00    +0.000 N 
ATOM      2  C   UNL     1      -0.801  10.653  19.581  0.00  0.00    +0.000 C 
ATOM      3  O   UNL     1      -1.504  10.086  18.750  0.00  0.00    +0.000 OA
ATOM      4  H   UNL     1       0.914  10.943  20.626  0.00  0.00    +0.000 HD
ENDROOT
BRANCH   1   8
ATOM      5  C   UNL     1       2.792   7.045  18.537  0.00  0.00    +0.000 A 
ATOM      6  C   UNL     1       2.498   8.114  17.694  0.00  0.00    +0.000 A 
ATOM      7  C   UNL     1       1.747   9.198  18.148  0.00  0.00    +0.000 A 
ATOM      8  C   UNL     1       1.258   9.239  19.452  0.00  0.00    +0.000 A 
ATOM      9  C   UNL     1       1.513   8.149  20.293  0.00  0.00    +0.000 A 
ATOM     10  C   UNL     1       2.264   7.050  19.837  0.00  0.00    +0.000 A 
BRANCH   5  16
ATOM     11  C   UNL     1       6.853   4.671  17.443  0.00  0.00    +0.000 C 
ATOM     12  C   UNL     1       5.400   4.902  17.626  0.00  0.00    +0.000 A 
ATOM     13  C   UNL     1       4.369   3.953  17.536  0.00  0.00    +0.000 A 
ATOM     14  C   UNL     1       3.204   4.651  17.775  0.00  0.00    +0.000 A 
ATOM     15  C   UNL     1       1.808   4.157  17.647  0.00  0.00    +0.000 C 
ATOM     16  N   UNL     1       3.588   5.957  18.077  0.00  0.00    +0.000 N 
ATOM     17  N   UNL     1       4.926   6.126  17.881  0.00  0.00    +0.000 NA
ENDBRANCH   5  16
ENDBRANCH   1   8
BRANCH   2  18
ATOM     18  C   UNL     1      -1.322  11.812  20.321  0.00  0.00    +0.000 A 
ATOM     19  C   UNL     1      -1.328  11.954  21.736  0.00  0.00    +0.000 A 
ATOM     20  C   UNL     1      -1.877  13.189  21.975  0.00  0.00    +0.000 A 
ATOM     21  N   UNL     1      -2.170  13.707  20.749  0.00  0.00    +0.000 N 
ATOM     22  N   UNL     1      -1.852  12.897  19.716  0.00  0.00    +0.000 NA
ATOM     23  H   UNL     1      -2.574  14.613  20.538  0.00  0.00    +0.000 HD
BRANCH  20  24
ATOM     24  C   UNL     1      -2.101  13.845  23.276  0.00  0.00    +0.000 A 
ATOM     25  C   UNL     1      -3.273  13.891  24.055  0.00  0.00    +0.000 A 
ATOM     26  N   UNL     1      -3.111  14.599  25.176  0.00  0.00    +0.000 NA
ATOM     27  N   UNL     1      -1.828  15.004  25.112  0.00  0.00    +0.000 N 
ATOM     28  C   UNL     1      -1.281  15.841  26.151  0.00  0.00    +0.000 C 
ATOM     29  C   UNL     1      -1.175  14.567  23.993  0.00  0.00    +0.000 A 
ENDBRANCH  20  24
ENDBRANCH   2  18
TORSDOF 4
ENDMDL
MODEL 7
REMARK VINA RESULT:      -7.7      2.096     10.829
REMARK  Name = 
REMARK  7 active torsions:
REMARK  status: ('A' for Active; 'I' for Inactive)
REMARK    1  A    between atoms: C_1  and  C_2
REMARK    2  A    between atoms: C_4  and  C_5
REMARK    3  A    between atoms: N_6  and  C_7
REMARK    4  A    between atoms: C_10  and  N_11
REMARK    5  A    between atoms: C_12  and  C_14
REMARK    6  A    between atoms: C_16  and  C_17
REMARK    7  A    between atoms: N_20  and  C_21
REMARK                            x       y       z     vdW  Elec       q    Type
REMARK                         _______ _______ _______ _____ _____    ______ ____
ROOT
ATOM      1  N   UNL     1       0.723   9.681  20.267  0.00  0.00    +0.000 N 
ATOM      2  C   UNL     1       0.855  10.142  21.570  0.00  0.00    +0.000 C 
ATOM      3  O   UNL     1       1.644   9.735  22.417  0.00  0.00    +0.000 OA
ATOM      4  H   UNL     1      -0.019  10.132  19.739  0.00  0.00    +0.000 HD
ENDROOT
BRANCH   1   8
ATOM      5  C   UNL     1       3.062   6.658  18.441  0.00  0.00    +0.000 A 
ATOM      6  C   UNL     1       2.734   7.817  17.741  0.00  0.00    +0.000 A 
ATOM      7  C   UNL     1       1.968   8.819  18.336  0.00  0.00    +0.000 A 
ATOM      8  C   UNL     1       1.497   8.686  19.640  0.00  0.00    +0.000 A 
ATOM      9  C   UNL     1       1.787   7.506  20.336  0.00  0.00    +0.000 A 
ATOM     10  C   UNL     1       2.553   6.489  19.738  0.00  0.00    +0.000 A 
BRANCH   5  16
ATOM     11  C   UNL     1       7.136   4.615  16.841  0.00  0.00    +0.000 C 
ATOM     12  C   UNL     1       5.695   4.745  17.163  0.00  0.00    +0.000 A 
ATOM     13  C   UNL     1       4.714   3.742  17.093  0.00  0.00    +0.000 A 
ATOM     14  C   UNL     1       3.538   4.349  17.479  0.00  0.00    +0.000 A 
ATOM     15  C   UNL     1       2.166   3.780  17.434  0.00  0.00    +0.000 C 
ATOM     16  N   UNL     1       3.874   5.653  17.839  0.00  0.00    +0.000 N 
ATOM     17  N   UNL     1       5.177   5.917  17.543  0.00  0.00    +0.000 NA
ENDBRANCH   5  16
ENDBRANCH   1   8
BRANCH   2  18
ATOM     18  C   UNL     1      -0.079  11.231  21.892  0.00  0.00    +0.000 A 
ATOM     19  C   UNL     1      -1.447  11.070  22.242  0.00  0.00    +0.000 A 
ATOM     20  C   UNL     1      -1.913  12.339  22.481  0.00  0.00    +0.000 A 
ATOM     21  N   UNL     1      -0.854  13.169  22.266  0.00  0.00    +0.000 N 
ATOM     22  N   UNL     1       0.281  12.533  21.900  0.00  0.00    +0.000 NA
ATOM     23  H   UNL     1      -0.825  14.177  22.363  0.00  0.00    +0.000 HD
BRANCH  20  24
ATOM     24  C   UNL     1      -3.269  12.743  22.898  0.00  0.00    +0.000 A 
ATOM     25  C   UNL     1      -3.724  13.135  24.171  0.00  0.00    +0.000 A 
ATOM     26  N   UNL     1      -5.030  13.414  24.180  0.00  0.00    +0.000 NA
ATOM     27  N   UNL     1      -5.408  13.200  22.905  0.00  0.00    +0.000 N 
ATOM     28  C   UNL     1      -6.789  13.366  22.523  0.00  0.00    +0.000 C 
ATOM     29  C   UNL     1      -4.382  12.805  22.093  0.00  0.00    +0.000 A 
ENDBRANCH  20  24
ENDBRANCH   2  18
TORSDOF 4
ENDMDL
MODEL 8
REMARK VINA RESULT:      -7.7      0.506      1.052
REMARK  Name = 
REMARK  7 active torsions:
REMARK  status: ('A' for Active; 'I' for Inactive)
REMARK    1  A    between atoms: C_1  and  C_2
REMARK    2  A    between atoms: C_4  and  C_5
REMARK    3  A    between atoms: N_6  and  C_7
REMARK    4  A    between atoms: C_10  and  N_11
REMARK    5  A    between atoms: C_12  and  C_14
REMARK    6  A    between atoms: C_16  and  C_17
REMARK    7  A    between atoms: N_20  and  C_21
REMARK                            x       y       z     vdW  Elec       q    Type
REMARK                         _______ _______ _______ _____ _____    ______ ____
ROOT
ATOM      1  N   UNL     1       2.095   7.801  19.369  0.00  0.00    +0.000 N 
ATOM      2  C   UNL     1       2.178   6.473  19.767  0.00  0.00    +0.000 C 
ATOM      3  O   UNL     1       1.677   5.973  20.769  0.00  0.00    +0.000 OA
ATOM      4  H   UNL     1       2.614   8.014  18.521  0.00  0.00    +0.000 HD
ENDROOT
BRANCH   1   8
ATOM      5  C   UNL     1      -0.049  10.868  21.355  0.00  0.00    +0.000 A 
ATOM      6  C   UNL     1       0.035  10.850  19.964  0.00  0.00    +0.000 A 
ATOM      7  C   UNL     1       0.734   9.842  19.303  0.00  0.00    +0.000 A 
ATOM      8  C   UNL     1       1.382   8.832  20.010  0.00  0.00    +0.000 A 
ATOM      9  C   UNL     1       1.339   8.865  21.409  0.00  0.00    +0.000 A 
ATOM     10  C   UNL     1       0.640   9.885  22.082  0.00  0.00    +0.000 A 
BRANCH   5  16
ATOM     11  C   UNL     1      -3.566  12.699  24.111  0.00  0.00    +0.000 C 
ATOM     12  C   UNL     1      -2.342  12.677  23.276  0.00  0.00    +0.000 A 
ATOM     13  C   UNL     1      -1.442  13.733  23.057  0.00  0.00    +0.000 A 
ATOM     14  C   UNL     1      -0.479  13.228  22.209  0.00  0.00    +0.000 A 
ATOM     15  C   UNL     1       0.620  13.969  21.539  0.00  0.00    +0.000 C 
ATOM     16  N   UNL     1      -0.794  11.882  22.023  0.00  0.00    +0.000 N 
ATOM     17  N   UNL     1      -1.993  11.580  22.595  0.00  0.00    +0.000 NA
ENDBRANCH   5  16
ENDBRANCH   1   8
BRANCH   2  18
ATOM     18  C   UNL     1       2.960   5.642  18.839  0.00  0.00    +0.000 A 
ATOM     19  C   UNL     1       3.931   6.123  17.918  0.00  0.00    +0.000 A 
ATOM     20  C   UNL     1       4.418   5.005  17.288  0.00  0.00    +0.000 A 
ATOM     21  N   UNL     1       3.743   3.952  17.828  0.00  0.00    +0.000 N 
ATOM     22  N   UNL     1       2.843   4.299  18.773  0.00  0.00    +0.000 NA
ATOM     23  H   UNL     1       3.854   2.967  17.613  0.00  0.00    +0.000 HD
BRANCH  20  24
ATOM     24  C   UNL     1       5.463   4.934  16.249  0.00  0.00    +0.000 A 
ATOM     25  C   UNL     1       6.760   5.478  16.260  0.00  0.00    +0.000 A 
ATOM     26  N   UNL     1       7.426   5.228  15.129  0.00  0.00    +0.000 NA
ATOM     27  N   UNL     1       6.547   4.519  14.395  0.00  0.00    +0.000 N 
ATOM     28  C   UNL     1       6.898   4.087  13.064  0.00  0.00    +0.000 C 
ATOM     29  C   UNL     1       5.356   4.306  15.030  0.00  0.00    +0.000 A 
ENDBRANCH  20  24
ENDBRANCH   2  18
TORSDOF 4
ENDMDL
MODEL 9
REMARK VINA RESULT:      -7.6      2.651     10.839
REMARK  Name = 
REMARK  7 active torsions:
REMARK  status: ('A' for Active; 'I' for Inactive)
REMARK    1  A    between atoms: C_1  and  C_2
REMARK    2  A    between atoms: C_4  and  C_5
REMARK    3  A    between atoms: N_6  and  C_7
REMARK    4  A    between atoms: C_10  and  N_11
REMARK    5  A    between atoms: C_12  and  C_14
REMARK    6  A    between atoms: C_16  and  C_17
REMARK    7  A    between atoms: N_20  and  C_21
REMARK                            x       y       z     vdW  Elec       q    Type
REMARK                         _______ _______ _______ _____ _____    ______ ____
ROOT
ATOM      1  N   UNL     1       0.008  10.094  20.765  0.00  0.00    +0.000 N 
ATOM      2  C   UNL     1       0.359  11.342  21.262  0.00  0.00    +0.000 C 
ATOM      3  O   UNL     1       1.470  11.861  21.226  0.00  0.00    +0.000 OA
ATOM      4  H   UNL     1      -0.963   9.839  20.929  0.00  0.00    +0.000 HD
ENDROOT
BRANCH   1   8
ATOM      5  C   UNL     1       2.502   7.403  18.648  0.00  0.00    +0.000 A 
ATOM      6  C   UNL     1       2.222   7.195  19.997  0.00  0.00    +0.000 A 
ATOM      7  C   UNL     1       1.399   8.074  20.700  0.00  0.00    +0.000 A 
ATOM      8  C   UNL     1       0.843   9.191  20.081  0.00  0.00    +0.000 A 
ATOM      9  C   UNL     1       1.153   9.430  18.736  0.00  0.00    +0.000 A 
ATOM     10  C   UNL     1       1.989   8.551  18.025  0.00  0.00    +0.000 A 
BRANCH   5  16
ATOM     11  C   UNL     1       6.460   5.811  16.385  0.00  0.00    +0.000 C 
ATOM     12  C   UNL     1       5.092   5.777  16.953  0.00  0.00    +0.000 A 
ATOM     13  C   UNL     1       4.247   4.661  17.071  0.00  0.00    +0.000 A 
ATOM     14  C   UNL     1       3.089   5.135  17.650  0.00  0.00    +0.000 A 
ATOM     15  C   UNL     1       1.811   4.404  17.855  0.00  0.00    +0.000 C 
ATOM     16  N   UNL     1       3.316   6.483  17.927  0.00  0.00    +0.000 N 
ATOM     17  N   UNL     1       4.505   6.892  17.403  0.00  0.00    +0.000 NA
ENDBRANCH   5  16
ENDBRANCH   1   8
BRANCH   2  18
ATOM     18  C   UNL     1      -0.771  12.056  21.875  0.00  0.00    +0.000 A 
ATOM     19  C   UNL     1      -2.072  12.180  21.316  0.00  0.00    +0.000 A 
ATOM     20  C   UNL     1      -2.796  12.896  22.235  0.00  0.00    +0.000 A 
ATOM     21  N   UNL     1      -1.935  13.166  23.256  0.00  0.00    +0.000 N 
ATOM     22  N   UNL     1      -0.690  12.676  23.073  0.00  0.00    +0.000 NA
ATOM     23  H   UNL     1      -2.129  13.665  24.117  0.00  0.00    +0.000 HD
BRANCH  20  24
ATOM     24  C   UNL     1      -4.215  13.292  22.162  0.00  0.00    +0.000 A 
ATOM     25  C   UNL     1      -4.870  14.361  22.801  0.00  0.00    +0.000 A 
ATOM     26  N   UNL     1      -6.175  14.403  22.515  0.00  0.00    +0.000 NA
ATOM     27  N   UNL     1      -6.349  13.354  21.687  0.00  0.00    +0.000 N 
ATOM     28  C   UNL     1      -7.665  13.044  21.181  0.00  0.00    +0.000 C 
ATOM     29  C   UNL     1      -5.199  12.662  21.435  0.00  0.00    +0.000 A 
ENDBRANCH  20  24
ENDBRANCH   2  18
TORSDOF 4
ENDMDL
