MODEL 1
REMARK VINA RESULT:      -9.0      0.000      0.000
REMARK  Name = 
REMARK  6 active torsions:
REMARK  status: ('A' for Active; 'I' for Inactive)
REMARK    1  A    between atoms: C_1  and  C_2
REMARK    2  A    between atoms: C_5  and  C_6
REMARK    3  A    between atoms: C_7  and  N_8
REMARK    4  A    between atoms: C_9  and  C_11
REMARK    5  A    between atoms: C_13  and  C_14
REMARK    6  A    between atoms: C_23  and  C_24
REMARK                            x       y       z     vdW  Elec       q    Type
REMARK                         _______ _______ _______ _____ _____    ______ ____
ROOT
ATOM      1  C   UNL     1       2.989   7.750  18.099  0.00  0.00    +0.000 A 
ATOM      2  C   UNL     1       2.286   6.711  18.917  0.00  0.00    +0.000 A 
ATOM      3  C   UNL     1       2.935   5.554  19.116  0.00  0.00    +0.000 A 
ATOM      4  N   UNL     1       4.207   5.403  18.564  0.00  0.00    +0.000 N 
ATOM      5  C   UNL     1       5.071   4.339  18.585  0.00  0.00    +0.000 A 
ATOM      6  N   UNL     1       6.185   4.590  17.936  0.00  0.00    +0.000 NA
ATOM      7  C   UNL     1       6.047   5.893  17.459  0.00  0.00    +0.000 A 
ATOM      8  C   UNL     1       4.818   6.426  17.832  0.00  0.00    +0.000 A 
ATOM      9  N   UNL     1       4.185   7.626  17.598  0.00  0.00    +0.000 NA
ENDROOT
BRANCH   3  10
ATOM     10  C   UNL     1       2.211   4.541  19.894  0.00  0.00    +0.000 A 
ATOM     11  C   UNL     1       2.527   4.340  21.246  0.00  0.00    +0.000 A 
ATOM     12  C   UNL     1       2.015   3.237  21.930  0.00  0.00    +0.000 A 
ATOM     13  C   UNL     1       1.183   2.331  21.275  0.00  0.00    +0.000 A 
ATOM     14  C   UNL     1       0.845   2.536  19.937  0.00  0.00    +0.000 A 
ATOM     15  C   UNL     1       1.355   3.638  19.249  0.00  0.00    +0.000 A 
ENDBRANCH   3  10
BRANCH   7  16
ATOM     16  C   UNL     1       7.080   6.540  16.654  0.00  0.00    +0.000 C 
ATOM     17  N   UNL     1       7.429   7.781  17.111  0.00  0.00    +0.000 N 
ATOM     18  O   UNL     1       7.624   6.055  15.664  0.00  0.00    +0.000 OA
ATOM     19  H   UNL     1       6.990   8.141  17.948  0.00  0.00    +0.000 HD
ATOM     20  H   UNL     1       8.172   8.283  16.652  0.00  0.00    +0.000 HD
ENDBRANCH   7  16
BRANCH   1  22
ATOM     21  N   UNL     1       0.897   9.012  18.414  0.00  0.00    +0.000 N 
ATOM     22  C   UNL     1       2.160   9.018  17.865  0.00  0.00    +0.000 C 
ATOM     23  O   UNL     1       2.685   9.889  17.186  0.00  0.00    +0.000 OA
ATOM     24  H   UNL     1       0.591   8.096  18.738  0.00  0.00    +0.000 HD
BRANCH  21  31
ATOM     25  C   UNL     1      -3.264  10.679  16.370  0.00  0.00    +0.000 C 
ATOM     26  C   UNL     1      -2.160  10.855  17.372  0.00  0.00    +0.000 A 
ATOM     27  C   UNL     1      -2.123  11.995  18.167  0.00  0.00    +0.000 A 
ATOM     28  C   UNL     1      -1.090  12.168  19.080  0.00  0.00    +0.000 A 
ATOM     29  C   UNL     1      -0.061  11.213  19.230  0.00  0.00    +0.000 A 
ATOM     30  C   UNL     1       0.942  11.535  20.303  0.00  0.00    +0.000 C 
ATOM     31  C   UNL     1      -0.065  10.062  18.411  0.00  0.00    +0.000 A 
ATOM     32  C   UNL     1      -1.140   9.894  17.509  0.00  0.00    +0.000 A 
ENDBRANCH  21  31
ENDBRANCH   1  22
TORSDOF 4
ENDMDL
MODEL 2
REMARK VINA RESULT:      -9.0      2.597      4.883
REMARK  Name = 
REMARK  6 active torsions:
REMARK  status: ('A' for Active; 'I' for Inactive)
REMARK    1  A    between atoms: C_1  and  C_2
REMARK    2  A    between atoms: C_5  and  C_6
REMARK    3  A    between atoms: C_7  and  N_8
REMARK    4  A    between atoms: C_9  and  C_11
REMARK    5  A    between atoms: C_13  and  C_14
REMARK    6  A    between atoms: C_23  and  C_24
REMARK                            x       y       z     vdW  Elec       q    Type
REMARK                         _______ _______ _______ _____ _____    ______ ____
ROOT
ATOM      1  C   UNL     1       2.699   6.715  18.698  0.00  0.00    +0.000 A 
ATOM      2  C   UNL     1       3.668   6.554  17.567  0.00  0.00    +0.000 A 
ATOM      3  C   UNL     1       4.241   5.349  17.427  0.00  0.00    +0.000 A 
ATOM      4  N   UNL     1       3.893   4.340  18.324  0.00  0.00    +0.000 N 
ATOM      5  C   UNL     1       4.334   3.046  18.430  0.00  0.00    +0.000 A 
ATOM      6  N   UNL     1       3.761   2.406  19.425  0.00  0.00    +0.000 NA
ATOM      7  C   UNL     1       2.894   3.330  20.007  0.00  0.00    +0.000 A 
ATOM      8  C   UNL     1       2.958   4.550  19.343  0.00  0.00    +0.000 A 
ATOM      9  N   UNL     1       2.352   5.772  19.527  0.00  0.00    +0.000 NA
ENDROOT
BRANCH   3  10
ATOM     10  C   UNL     1       5.210   5.227  16.330  0.00  0.00    +0.000 A 
ATOM     11  C   UNL     1       4.845   4.574  15.144  0.00  0.00    +0.000 A 
ATOM     12  C   UNL     1       5.814   4.251  14.193  0.00  0.00    +0.000 A 
ATOM     13  C   UNL     1       7.150   4.578  14.417  0.00  0.00    +0.000 A 
ATOM     14  C   UNL     1       7.519   5.248  15.583  0.00  0.00    +0.000 A 
ATOM     15  C   UNL     1       6.552   5.574  16.536  0.00  0.00    +0.000 A 
ENDBRANCH   3  10
BRANCH   7  16
ATOM     16  C   UNL     1       2.081   3.004  21.175  0.00  0.00    +0.000 C 
ATOM     17  N   UNL     1       0.736   3.113  20.950  0.00  0.00    +0.000 N 
ATOM     18  O   UNL     1       2.512   2.648  22.270  0.00  0.00    +0.000 OA
ATOM     19  H   UNL     1       0.408   3.374  20.029  0.00  0.00    +0.000 HD
ATOM     20  H   UNL     1       0.093   2.857  21.681  0.00  0.00    +0.000 HD
ENDBRANCH   7  16
BRANCH   1  22
ATOM     21  N   UNL     1       1.193   8.307  19.821  0.00  0.00    +0.000 N 
ATOM     22  C   UNL     1       2.134   8.133  18.830  0.00  0.00    +0.000 C 
ATOM     23  O   UNL     1       2.543   8.957  18.024  0.00  0.00    +0.000 OA
ATOM     24  H   UNL     1       0.841   7.437  20.215  0.00  0.00    +0.000 HD
BRANCH  21  31
ATOM     25  C   UNL     1      -1.283  12.265  18.247  0.00  0.00    +0.000 C 
ATOM     26  C   UNL     1      -0.705  11.475  19.386  0.00  0.00    +0.000 A 
ATOM     27  C   UNL     1      -0.795  11.966  20.684  0.00  0.00    +0.000 A 
ATOM     28  C   UNL     1      -0.242  11.246  21.734  0.00  0.00    +0.000 A 
ATOM     29  C   UNL     1       0.419  10.015  21.529  0.00  0.00    +0.000 A 
ATOM     30  C   UNL     1       0.906   9.346  22.784  0.00  0.00    +0.000 C 
ATOM     31  C   UNL     1       0.546   9.514  20.214  0.00  0.00    +0.000 A 
ATOM     32  C   UNL     1      -0.047  10.250  19.163  0.00  0.00    +0.000 A 
ENDBRANCH  21  31
ENDBRANCH   1  22
TORSDOF 4
ENDMDL
MODEL 3
REMARK VINA RESULT:      -8.8      0.625      1.855
REMARK  Name = 
REMARK  6 active torsions:
REMARK  status: ('A' for Active; 'I' for Inactive)
REMARK    1  A    between atoms: C_1  and  C_2
REMARK    2  A    between atoms: C_5  and  C_6
REMARK    3  A    between atoms: C_7  and  N_8
REMARK    4  A    between atoms: C_9  and  C_11
REMARK    5  A    between atoms: C_13  and  C_14
REMARK    6  A    between atoms: C_23  and  C_24
REMARK                            x       y       z     vdW  Elec       q    Type
REMARK                         _______ _______ _______ _____ _____    ______ ____
ROOT
ATOM      1  C   UNL     1       2.946   7.753  18.236  0.00  0.00    +0.000 A 
ATOM      2  C   UNL     1       2.251   6.704  19.046  0.00  0.00    +0.000 A 
ATOM      3  C   UNL     1       2.875   5.522  19.171  0.00  0.00    +0.000 A 
ATOM      4  N   UNL     1       4.116   5.359  18.556  0.00  0.00    +0.000 N 
ATOM      5  C   UNL     1       4.949   4.272  18.498  0.00  0.00    +0.000 A 
ATOM      6  N   UNL     1       6.040   4.517  17.808  0.00  0.00    +0.000 NA
ATOM      7  C   UNL     1       5.918   5.841  17.387  0.00  0.00    +0.000 A 
ATOM      8  C   UNL     1       4.723   6.392  17.835  0.00  0.00    +0.000 A 
ATOM      9  N   UNL     1       4.115   7.617  17.676  0.00  0.00    +0.000 NA
ENDROOT
BRANCH   3  10
ATOM     10  C   UNL     1       2.158   4.500  19.944  0.00  0.00    +0.000 A 
ATOM     11  C   UNL     1       2.480   4.289  21.292  0.00  0.00    +0.000 A 
ATOM     12  C   UNL     1       1.974   3.178  21.969  0.00  0.00    +0.000 A 
ATOM     13  C   UNL     1       1.143   2.275  21.309  0.00  0.00    +0.000 A 
ATOM     14  C   UNL     1       0.798   2.490  19.975  0.00  0.00    +0.000 A 
ATOM     15  C   UNL     1       1.301   3.600  19.294  0.00  0.00    +0.000 A 
ENDBRANCH   3  10
BRANCH   7  16
ATOM     16  C   UNL     1       6.932   6.490  16.560  0.00  0.00    +0.000 C 
ATOM     17  N   UNL     1       7.258   7.748  16.986  0.00  0.00    +0.000 N 
ATOM     18  O   UNL     1       7.480   5.993  15.578  0.00  0.00    +0.000 OA
ATOM     19  H   UNL     1       6.816   8.119  17.817  0.00  0.00    +0.000 HD
ATOM     20  H   UNL     1       7.987   8.255  16.510  0.00  0.00    +0.000 HD
ENDBRANCH   7  16
BRANCH   1  22
ATOM     21  N   UNL     1       1.130   9.231  19.000  0.00  0.00    +0.000 N 
ATOM     22  C   UNL     1       2.145   9.052  18.087  0.00  0.00    +0.000 C 
ATOM     23  O   UNL     1       2.459   9.778  17.154  0.00  0.00    +0.000 OA
ATOM     24  H   UNL     1       0.905   8.396  19.538  0.00  0.00    +0.000 HD
BRANCH  21  31
ATOM     25  C   UNL     1       0.345  13.437  21.441  0.00  0.00    +0.000 C 
ATOM     26  C   UNL     1      -0.081  12.465  20.380  0.00  0.00    +0.000 A 
ATOM     27  C   UNL     1      -1.254  12.688  19.667  0.00  0.00    +0.000 A 
ATOM     28  C   UNL     1      -1.659  11.778  18.700  0.00  0.00    +0.000 A 
ATOM     29  C   UNL     1      -0.912  10.615  18.411  0.00  0.00    +0.000 A 
ATOM     30  C   UNL     1      -1.467   9.772  17.297  0.00  0.00    +0.000 C 
ATOM     31  C   UNL     1       0.268  10.356  19.144  0.00  0.00    +0.000 A 
ATOM     32  C   UNL     1       0.675  11.309  20.105  0.00  0.00    +0.000 A 
ENDBRANCH  21  31
ENDBRANCH   1  22
TORSDOF 4
ENDMDL
MODEL 4
REMARK VINA RESULT:      -8.7      2.654      4.982
REMARK  Name = 
REMARK  6 active torsions:
REMARK  status: ('A' for Active; 'I' for Inactive)
REMARK    1  A    between atoms: C_1  and  C_2
REMARK    2  A    between atoms: C_5  and  C_6
REMARK    3  A    between atoms: C_7  and  N_8
REMARK    4  A    between atoms: C_9  and  C_11
REMARK    5  A    between atoms: C_13  and  C_14
REMARK    6  A    between atoms: C_23  and  C_24
REMARK                            x       y       z     vdW  Elec       q    Type
REMARK                         _______ _______ _______ _____ _____    ______ ____
ROOT
ATOM      1  C   UNL     1       2.815   6.551  18.444  0.00  0.00    +0.000 A 
ATOM      2  C   UNL     1       3.819   6.293  17.363  0.00  0.00    +0.000 A 
ATOM      3  C   UNL     1       4.375   5.072  17.332  0.00  0.00    +0.000 A 
ATOM      4  N   UNL     1       3.976   4.136  18.285  0.00  0.00    +0.000 N 
ATOM      5  C   UNL     1       4.389   2.847  18.501  0.00  0.00    +0.000 A 
ATOM      6  N   UNL     1       3.770   2.290  19.517  0.00  0.00    +0.000 NA
ATOM      7  C   UNL     1       2.901   3.268  20.000  0.00  0.00    +0.000 A 
ATOM      8  C   UNL     1       3.011   4.435  19.253  0.00  0.00    +0.000 A 
ATOM      9  N   UNL     1       2.421   5.677  19.326  0.00  0.00    +0.000 NA
ENDROOT
BRANCH   3  10
ATOM     10  C   UNL     1       5.378   4.855  16.282  0.00  0.00    +0.000 A 
ATOM     11  C   UNL     1       6.628   5.484  16.369  0.00  0.00    +0.000 A 
ATOM     12  C   UNL     1       7.498   5.471  15.277  0.00  0.00    +0.000 A 
ATOM     13  C   UNL     1       7.130   4.829  14.096  0.00  0.00    +0.000 A 
ATOM     14  C   UNL     1       5.898   4.180  14.010  0.00  0.00    +0.000 A 
ATOM     15  C   UNL     1       5.026   4.190  15.100  0.00  0.00    +0.000 A 
ENDBRANCH   3  10
BRANCH   7  16
ATOM     16  C   UNL     1       2.041   3.041  21.158  0.00  0.00    +0.000 C 
ATOM     17  N   UNL     1       0.709   3.190  20.885  0.00  0.00    +0.000 N 
ATOM     18  O   UNL     1       2.425   2.730  22.284  0.00  0.00    +0.000 OA
ATOM     19  H   UNL     1       0.419   3.412  19.942  0.00  0.00    +0.000 HD
ATOM     20  H   UNL     1       0.035   3.001  21.609  0.00  0.00    +0.000 HD
ENDBRANCH   7  16
BRANCH   1  22
ATOM     21  N   UNL     1       1.600   8.358  19.596  0.00  0.00    +0.000 N 
ATOM     22  C   UNL     1       2.271   7.984  18.453  0.00  0.00    +0.000 C 
ATOM     23  O   UNL     1       2.453   8.639  17.436  0.00  0.00    +0.000 OA
ATOM     24  H   UNL     1       1.373   7.581  20.215  0.00  0.00    +0.000 HD
BRANCH  21  31
ATOM     25  C   UNL     1       1.360  13.099  18.283  0.00  0.00    +0.000 C 
ATOM     26  C   UNL     1       0.940  11.996  19.211  0.00  0.00    +0.000 A 
ATOM     27  C   UNL     1       0.112  12.280  20.292  0.00  0.00    +0.000 A 
ATOM     28  C   UNL     1      -0.260  11.263  21.162  0.00  0.00    +0.000 A 
ATOM     29  C   UNL     1       0.181   9.933  20.987  0.00  0.00    +0.000 A 
ATOM     30  C   UNL     1      -0.364   8.954  21.989  0.00  0.00    +0.000 C 
ATOM     31  C   UNL     1       1.046   9.631  19.912  0.00  0.00    +0.000 A 
ATOM     32  C   UNL     1       1.389  10.676  19.023  0.00  0.00    +0.000 A 
ENDBRANCH  21  31
ENDBRANCH   1  22
TORSDOF 4
ENDMDL
MODEL 5
REMARK VINA RESULT:      -8.5      0.479      1.009
REMARK  Name = 
REMARK  6 active torsions:
REMARK  status: ('A' for Active; 'I' for Inactive)
REMARK    1  A    between atoms: C_1  and  C_2
REMARK    2  A    between atoms: C_5  and  C_6
REMARK    3  A    between atoms: C_7  and  N_8
REMARK    4  A    between atoms: C_9  and  C_11
REMARK    5  A    between atoms: C_13  and  C_14
REMARK    6  A    between atoms: C_23  and  C_24
REMARK                            x       y       z     vdW  Elec       q    Type
REMARK                         _______ _______ _______ _____ _____    ______ ____
ROOT
ATOM      1  C   UNL     1       3.084   7.512  18.151  0.00  0.00    +0.000 A 
ATOM      2  C   UNL     1       2.444   6.422  18.952  0.00  0.00    +0.000 A 
ATOM      3  C   UNL     1       3.141   5.283  19.092  0.00  0.00    +0.000 A 
ATOM      4  N   UNL     1       4.400   5.199  18.500  0.00  0.00    +0.000 N 
ATOM      5  C   UNL     1       5.302   4.167  18.459  0.00  0.00    +0.000 A 
ATOM      6  N   UNL     1       6.387   4.482  17.787  0.00  0.00    +0.000 NA
ATOM      7  C   UNL     1       6.187   5.793  17.359  0.00  0.00    +0.000 A 
ATOM      8  C   UNL     1       4.952   6.267  17.785  0.00  0.00    +0.000 A 
ATOM      9  N   UNL     1       4.269   7.450  17.611  0.00  0.00    +0.000 NA
ENDROOT
BRANCH   3  10
ATOM     10  C   UNL     1       2.478   4.219  19.856  0.00  0.00    +0.000 A 
ATOM     11  C   UNL     1       1.335   3.593  19.338  0.00  0.00    +0.000 A 
ATOM     12  C   UNL     1       0.569   2.750  20.145  0.00  0.00    +0.000 A 
ATOM     13  C   UNL     1       0.938   2.524  21.470  0.00  0.00    +0.000 A 
ATOM     14  C   UNL     1       2.086   3.124  21.986  0.00  0.00    +0.000 A 
ATOM     15  C   UNL     1       2.855   3.967  21.183  0.00  0.00    +0.000 A 
ENDBRANCH   3  10
BRANCH   7  16
ATOM     16  C   UNL     1       7.171   6.505  16.548  0.00  0.00    +0.000 C 
ATOM     17  N   UNL     1       7.453   7.760  17.010  0.00  0.00    +0.000 N 
ATOM     18  O   UNL     1       7.732   6.058  15.548  0.00  0.00    +0.000 OA
ATOM     19  H   UNL     1       7.003   8.089  17.855  0.00  0.00    +0.000 HD
ATOM     20  H   UNL     1       8.160   8.308  16.547  0.00  0.00    +0.000 HD
ENDBRANCH   7  16
BRANCH   1  22
ATOM     21  N   UNL     1       1.080   8.799  18.779  0.00  0.00    +0.000 N 
ATOM     22  C   UNL     1       2.203   8.756  17.984  0.00  0.00    +0.000 C 
ATOM     23  O   UNL     1       2.563   9.564  17.139  0.00  0.00    +0.000 OA
ATOM     24  H   UNL     1       0.862   7.915  19.237  0.00  0.00    +0.000 HD
BRANCH  21  31
ATOM     25  C   UNL     1      -2.715  11.041  16.579  0.00  0.00    +0.000 C 
ATOM     26  C   UNL     1      -1.789  10.932  17.755  0.00  0.00    +0.000 A 
ATOM     27  C   UNL     1      -1.892  11.840  18.804  0.00  0.00    +0.000 A 
ATOM     28  C   UNL     1      -1.021  11.752  19.882  0.00  0.00    +0.000 A 
ATOM     29  C   UNL     1      -0.019  10.759  19.953  0.00  0.00    +0.000 A 
ATOM     30  C   UNL     1       0.795  10.777  21.216  0.00  0.00    +0.000 C 
ATOM     31  C   UNL     1       0.120   9.846  18.884  0.00  0.00    +0.000 A 
ATOM     32  C   UNL     1      -0.794   9.937  17.810  0.00  0.00    +0.000 A 
ENDBRANCH  21  31
ENDBRANCH   1  22
TORSDOF 4
ENDMDL
MODEL 6
REMARK VINA RESULT:      -8.3      2.712      5.109
REMARK  Name = 
REMARK  6 active torsions:
REMARK  status: ('A' for Active; 'I' for Inactive)
REMARK    1  A    between atoms: C_1  and  C_2
REMARK    2  A    between atoms: C_5  and  C_6
REMARK    3  A    between atoms: C_7  and  N_8
REMARK    4  A    between atoms: C_9  and  C_11
REMARK    5  A    between atoms: C_13  and  C_14
REMARK    6  A    between atoms: C_23  and  C_24
REMARK                            x       y       z     vdW  Elec       q    Type
REMARK                         _______ _______ _______ _____ _____    ______ ____
ROOT
ATOM      1  C   UNL     1       2.519   6.764  19.270  0.00  0.00    +0.000 A 
ATOM      2  C   UNL     1       3.481   6.751  18.123  0.00  0.00    +0.000 A 
ATOM      3  C   UNL     1       4.068   5.578  17.838  0.00  0.00    +0.000 A 
ATOM      4  N   UNL     1       3.738   4.465  18.611  0.00  0.00    +0.000 N 
ATOM      5  C   UNL     1       4.195   3.174  18.560  0.00  0.00    +0.000 A 
ATOM      6  N   UNL     1       3.637   2.413  19.475  0.00  0.00    +0.000 NA
ATOM      7  C   UNL     1       2.763   3.250  20.167  0.00  0.00    +0.000 A 
ATOM      8  C   UNL     1       2.808   4.541  19.653  0.00  0.00    +0.000 A 
ATOM      9  N   UNL     1       2.189   5.725  19.984  0.00  0.00    +0.000 NA
ENDROOT
BRANCH   3  10
ATOM     10  C   UNL     1       5.031   5.599  16.729  0.00  0.00    +0.000 A 
ATOM     11  C   UNL     1       4.770   4.865  15.563  0.00  0.00    +0.000 A 
ATOM     12  C   UNL     1       5.770   4.692  14.604  0.00  0.00    +0.000 A 
ATOM     13  C   UNL     1       7.032   5.251  14.800  0.00  0.00    +0.000 A 
ATOM     14  C   UNL     1       7.292   6.002  15.946  0.00  0.00    +0.000 A 
ATOM     15  C   UNL     1       6.295   6.178  16.907  0.00  0.00    +0.000 A 
ENDBRANCH   3  10
BRANCH   7  16
ATOM     16  C   UNL     1       1.962   2.778  21.292  0.00  0.00    +0.000 C 
ATOM     17  N   UNL     1       0.615   2.899  21.091  0.00  0.00    +0.000 N 
ATOM     18  O   UNL     1       2.405   2.297  22.335  0.00  0.00    +0.000 OA
ATOM     19  H   UNL     1       0.278   3.266  20.210  0.00  0.00    +0.000 HD
ATOM     20  H   UNL     1      -0.020   2.550  21.790  0.00  0.00    +0.000 HD
ENDBRANCH   7  16
BRANCH   1  22
ATOM     21  N   UNL     1       1.905   9.026  18.512  0.00  0.00    +0.000 N 
ATOM     22  C   UNL     1       1.938   8.149  19.574  0.00  0.00    +0.000 C 
ATOM     23  O   UNL     1       1.597   8.352  20.731  0.00  0.00    +0.000 OA
ATOM     24  H   UNL     1       2.449   8.720  17.706  0.00  0.00    +0.000 HD
BRANCH  21  31
ATOM     25  C   UNL     1       2.990  13.822  18.227  0.00  0.00    +0.000 C 
ATOM     26  C   UNL     1       1.955  12.739  18.319  0.00  0.00    +0.000 A 
ATOM     27  C   UNL     1       0.608  13.074  18.406  0.00  0.00    +0.000 A 
ATOM     28  C   UNL     1      -0.347  12.072  18.512  0.00  0.00    +0.000 A 
ATOM     29  C   UNL     1       0.005  10.705  18.537  0.00  0.00    +0.000 A 
ATOM     30  C   UNL     1      -1.160   9.757  18.599  0.00  0.00    +0.000 C 
ATOM     31  C   UNL     1       1.370  10.345  18.479  0.00  0.00    +0.000 A 
ATOM     32  C   UNL     1       2.323  11.380  18.344  0.00  0.00    +0.000 A 
ENDBRANCH  21  31
ENDBRANCH   1  22
TORSDOF 4
ENDMDL
MODEL 7
REMARK VINA RESULT:      -8.2      2.269      4.976
REMARK  Name = 
REMARK  6 active torsions:
REMARK  status: ('A' for Active; 'I' for Inactive)
REMARK    1  A    between atoms: C_1  and  C_2
REMARK    2  A    between atoms: C_5  and  C_6
REMARK    3  A    between atoms: C_7  and  N_8
REMARK    4  A    between atoms: C_9  and  C_11
REMARK    5  A    between atoms: C_13  and  C_14
REMARK    6  A    between atoms: C_23  and  C_24
REMARK                            x       y       z     vdW  Elec       q    Type
REMARK                         _______ _______ _______ _____ _____    ______ ____
ROOT
ATOM      1  C   UNL     1       2.639   7.208  18.172  0.00  0.00    +0.000 A 
ATOM      2  C   UNL     1       3.676   6.925  17.129  0.00  0.00    +0.000 A 
ATOM      3  C   UNL     1       4.263   5.718  17.171  0.00  0.00    +0.000 A 
ATOM      4  N   UNL     1       3.864   4.820  18.160  0.00  0.00    +0.000 N 
ATOM      5  C   UNL     1       4.304   3.554  18.447  0.00  0.00    +0.000 A 
ATOM      6  N   UNL     1       3.673   3.030  19.475  0.00  0.00    +0.000 NA
ATOM      7  C   UNL     1       2.769   4.007  19.888  0.00  0.00    +0.000 A 
ATOM      8  C   UNL     1       2.868   5.139  19.088  0.00  0.00    +0.000 A 
ATOM      9  N   UNL     1       2.246   6.368  19.086  0.00  0.00    +0.000 NA
ENDROOT
BRANCH   3  10
ATOM     10  C   UNL     1       5.297   5.477  16.157  0.00  0.00    +0.000 A 
ATOM     11  C   UNL     1       4.972   4.799  14.973  0.00  0.00    +0.000 A 
ATOM     12  C   UNL     1       5.982   4.364  14.113  0.00  0.00    +0.000 A 
ATOM     13  C   UNL     1       7.319   4.604  14.426  0.00  0.00    +0.000 A 
ATOM     14  C   UNL     1       7.650   5.297  15.590  0.00  0.00    +0.000 A 
ATOM     15  C   UNL     1       6.643   5.735  16.452  0.00  0.00    +0.000 A 
ENDBRANCH   3  10
BRANCH   7  16
ATOM     16  C   UNL     1       1.886   3.814  21.036  0.00  0.00    +0.000 C 
ATOM     17  N   UNL     1       0.564   4.004  20.744  0.00  0.00    +0.000 N 
ATOM     18  O   UNL     1       2.245   3.498  22.169  0.00  0.00    +0.000 OA
ATOM     19  H   UNL     1       0.294   4.230  19.795  0.00  0.00    +0.000 HD
ATOM     20  H   UNL     1      -0.126   3.841  21.460  0.00  0.00    +0.000 HD
ENDBRANCH   7  16
BRANCH   1  22
ATOM     21  N   UNL     1       0.970   8.864  18.905  0.00  0.00    +0.000 N 
ATOM     22  C   UNL     1       2.060   8.626  18.098  0.00  0.00    +0.000 C 
ATOM     23  O   UNL     1       2.596   9.389  17.307  0.00  0.00    +0.000 OA
ATOM     24  H   UNL     1       0.558   8.023  19.304  0.00  0.00    +0.000 HD
BRANCH  21  31
ATOM     25  C   UNL     1       0.833  13.106  21.406  0.00  0.00    +0.000 C 
ATOM     26  C   UNL     1       0.244  12.211  20.355  0.00  0.00    +0.000 A 
ATOM     27  C   UNL     1      -0.916  12.593  19.690  0.00  0.00    +0.000 A 
ATOM     28  C   UNL     1      -1.473  11.755  18.733  0.00  0.00    +0.000 A 
ATOM     29  C   UNL     1      -0.894  10.509  18.406  0.00  0.00    +0.000 A 
ATOM     30  C   UNL     1      -1.596   9.759  17.309  0.00  0.00    +0.000 C 
ATOM     31  C   UNL     1       0.268  10.090  19.091  0.00  0.00    +0.000 A 
ATOM     32  C   UNL     1       0.832  10.970  20.042  0.00  0.00    +0.000 A 
ENDBRANCH  21  31
ENDBRANCH   1  22
TORSDOF 4
ENDMDL
MODEL 8
REMARK VINA RESULT:      -8.1      2.620      5.080
REMARK  Name = 
REMARK  6 active torsions:
REMARK  status: ('A' for Active; 'I' for Inactive)
REMARK    1  A    between atoms: C_1  and  C_2
REMARK    2  A    between atoms: C_5  and  C_6
REMARK    3  A    between atoms: C_7  and  N_8
REMARK    4  A    between atoms: C_9  and  C_11
REMARK    5  A    between atoms: C_13  and  C_14
REMARK    6  A    between atoms: C_23  and  C_24
REMARK                            x       y       z     vdW  Elec       q    Type
REMARK                         _______ _______ _______ _____ _____    ______ ____
ROOT
ATOM      1  C   UNL     1       2.469   6.721  18.603  0.00  0.00    +0.000 A 
ATOM      2  C   UNL     1       3.485   6.587  17.511  0.00  0.00    +0.000 A 
ATOM      3  C   UNL     1       4.157   5.427  17.447  0.00  0.00    +0.000 A 
ATOM      4  N   UNL     1       3.859   4.435  18.380  0.00  0.00    +0.000 N 
ATOM      5  C   UNL     1       4.398   3.188  18.562  0.00  0.00    +0.000 A 
ATOM      6  N   UNL     1       3.844   2.549  19.569  0.00  0.00    +0.000 NA
ATOM      7  C   UNL     1       2.888   3.426  20.079  0.00  0.00    +0.000 A 
ATOM      8  C   UNL     1       2.877   4.615  19.360  0.00  0.00    +0.000 A 
ATOM      9  N   UNL     1       2.169   5.792  19.466  0.00  0.00    +0.000 NA
ENDROOT
BRANCH   3  10
ATOM     10  C   UNL     1       5.169   5.334  16.387  0.00  0.00    +0.000 A 
ATOM     11  C   UNL     1       4.874   4.655  15.197  0.00  0.00    +0.000 A 
ATOM     12  C   UNL     1       5.890   4.362  14.285  0.00  0.00    +0.000 A 
ATOM     13  C   UNL     1       7.202   4.747  14.552  0.00  0.00    +0.000 A 
ATOM     14  C   UNL     1       7.501   5.444  15.723  0.00  0.00    +0.000 A 
ATOM     15  C   UNL     1       6.487   5.739  16.637  0.00  0.00    +0.000 A 
ENDBRANCH   3  10
BRANCH   7  16
ATOM     16  C   UNL     1       2.063   3.089  21.236  0.00  0.00    +0.000 C 
ATOM     17  N   UNL     1       0.721   3.121  20.977  0.00  0.00    +0.000 N 
ATOM     18  O   UNL     1       2.485   2.785  22.351  0.00  0.00    +0.000 OA
ATOM     19  H   UNL     1       0.403   3.341  20.042  0.00  0.00    +0.000 HD
ATOM     20  H   UNL     1       0.074   2.851  21.700  0.00  0.00    +0.000 HD
ENDBRANCH   7  16
BRANCH   1  22
ATOM     21  N   UNL     1       1.569   8.605  19.910  0.00  0.00    +0.000 N 
ATOM     22  C   UNL     1       1.788   8.093  18.650  0.00  0.00    +0.000 C 
ATOM     23  O   UNL     1       1.474   8.579  17.572  0.00  0.00    +0.000 OA
ATOM     24  H   UNL     1       1.704   7.929  20.660  0.00  0.00    +0.000 HD
BRANCH  21  31
ATOM     25  C   UNL     1      -1.333  11.017  23.076  0.00  0.00    +0.000 C 
ATOM     26  C   UNL     1      -0.431  11.046  21.876  0.00  0.00    +0.000 A 
ATOM     27  C   UNL     1      -0.233  12.238  21.188  0.00  0.00    +0.000 A 
ATOM     28  C   UNL     1       0.584  12.260  20.065  0.00  0.00    +0.000 A 
ATOM     29  C   UNL     1       1.230  11.097  19.590  0.00  0.00    +0.000 A 
ATOM     30  C   UNL     1       2.120  11.316  18.399  0.00  0.00    +0.000 C 
ATOM     31  C   UNL     1       1.018   9.871  20.259  0.00  0.00    +0.000 A 
ATOM     32  C   UNL     1       0.204   9.877  21.414  0.00  0.00    +0.000 A 
ENDBRANCH  21  31
ENDBRANCH   1  22
TORSDOF 4
ENDMDL
MODEL 9
REMARK VINA RESULT:      -8.0      1.412      2.171
REMARK  Name = 
REMARK  6 active torsions:
REMARK  status: ('A' for Active; 'I' for Inactive)
REMARK    1  A    between atoms: C_1  and  C_2
REMARK    2  A    between atoms: C_5  and  C_6
REMARK    3  A    between atoms: C_7  and  N_8
REMARK    4  A    between atoms: C_9  and  C_11
REMARK    5  A    between atoms: C_13  and  C_14
REMARK    6  A    between atoms: C_23  and  C_24
REMARK                            x       y       z     vdW  Elec       q    Type
REMARK                         _______ _______ _______ _____ _____    ______ ____
ROOT
ATOM      1  C   UNL     1       2.863   7.749  18.163  0.00  0.00    +0.000 A 
ATOM      2  C   UNL     1       2.183   6.701  18.989  0.00  0.00    +0.000 A 
ATOM      3  C   UNL     1       2.862   5.563  19.203  0.00  0.00    +0.000 A 
ATOM      4  N   UNL     1       4.140   5.441  18.661  0.00  0.00    +0.000 N 
ATOM      5  C   UNL     1       5.032   4.401  18.698  0.00  0.00    +0.000 A 
ATOM      6  N   UNL     1       6.143   4.675  18.052  0.00  0.00    +0.000 NA
ATOM      7  C   UNL     1       5.974   5.968  17.560  0.00  0.00    +0.000 A 
ATOM      8  C   UNL     1       4.729   6.471  17.920  0.00  0.00    +0.000 A 
ATOM      9  N   UNL     1       4.065   7.652  17.670  0.00  0.00    +0.000 NA
ENDROOT
BRANCH   3  10
ATOM     10  C   UNL     1       2.161   4.540  19.989  0.00  0.00    +0.000 A 
ATOM     11  C   UNL     1       2.522   4.315  21.325  0.00  0.00    +0.000 A 
ATOM     12  C   UNL     1       2.028   3.203  22.008  0.00  0.00    +0.000 A 
ATOM     13  C   UNL     1       1.171   2.311  21.366  0.00  0.00    +0.000 A 
ATOM     14  C   UNL     1       0.788   2.540  20.045  0.00  0.00    +0.000 A 
ATOM     15  C   UNL     1       1.279   3.652  19.358  0.00  0.00    +0.000 A 
ENDBRANCH   3  10
BRANCH   7  16
ATOM     16  C   UNL     1       6.993   6.634  16.754  0.00  0.00    +0.000 C 
ATOM     17  N   UNL     1       7.290   7.897  17.185  0.00  0.00    +0.000 N 
ATOM     18  O   UNL     1       7.570   6.145  15.783  0.00  0.00    +0.000 OA
ATOM     19  H   UNL     1       6.825   8.261  18.007  0.00  0.00    +0.000 HD
ATOM     20  H   UNL     1       8.020   8.415  16.724  0.00  0.00    +0.000 HD
ENDBRANCH   7  16
BRANCH   1  22
ATOM     21  N   UNL     1       2.233  10.056  18.753  0.00  0.00    +0.000 N 
ATOM     22  C   UNL     1       2.002   8.992  17.910  0.00  0.00    +0.000 C 
ATOM     23  O   UNL     1       1.173   8.903  17.015  0.00  0.00    +0.000 OA
ATOM     24  H   UNL     1       2.804   9.825  19.564  0.00  0.00    +0.000 HD
BRANCH  21  31
ATOM     25  C   UNL     1       3.009  14.847  17.914  0.00  0.00    +0.000 C 
ATOM     26  C   UNL     1       2.062  13.739  18.274  0.00  0.00    +0.000 A 
ATOM     27  C   UNL     1       0.737  14.032  18.578  0.00  0.00    +0.000 A 
ATOM     28  C   UNL     1      -0.133  13.009  18.931  0.00  0.00    +0.000 A 
ATOM     29  C   UNL     1       0.286  11.662  18.995  0.00  0.00    +0.000 A 
ATOM     30  C   UNL     1      -0.800  10.682  19.339  0.00  0.00    +0.000 C 
ATOM     31  C   UNL     1       1.635  11.348  18.718  0.00  0.00    +0.000 A 
ATOM     32  C   UNL     1       2.496  12.401  18.335  0.00  0.00    +0.000 A 
ENDBRANCH  21  31
ENDBRANCH   1  22
TORSDOF 4
ENDMDL
