MODEL 1
REMARK VINA RESULT:      -9.7      0.000      0.000
REMARK  Name = 
REMARK  6 active torsions:
REMARK  status: ('A' for Active; 'I' for Inactive)
REMARK    1  A    between atoms: C_1  and  C_2
REMARK    2  A    between atoms: N_10  and  C_11
REMARK    3  A    between atoms: C_15  and  C_16
REMARK    4  A    between atoms: C_16  and  C_17
REMARK    5  A    between atoms: C_17  and  C_18
REMARK    6  A    between atoms: N_22  and  C_23
REMARK                            x       y       z     vdW  Elec       q    Type
REMARK                         _______ _______ _______ _____ _____    ______ ____
ROOT
ATOM      1  C   UNL     1       2.644   6.166  18.288  0.00  0.00    +0.000 A 
ATOM      2  C   UNL     1       1.854   5.028  18.082  0.00  0.00    +0.000 A 
ATOM      3  C   UNL     1       2.346   3.914  17.412  0.00  0.00    +0.000 A 
ATOM      4  C   UNL     1       3.655   3.910  16.950  0.00  0.00    +0.000 A 
ATOM      5  C   UNL     1       4.512   5.011  17.149  0.00  0.00    +0.000 A 
ATOM      6  C   UNL     1       3.955   6.149  17.784  0.00  0.00    +0.000 A 
ENDROOT
BRANCH   1  16
ATOM      7  C   UNL     1      -0.329  12.550  20.619  0.00  0.00    +0.000 C 
ATOM      8  C   UNL     1       0.206  11.150  20.671  0.00  0.00    +0.000 A 
ATOM      9  C   UNL     1       0.166  10.380  21.856  0.00  0.00    +0.000 A 
ATOM     10  C   UNL     1       0.656   9.062  21.891  0.00  0.00    +0.000 A 
ATOM     11  C   UNL     1       1.192   8.527  20.733  0.00  0.00    +0.000 A 
ATOM     12  C   UNL     1       1.237   9.303  19.584  0.00  0.00    +0.000 A 
ATOM     13  C   UNL     1       0.748  10.594  19.512  0.00  0.00    +0.000 A 
ATOM     14  C   UNL     1       1.852   8.528  18.516  0.00  0.00    +0.000 C 
ATOM     15  O   UNL     1       2.022   9.006  17.406  0.00  0.00    +0.000 OA
ATOM     16  N   UNL     1       2.150   7.266  19.037  0.00  0.00    +0.000 N 
ATOM     17  C   UNL     1       1.772   7.179  20.448  0.00  0.00    +0.000 C 
ENDBRANCH   1  16
BRANCH   5  18
ATOM     18  C   UNL     1       6.068   4.902  16.782  0.00  0.00    +0.000 C 
ATOM     19  C   UNL     1       6.983   4.577  18.004  0.00  0.00    +0.000 C 
ATOM     20  O   UNL     1       7.949   5.569  17.582  0.00  0.00    +0.000 OA
ATOM     21  C   UNL     1       6.927   6.199  16.760  0.00  0.00    +0.000 C 
BRANCH  18  22
ATOM     22  C   UNL     1       6.345   3.939  15.617  0.00  0.00    +0.000 C 
BRANCH  22  23
ATOM     23  C   UNL     1       6.949   4.587  14.417  0.00  0.00    +0.000 A 
ATOM     24  N   UNL     1       7.893   5.508  14.426  0.00  0.00    +0.000 NA
ATOM     25  N   UNL     1       8.247   5.778  13.126  0.00  0.00    +0.000 NA
ATOM     26  C   UNL     1       7.512   5.020  12.349  0.00  0.00    +0.000 A 
ATOM     27  N   UNL     1       6.669   4.271  13.111  0.00  0.00    +0.000 N 
ATOM     28  C   UNL     1       5.704   3.331  12.610  0.00  0.00    +0.000 C 
ENDBRANCH  22  23
ENDBRANCH  18  22
ENDBRANCH   5  18
TORSDOF 4
ENDMDL
MODEL 2
REMARK VINA RESULT:      -9.6      2.555      3.864
REMARK  Name = 
REMARK  6 active torsions:
REMARK  status: ('A' for Active; 'I' for Inactive)
REMARK    1  A    between atoms: C_1  and  C_2
REMARK    2  A    between atoms: N_10  and  C_11
REMARK    3  A    between atoms: C_15  and  C_16
REMARK    4  A    between atoms: C_16  and  C_17
REMARK    5  A    between atoms: C_17  and  C_18
REMARK    6  A    between atoms: N_22  and  C_23
REMARK                            x       y       z     vdW  Elec       q    Type
REMARK                         _______ _______ _______ _____ _____    ______ ____
ROOT
ATOM      1  C   UNL     1       2.113   8.026  19.237  0.00  0.00    +0.000 A 
ATOM      2  C   UNL     1       2.573   8.493  18.000  0.00  0.00    +0.000 A 
ATOM      3  C   UNL     1       3.276   7.669  17.128  0.00  0.00    +0.000 A 
ATOM      4  C   UNL     1       3.512   6.345  17.471  0.00  0.00    +0.000 A 
ATOM      5  C   UNL     1       3.051   5.804  18.689  0.00  0.00    +0.000 A 
ATOM      6  C   UNL     1       2.392   6.691  19.575  0.00  0.00    +0.000 A 
ENDROOT
BRANCH   1  16
ATOM      7  C   UNL     1      -2.643  12.920  22.147  0.00  0.00    +0.000 C 
ATOM      8  C   UNL     1      -1.669  11.781  22.076  0.00  0.00    +0.000 A 
ATOM      9  C   UNL     1      -1.363  10.991  23.207  0.00  0.00    +0.000 A 
ATOM     10  C   UNL     1      -0.460   9.915  23.128  0.00  0.00    +0.000 A 
ATOM     11  C   UNL     1       0.138   9.645  21.909  0.00  0.00    +0.000 A 
ATOM     12  C   UNL     1      -0.163  10.442  20.814  0.00  0.00    +0.000 A 
ATOM     13  C   UNL     1      -1.058  11.494  20.856  0.00  0.00    +0.000 A 
ATOM     14  C   UNL     1       0.596   9.969  19.665  0.00  0.00    +0.000 C 
ATOM     15  O   UNL     1       0.515  10.526  18.582  0.00  0.00    +0.000 OA
ATOM     16  N   UNL     1       1.335   8.860  20.083  0.00  0.00    +0.000 N 
ATOM     17  C   UNL     1       1.113   8.586  21.503  0.00  0.00    +0.000 C 
ENDBRANCH   1  16
BRANCH   5  18
ATOM     18  C   UNL     1       3.166   4.230  18.970  0.00  0.00    +0.000 C 
ATOM     19  C   UNL     1       1.911   3.417  18.523  0.00  0.00    +0.000 C 
ATOM     20  O   UNL     1       1.932   2.653  19.752  0.00  0.00    +0.000 OA
ATOM     21  C   UNL     1       2.752   3.685  20.367  0.00  0.00    +0.000 C 
BRANCH  18  22
ATOM     22  C   UNL     1       4.453   3.610  18.404  0.00  0.00    +0.000 C 
BRANCH  22  23
ATOM     23  C   UNL     1       5.689   4.392  18.697  0.00  0.00    +0.000 A 
ATOM     24  N   UNL     1       6.062   4.837  19.881  0.00  0.00    +0.000 NA
ATOM     25  N   UNL     1       7.299   5.422  19.754  0.00  0.00    +0.000 NA
ATOM     26  C   UNL     1       7.657   5.324  18.497  0.00  0.00    +0.000 A 
ATOM     27  N   UNL     1       6.672   4.704  17.792  0.00  0.00    +0.000 N 
ATOM     28  C   UNL     1       6.701   4.430  16.380  0.00  0.00    +0.000 C 
ENDBRANCH  22  23
ENDBRANCH  18  22
ENDBRANCH   5  18
TORSDOF 4
ENDMDL
MODEL 3
REMARK VINA RESULT:      -9.2      1.741      2.885
REMARK  Name = 
REMARK  6 active torsions:
REMARK  status: ('A' for Active; 'I' for Inactive)
REMARK    1  A    between atoms: C_1  and  C_2
REMARK    2  A    between atoms: N_10  and  C_11
REMARK    3  A    between atoms: C_15  and  C_16
REMARK    4  A    between atoms: C_16  and  C_17
REMARK    5  A    between atoms: C_17  and  C_18
REMARK    6  A    between atoms: N_22  and  C_23
REMARK                            x       y       z     vdW  Elec       q    Type
REMARK                         _______ _______ _______ _____ _____    ______ ____
ROOT
ATOM      1  C   UNL     1       2.718   5.868  18.405  0.00  0.00    +0.000 A 
ATOM      2  C   UNL     1       2.120   4.658  18.773  0.00  0.00    +0.000 A 
ATOM      3  C   UNL     1       2.573   3.442  18.272  0.00  0.00    +0.000 A 
ATOM      4  C   UNL     1       3.656   3.415  17.405  0.00  0.00    +0.000 A 
ATOM      5  C   UNL     1       4.322   4.596  17.017  0.00  0.00    +0.000 A 
ATOM      6  C   UNL     1       3.792   5.818  17.501  0.00  0.00    +0.000 A 
ENDROOT
BRANCH   1  16
ATOM      7  C   UNL     1       0.228  12.727  19.744  0.00  0.00    +0.000 C 
ATOM      8  C   UNL     1       0.628  11.304  20.001  0.00  0.00    +0.000 A 
ATOM      9  C   UNL     1       0.456  10.699  21.266  0.00  0.00    +0.000 A 
ATOM     10  C   UNL     1       0.820   9.359  21.494  0.00  0.00    +0.000 A 
ATOM     11  C   UNL     1       1.364   8.637  20.447  0.00  0.00    +0.000 A 
ATOM     12  C   UNL     1       1.540   9.253  19.216  0.00  0.00    +0.000 A 
ATOM     13  C   UNL     1       1.177  10.562  18.956  0.00  0.00    +0.000 A 
ATOM     14  C   UNL     1       2.136   8.299  18.292  0.00  0.00    +0.000 C 
ATOM     15  O   UNL     1       2.406   8.615  17.145  0.00  0.00    +0.000 OA
ATOM     16  N   UNL     1       2.289   7.094  18.981  0.00  0.00    +0.000 N 
ATOM     17  C   UNL     1       1.832   7.219  20.365  0.00  0.00    +0.000 C 
ENDBRANCH   1  16
BRANCH   5  18
ATOM     18  C   UNL     1       5.684   4.519  16.176  0.00  0.00    +0.000 C 
ATOM     19  C   UNL     1       5.783   5.582  15.037  0.00  0.00    +0.000 C 
ATOM     20  O   UNL     1       6.295   4.590  14.116  0.00  0.00    +0.000 OA
ATOM     21  C   UNL     1       5.767   3.538  14.971  0.00  0.00    +0.000 C 
BRANCH  18  22
ATOM     22  C   UNL     1       6.940   4.543  17.061  0.00  0.00    +0.000 C 
BRANCH  22  23
ATOM     23  C   UNL     1       7.425   5.913  17.398  0.00  0.00    +0.000 A 
ATOM     24  N   UNL     1       7.487   6.938  16.571  0.00  0.00    +0.000 NA
ATOM     25  N   UNL     1       7.894   8.043  17.281  0.00  0.00    +0.000 NA
ATOM     26  C   UNL     1       8.073   7.671  18.525  0.00  0.00    +0.000 A 
ATOM     27  N   UNL     1       7.812   6.340  18.643  0.00  0.00    +0.000 N 
ATOM     28  C   UNL     1       7.914   5.574  19.856  0.00  0.00    +0.000 C 
ENDBRANCH  22  23
ENDBRANCH  18  22
ENDBRANCH   5  18
TORSDOF 4
ENDMDL
MODEL 4
REMARK VINA RESULT:      -9.1      2.044      3.073
REMARK  Name = 
REMARK  6 active torsions:
REMARK  status: ('A' for Active; 'I' for Inactive)
REMARK    1  A    between atoms: C_1  and  C_2
REMARK    2  A    between atoms: N_10  and  C_11
REMARK    3  A    between atoms: C_15  and  C_16
REMARK    4  A    between atoms: C_16  and  C_17
REMARK    5  A    between atoms: C_17  and  C_18
REMARK    6  A    between atoms: N_22  and  C_23
REMARK                            x       y       z     vdW  Elec       q    Type
REMARK                         _______ _______ _______ _____ _____    ______ ____
ROOT
ATOM      1  C   UNL     1       2.903   5.749  18.397  0.00  0.00    +0.000 A 
ATOM      2  C   UNL     1       2.562   4.487  18.897  0.00  0.00    +0.000 A 
ATOM      3  C   UNL     1       3.108   3.323  18.366  0.00  0.00    +0.000 A 
ATOM      4  C   UNL     1       4.029   3.404  17.331  0.00  0.00    +0.000 A 
ATOM      5  C   UNL     1       4.437   4.645  16.801  0.00  0.00    +0.000 A 
ATOM      6  C   UNL     1       3.814   5.803  17.328  0.00  0.00    +0.000 A 
ENDROOT
BRANCH   1  16
ATOM      7  C   UNL     1      -0.007  12.411  19.873  0.00  0.00    +0.000 C 
ATOM      8  C   UNL     1       0.469  11.006  20.099  0.00  0.00    +0.000 A 
ATOM      9  C   UNL     1       0.304  10.354  21.341  0.00  0.00    +0.000 A 
ATOM     10  C   UNL     1       0.739   9.031  21.539  0.00  0.00    +0.000 A 
ATOM     11  C   UNL     1       1.347   8.373  20.484  0.00  0.00    +0.000 A 
ATOM     12  C   UNL     1       1.514   9.035  19.276  0.00  0.00    +0.000 A 
ATOM     13  C   UNL     1       1.082  10.328  19.046  0.00  0.00    +0.000 A 
ATOM     14  C   UNL     1       2.185   8.145  18.340  0.00  0.00    +0.000 C 
ATOM     15  O   UNL     1       2.462   8.510  17.209  0.00  0.00    +0.000 OA
ATOM     16  N   UNL     1       2.392   6.930  18.998  0.00  0.00    +0.000 N 
ATOM     17  C   UNL     1       1.897   6.987  20.373  0.00  0.00    +0.000 C 
ENDBRANCH   1  16
BRANCH   5  18
ATOM     18  C   UNL     1       5.642   4.718  15.747  0.00  0.00    +0.000 C 
ATOM     19  C   UNL     1       5.175   4.795  14.260  0.00  0.00    +0.000 C 
ATOM     20  O   UNL     1       6.175   3.825  13.865  0.00  0.00    +0.000 OA
ATOM     21  C   UNL     1       6.286   3.392  15.249  0.00  0.00    +0.000 C 
BRANCH  18  22
ATOM     22  C   UNL     1       6.653   5.832  16.064  0.00  0.00    +0.000 C 
BRANCH  22  23
ATOM     23  C   UNL     1       7.210   5.779  17.447  0.00  0.00    +0.000 A 
ATOM     24  N   UNL     1       7.371   4.691  18.175  0.00  0.00    +0.000 NA
ATOM     25  N   UNL     1       8.000   5.044  19.345  0.00  0.00    +0.000 NA
ATOM     26  C   UNL     1       8.209   6.337  19.309  0.00  0.00    +0.000 A 
ATOM     27  N   UNL     1       7.713   6.845  18.148  0.00  0.00    +0.000 N 
ATOM     28  C   UNL     1       7.747   8.229  17.761  0.00  0.00    +0.000 C 
ENDBRANCH  22  23
ENDBRANCH  18  22
ENDBRANCH   5  18
TORSDOF 4
ENDMDL
MODEL 5
REMARK VINA RESULT:      -9.1      0.751      1.325
REMARK  Name = 
REMARK  6 active torsions:
REMARK  status: ('A' for Active; 'I' for Inactive)
REMARK    1  A    between atoms: C_1  and  C_2
REMARK    2  A    between atoms: N_10  and  C_11
REMARK    3  A    between atoms: C_15  and  C_16
REMARK    4  A    between atoms: C_16  and  C_17
REMARK    5  A    between atoms: C_17  and  C_18
REMARK    6  A    between atoms: N_22  and  C_23
REMARK                            x       y       z     vdW  Elec       q    Type
REMARK                         _______ _______ _______ _____ _____    ______ ____
ROOT
ATOM      1  C   UNL     1       2.689   6.220  18.356  0.00  0.00    +0.000 A 
ATOM      2  C   UNL     1       2.052   4.974  18.370  0.00  0.00    +0.000 A 
ATOM      3  C   UNL     1       2.585   3.877  17.703  0.00  0.00    +0.000 A 
ATOM      4  C   UNL     1       3.788   4.003  17.024  0.00  0.00    +0.000 A 
ATOM      5  C   UNL     1       4.497   5.222  16.994  0.00  0.00    +0.000 A 
ATOM      6  C   UNL     1       3.890   6.330  17.635  0.00  0.00    +0.000 A 
ENDROOT
BRANCH   1  16
ATOM      7  C   UNL     1      -0.444  12.536  20.664  0.00  0.00    +0.000 C 
ATOM      8  C   UNL     1       0.126  11.149  20.721  0.00  0.00    +0.000 A 
ATOM      9  C   UNL     1       0.107  10.384  21.909  0.00  0.00    +0.000 A 
ATOM     10  C   UNL     1       0.631   9.079  21.950  0.00  0.00    +0.000 A 
ATOM     11  C   UNL     1       1.180   8.553  20.793  0.00  0.00    +0.000 A 
ATOM     12  C   UNL     1       1.203   9.325  19.641  0.00  0.00    +0.000 A 
ATOM     13  C   UNL     1       0.682  10.603  19.565  0.00  0.00    +0.000 A 
ATOM     14  C   UNL     1       1.837   8.562  18.575  0.00  0.00    +0.000 C 
ATOM     15  O   UNL     1       1.993   9.039  17.464  0.00  0.00    +0.000 OA
ATOM     16  N   UNL     1       2.168   7.311  19.101  0.00  0.00    +0.000 N 
ATOM     17  C   UNL     1       1.794   7.219  20.513  0.00  0.00    +0.000 C 
ENDBRANCH   1  16
BRANCH   5  18
ATOM     18  C   UNL     1       5.972   5.285  16.371  0.00  0.00    +0.000 C 
ATOM     19  C   UNL     1       6.745   3.932  16.444  0.00  0.00    +0.000 C 
ATOM     20  O   UNL     1       7.950   4.610  16.876  0.00  0.00    +0.000 OA
ATOM     21  C   UNL     1       7.148   5.757  17.273  0.00  0.00    +0.000 C 
BRANCH  18  22
ATOM     22  C   UNL     1       5.998   5.858  14.945  0.00  0.00    +0.000 C 
BRANCH  22  23
ATOM     23  C   UNL     1       6.158   4.831  13.875  0.00  0.00    +0.000 A 
ATOM     24  N   UNL     1       5.293   3.882  13.578  0.00  0.00    +0.000 NA
ATOM     25  N   UNL     1       5.756   3.204  12.475  0.00  0.00    +0.000 NA
ATOM     26  C   UNL     1       6.894   3.751  12.123  0.00  0.00    +0.000 A 
ATOM     27  N   UNL     1       7.197   4.762  12.983  0.00  0.00    +0.000 N 
ATOM     28  C   UNL     1       8.375   5.584  12.921  0.00  0.00    +0.000 C 
ENDBRANCH  22  23
ENDBRANCH  18  22
ENDBRANCH   5  18
TORSDOF 4
ENDMDL
MODEL 6
REMARK VINA RESULT:      -9.0      1.338      1.861
REMARK  Name = 
REMARK  6 active torsions:
REMARK  status: ('A' for Active; 'I' for Inactive)
REMARK    1  A    between atoms: C_1  and  C_2
REMARK    2  A    between atoms: N_10  and  C_11
REMARK    3  A    between atoms: C_15  and  C_16
REMARK    4  A    between atoms: C_16  and  C_17
REMARK    5  A    between atoms: C_17  and  C_18
REMARK    6  A    between atoms: N_22  and  C_23
REMARK                            x       y       z     vdW  Elec       q    Type
REMARK                         _______ _______ _______ _____ _____    ______ ____
ROOT
ATOM      1  C   UNL     1       2.918   6.638  18.501  0.00  0.00    +0.000 A 
ATOM      2  C   UNL     1       2.354   5.358  18.465  0.00  0.00    +0.000 A 
ATOM      3  C   UNL     1       3.115   4.235  18.160  0.00  0.00    +0.000 A 
ATOM      4  C   UNL     1       4.473   4.373  17.905  0.00  0.00    +0.000 A 
ATOM      5  C   UNL     1       5.110   5.630  17.953  0.00  0.00    +0.000 A 
ATOM      6  C   UNL     1       4.288   6.755  18.208  0.00  0.00    +0.000 A 
ENDROOT
BRANCH   1  16
ATOM      7  C   UNL     1      -0.790  11.947  22.120  0.00  0.00    +0.000 C 
ATOM      8  C   UNL     1      -0.112  11.229  20.990  0.00  0.00    +0.000 A 
ATOM      9  C   UNL     1       0.035  11.819  19.714  0.00  0.00    +0.000 A 
ATOM     10  C   UNL     1       0.686  11.145  18.665  0.00  0.00    +0.000 A 
ATOM     11  C   UNL     1       1.178   9.874  18.904  0.00  0.00    +0.000 A 
ATOM     12  C   UNL     1       1.010   9.305  20.158  0.00  0.00    +0.000 A 
ATOM     13  C   UNL     1       0.391   9.948  21.214  0.00  0.00    +0.000 A 
ATOM     14  C   UNL     1       1.596   7.972  20.153  0.00  0.00    +0.000 C 
ATOM     15  O   UNL     1       1.555   7.261  21.143  0.00  0.00    +0.000 OA
ATOM     16  N   UNL     1       2.142   7.763  18.884  0.00  0.00    +0.000 N 
ATOM     17  C   UNL     1       1.914   8.920  18.018  0.00  0.00    +0.000 C 
ENDBRANCH   1  16
BRANCH   5  18
ATOM     18  C   UNL     1       6.706   5.733  17.849  0.00  0.00    +0.000 C 
ATOM     19  C   UNL     1       7.420   5.873  19.230  0.00  0.00    +0.000 C 
ATOM     20  O   UNL     1       8.291   6.904  18.707  0.00  0.00    +0.000 OA
ATOM     21  C   UNL     1       7.355   7.127  17.615  0.00  0.00    +0.000 C 
BRANCH  18  22
ATOM     22  C   UNL     1       7.329   4.597  17.021  0.00  0.00    +0.000 C 
BRANCH  22  23
ATOM     23  C   UNL     1       7.175   4.759  15.546  0.00  0.00    +0.000 A 
ATOM     24  N   UNL     1       7.862   5.585  14.781  0.00  0.00    +0.000 NA
ATOM     25  N   UNL     1       7.497   5.368  13.474  0.00  0.00    +0.000 NA
ATOM     26  C   UNL     1       6.596   4.417  13.465  0.00  0.00    +0.000 A 
ATOM     27  N   UNL     1       6.347   4.017  14.742  0.00  0.00    +0.000 N 
ATOM     28  C   UNL     1       5.406   3.000  15.130  0.00  0.00    +0.000 C 
ENDBRANCH  22  23
ENDBRANCH  18  22
ENDBRANCH   5  18
TORSDOF 4
ENDMDL
MODEL 7
REMARK VINA RESULT:      -8.8      2.706      4.217
REMARK  Name = 
REMARK  6 active torsions:
REMARK  status: ('A' for Active; 'I' for Inactive)
REMARK    1  A    between atoms: C_1  and  C_2
REMARK    2  A    between atoms: N_10  and  C_11
REMARK    3  A    between atoms: C_15  and  C_16
REMARK    4  A    between atoms: C_16  and  C_17
REMARK    5  A    between atoms: C_17  and  C_18
REMARK    6  A    between atoms: N_22  and  C_23
REMARK                            x       y       z     vdW  Elec       q    Type
REMARK                         _______ _______ _______ _____ _____    ______ ____
ROOT
ATOM      1  C   UNL     1       1.883   8.380  18.980  0.00  0.00    +0.000 A 
ATOM      2  C   UNL     1       2.599   8.797  17.852  0.00  0.00    +0.000 A 
ATOM      3  C   UNL     1       3.490   7.950  17.202  0.00  0.00    +0.000 A 
ATOM      4  C   UNL     1       3.667   6.653  17.661  0.00  0.00    +0.000 A 
ATOM      5  C   UNL     1       2.955   6.160  18.775  0.00  0.00    +0.000 A 
ATOM      6  C   UNL     1       2.102   7.072  19.444  0.00  0.00    +0.000 A 
ENDROOT
BRANCH   1  16
ATOM      7  C   UNL     1      -2.044  12.734  23.524  0.00  0.00    +0.000 C 
ATOM      8  C   UNL     1      -1.587  12.082  22.252  0.00  0.00    +0.000 A 
ATOM      9  C   UNL     1      -2.134  12.432  20.997  0.00  0.00    +0.000 A 
ATOM     10  C   UNL     1      -1.689  11.826  19.808  0.00  0.00    +0.000 A 
ATOM     11  C   UNL     1      -0.699  10.863  19.890  0.00  0.00    +0.000 A 
ATOM     12  C   UNL     1      -0.185  10.521  21.133  0.00  0.00    +0.000 A 
ATOM     13  C   UNL     1      -0.589  11.110  22.317  0.00  0.00    +0.000 A 
ATOM     14  C   UNL     1       0.823   9.486  20.957  0.00  0.00    +0.000 C 
ATOM     15  O   UNL     1       1.407   9.005  21.914  0.00  0.00    +0.000 OA
ATOM     16  N   UNL     1       0.924   9.233  19.587  0.00  0.00    +0.000 N 
ATOM     17  C   UNL     1      -0.016  10.059  18.830  0.00  0.00    +0.000 C 
ENDBRANCH   1  16
BRANCH   5  18
ATOM     18  C   UNL     1       3.031   4.606  19.160  0.00  0.00    +0.000 C 
ATOM     19  C   UNL     1       1.694   3.834  18.931  0.00  0.00    +0.000 C 
ATOM     20  O   UNL     1       1.832   3.159  20.204  0.00  0.00    +0.000 OA
ATOM     21  C   UNL     1       2.769   4.185  20.635  0.00  0.00    +0.000 C 
BRANCH  18  22
ATOM     22  C   UNL     1       4.209   3.877  18.493  0.00  0.00    +0.000 C 
BRANCH  22  23
ATOM     23  C   UNL     1       5.537   4.510  18.734  0.00  0.00    +0.000 A 
ATOM     24  N   UNL     1       5.992   4.936  19.896  0.00  0.00    +0.000 NA
ATOM     25  N   UNL     1       7.287   5.364  19.723  0.00  0.00    +0.000 NA
ATOM     26  C   UNL     1       7.597   5.192  18.462  0.00  0.00    +0.000 A 
ATOM     27  N   UNL     1       6.525   4.678  17.798  0.00  0.00    +0.000 N 
ATOM     28  C   UNL     1       6.483   4.368  16.394  0.00  0.00    +0.000 C 
ENDBRANCH  22  23
ENDBRANCH  18  22
ENDBRANCH   5  18
TORSDOF 4
ENDMDL
MODEL 8
REMARK VINA RESULT:      -8.8      2.032      3.277
REMARK  Name = 
REMARK  6 active torsions:
REMARK  status: ('A' for Active; 'I' for Inactive)
REMARK    1  A    between atoms: C_1  and  C_2
REMARK    2  A    between atoms: N_10  and  C_11
REMARK    3  A    between atoms: C_15  and  C_16
REMARK    4  A    between atoms: C_16  and  C_17
REMARK    5  A    between atoms: C_17  and  C_18
REMARK    6  A    between atoms: N_22  and  C_23
REMARK                            x       y       z     vdW  Elec       q    Type
REMARK                         _______ _______ _______ _____ _____    ______ ____
ROOT
ATOM      1  C   UNL     1       2.929   5.955  18.597  0.00  0.00    +0.000 A 
ATOM      2  C   UNL     1       2.695   4.866  19.443  0.00  0.00    +0.000 A 
ATOM      3  C   UNL     1       3.340   3.648  19.256  0.00  0.00    +0.000 A 
ATOM      4  C   UNL     1       4.256   3.506  18.223  0.00  0.00    +0.000 A 
ATOM      5  C   UNL     1       4.558   4.573  17.352  0.00  0.00    +0.000 A 
ATOM      6  C   UNL     1       3.836   5.777  17.539  0.00  0.00    +0.000 A 
ENDROOT
BRANCH   1  16
ATOM      7  C   UNL     1      -0.163  12.011  21.565  0.00  0.00    +0.000 C 
ATOM      8  C   UNL     1       0.483  11.122  20.544  0.00  0.00    +0.000 A 
ATOM      9  C   UNL     1       0.832  11.594  19.259  0.00  0.00    +0.000 A 
ATOM     10  C   UNL     1       1.451  10.758  18.312  0.00  0.00    +0.000 A 
ATOM     11  C   UNL     1       1.708   9.444  18.663  0.00  0.00    +0.000 A 
ATOM     12  C   UNL     1       1.344   8.994  19.924  0.00  0.00    +0.000 A 
ATOM     13  C   UNL     1       0.751   9.795  20.881  0.00  0.00    +0.000 A 
ATOM     14  C   UNL     1       1.705   7.588  20.044  0.00  0.00    +0.000 C 
ATOM     15  O   UNL     1       1.465   6.960  21.062  0.00  0.00    +0.000 OA
ATOM     16  N   UNL     1       2.315   7.212  18.845  0.00  0.00    +0.000 N 
ATOM     17  C   UNL     1       2.353   8.330  17.902  0.00  0.00    +0.000 C 
ENDBRANCH   1  16
BRANCH   5  18
ATOM     18  C   UNL     1       5.757   4.440  16.296  0.00  0.00    +0.000 C 
ATOM     19  C   UNL     1       5.635   5.409  15.079  0.00  0.00    +0.000 C 
ATOM     20  O   UNL     1       6.005   4.351  14.163  0.00  0.00    +0.000 OA
ATOM     21  C   UNL     1       5.656   3.366  15.176  0.00  0.00    +0.000 C 
BRANCH  18  22
ATOM     22  C   UNL     1       7.146   4.548  16.947  0.00  0.00    +0.000 C 
BRANCH  22  23
ATOM     23  C   UNL     1       7.534   5.935  17.336  0.00  0.00    +0.000 A 
ATOM     24  N   UNL     1       7.563   6.984  16.537  0.00  0.00    +0.000 NA
ATOM     25  N   UNL     1       7.875   8.091  17.290  0.00  0.00    +0.000 NA
ATOM     26  C   UNL     1       8.032   7.698  18.530  0.00  0.00    +0.000 A 
ATOM     27  N   UNL     1       7.848   6.351  18.605  0.00  0.00    +0.000 N 
ATOM     28  C   UNL     1       7.952   5.560  19.801  0.00  0.00    +0.000 C 
ENDBRANCH  22  23
ENDBRANCH  18  22
ENDBRANCH   5  18
TORSDOF 4
ENDMDL
MODEL 9
REMARK VINA RESULT:      -8.7      2.567      4.065
REMARK  Name = 
REMARK  6 active torsions:
REMARK  status: ('A' for Active; 'I' for Inactive)
REMARK    1  A    between atoms: C_1  and  C_2
REMARK    2  A    between atoms: N_10  and  C_11
REMARK    3  A    between atoms: C_15  and  C_16
REMARK    4  A    between atoms: C_16  and  C_17
REMARK    5  A    between atoms: C_17  and  C_18
REMARK    6  A    between atoms: N_22  and  C_23
REMARK                            x       y       z     vdW  Elec       q    Type
REMARK                         _______ _______ _______ _____ _____    ______ ____
ROOT
ATOM      1  C   UNL     1       1.815   8.223  19.445  0.00  0.00    +0.000 A 
ATOM      2  C   UNL     1       2.426   8.674  18.270  0.00  0.00    +0.000 A 
ATOM      3  C   UNL     1       3.133   7.811  17.441  0.00  0.00    +0.000 A 
ATOM      4  C   UNL     1       3.222   6.464  17.764  0.00  0.00    +0.000 A 
ATOM      5  C   UNL     1       2.606   5.939  18.919  0.00  0.00    +0.000 A 
ATOM      6  C   UNL     1       1.947   6.862  19.768  0.00  0.00    +0.000 A 
ENDROOT
BRANCH   1  16
ATOM      7  C   UNL     1      -2.899  13.317  22.066  0.00  0.00    +0.000 C 
ATOM      8  C   UNL     1      -1.948  12.157  22.059  0.00  0.00    +0.000 A 
ATOM      9  C   UNL     1      -1.683  11.403  23.225  0.00  0.00    +0.000 A 
ATOM     10  C   UNL     1      -0.801  10.307  23.206  0.00  0.00    +0.000 A 
ATOM     11  C   UNL     1      -0.182   9.981  22.012  0.00  0.00    +0.000 A 
ATOM     12  C   UNL     1      -0.443  10.742  20.881  0.00  0.00    +0.000 A 
ATOM     13  C   UNL     1      -1.317  11.812  20.864  0.00  0.00    +0.000 A 
ATOM     14  C   UNL     1       0.331  10.211  19.767  0.00  0.00    +0.000 C 
ATOM     15  O   UNL     1       0.285  10.728  18.664  0.00  0.00    +0.000 OA
ATOM     16  N   UNL     1       1.037   9.104  20.243  0.00  0.00    +0.000 N 
ATOM     17  C   UNL     1       0.778   8.888  21.667  0.00  0.00    +0.000 C 
ENDBRANCH   1  16
BRANCH   5  18
ATOM     18  C   UNL     1       2.559   4.356  19.162  0.00  0.00    +0.000 C 
ATOM     19  C   UNL     1       1.769   3.573  18.067  0.00  0.00    +0.000 C 
ATOM     20  O   UNL     1       1.112   2.768  19.076  0.00  0.00    +0.000 OA
ATOM     21  C   UNL     1       1.446   3.769  20.077  0.00  0.00    +0.000 C 
BRANCH  18  22
ATOM     22  C   UNL     1       3.950   3.740  19.382  0.00  0.00    +0.000 C 
BRANCH  22  23
ATOM     23  C   UNL     1       4.882   3.903  18.229  0.00  0.00    +0.000 A 
ATOM     24  N   UNL     1       4.717   3.398  17.022  0.00  0.00    +0.000 NA
ATOM     25  N   UNL     1       5.736   3.852  16.220  0.00  0.00    +0.000 NA
ATOM     26  C   UNL     1       6.503   4.624  16.951  0.00  0.00    +0.000 A 
ATOM     27  N   UNL     1       6.019   4.670  18.223  0.00  0.00    +0.000 N 
ATOM     28  C   UNL     1       6.604   5.405  19.312  0.00  0.00    +0.000 C 
ENDBRANCH  22  23
ENDBRANCH  18  22
ENDBRANCH   5  18
TORSDOF 4
ENDMDL
