MODEL 1
REMARK VINA RESULT:      -8.7      0.000      0.000
REMARK  Name = 
REMARK  6 active torsions:
REMARK  status: ('A' for Active; 'I' for Inactive)
REMARK    1  A    between atoms: C_2  and  C_17
REMARK    2  A    between atoms: N_3  and  C_4
REMARK    3  A    between atoms: C_4  and  C_5
REMARK    4  A    between atoms: C_8  and  N_9
REMARK    5  A    between atoms: C_19  and  C_20
REMARK    6  A    between atoms: N_24  and  C_25
REMARK                            x       y       z     vdW  Elec       q    Type
REMARK                         _______ _______ _______ _____ _____    ______ ____
ROOT
ATOM      1  O   UNL     1       3.765   3.340  17.626  0.00  0.00    +0.000 OA
ATOM      2  C   UNL     1       4.322   4.365  17.240  0.00  0.00    +0.000 C 
ATOM      3  N   UNL     1       4.135   5.570  17.878  0.00  0.00    +0.000 N 
ATOM      4  H   UNL     1       4.594   6.399  17.528  0.00  0.00    +0.000 HD
ENDROOT
BRANCH   2   5
ATOM      5  C   UNL     1       5.199   4.411  16.101  0.00  0.00    +0.000 A 
ATOM      6  C   UNL     1       5.092   3.743  14.889  0.00  0.00    +0.000 A 
ATOM      7  C   UNL     1       6.137   4.238  14.098  0.00  0.00    +0.000 A 
ATOM      8  N   UNL     1       6.823   5.197  14.712  0.00  0.00    +0.000 NA
ATOM      9  N   UNL     1       6.319   5.230  15.978  0.00  0.00    +0.000 N 
BRANCH   9  10
ATOM     10  C   UNL     1       7.011   5.986  16.969  0.00  0.00    +0.000 A 
ATOM     11  C   UNL     1       7.473   5.338  18.124  0.00  0.00    +0.000 A 
ATOM     12  C   UNL     1       8.177   6.054  19.096  0.00  0.00    +0.000 A 
ATOM     13  C   UNL     1       8.395   7.421  18.938  0.00  0.00    +0.000 A 
ATOM     14  C   UNL     1       7.907   8.078  17.811  0.00  0.00    +0.000 A 
ATOM     15  C   UNL     1       7.211   7.365  16.832  0.00  0.00    +0.000 A 
ENDBRANCH   9  10
BRANCH   7  16
ATOM     16  C   UNL     1       6.440   3.730  12.698  0.00  0.00    +0.000 C 
ATOM     17  C   UNL     1       5.390   3.939  11.621  0.00  0.00    +0.000 C 
ATOM     18  C   UNL     1       5.643   2.568  12.144  0.00  0.00    +0.000 C 
ENDBRANCH   7  16
ENDBRANCH   2   5
BRANCH   3  19
ATOM     19  C   UNL     1       3.193   5.724  18.965  0.00  0.00    +0.000 C 
BRANCH  19  20
ATOM     20  C   UNL     1       2.488   7.055  18.951  0.00  0.00    +0.000 A 
ATOM     21  C   UNL     1       1.894   7.569  20.107  0.00  0.00    +0.000 A 
ATOM     22  C   UNL     1       1.293   8.837  20.102  0.00  0.00    +0.000 A 
ATOM     23  C   UNL     1       1.241   9.616  18.941  0.00  0.00    +0.000 A 
ATOM     24  C   UNL     1       1.836   9.091  17.786  0.00  0.00    +0.000 A 
ATOM     25  C   UNL     1       2.460   7.841  17.796  0.00  0.00    +0.000 A 
BRANCH  23  26
ATOM     26  N   UNL     1       0.601  10.884  18.908  0.00  0.00    +0.000 N 
ATOM     27  C   UNL     1       1.336  12.121  19.044  0.00  0.00    +0.000 C 
ATOM     28  C   UNL     1       0.273  13.186  19.200  0.00  0.00    +0.000 C 
ATOM     29  C   UNL     1      -0.910  12.628  18.437  0.00  0.00    +0.000 C 
ATOM     30  C   UNL     1      -0.733  11.132  18.553  0.00  0.00    +0.000 C 
ATOM     31  O   UNL     1      -1.635  10.341  18.325  0.00  0.00    +0.000 OA
ENDBRANCH  23  26
ENDBRANCH  19  20
ENDBRANCH   3  19
TORSDOF 6
ENDMDL
MODEL 2
REMARK VINA RESULT:      -8.6      2.680      4.961
REMARK  Name = 
REMARK  6 active torsions:
REMARK  status: ('A' for Active; 'I' for Inactive)
REMARK    1  A    between atoms: C_2  and  C_17
REMARK    2  A    between atoms: N_3  and  C_4
REMARK    3  A    between atoms: C_4  and  C_5
REMARK    4  A    between atoms: C_8  and  N_9
REMARK    5  A    between atoms: C_19  and  C_20
REMARK    6  A    between atoms: N_24  and  C_25
REMARK                            x       y       z     vdW  Elec       q    Type
REMARK                         _______ _______ _______ _____ _____    ______ ____
ROOT
ATOM      1  O   UNL     1       4.414   7.554  17.554  0.00  0.00    +0.000 OA
ATOM      2  C   UNL     1       3.452   6.934  17.999  0.00  0.00    +0.000 C 
ATOM      3  N   UNL     1       2.188   7.480  18.016  0.00  0.00    +0.000 N 
ATOM      4  H   UNL     1       1.419   6.953  18.403  0.00  0.00    +0.000 HD
ENDROOT
BRANCH   2   5
ATOM      5  C   UNL     1       3.546   5.606  18.545  0.00  0.00    +0.000 A 
ATOM      6  C   UNL     1       2.935   5.082  19.676  0.00  0.00    +0.000 A 
ATOM      7  C   UNL     1       3.267   3.721  19.680  0.00  0.00    +0.000 A 
ATOM      8  N   UNL     1       3.970   3.370  18.608  0.00  0.00    +0.000 NA
ATOM      9  N   UNL     1       4.235   4.543  17.966  0.00  0.00    +0.000 N 
BRANCH   9  10
ATOM     10  C   UNL     1       5.187   4.541  16.905  0.00  0.00    +0.000 A 
ATOM     11  C   UNL     1       4.746   4.317  15.592  0.00  0.00    +0.000 A 
ATOM     12  C   UNL     1       5.658   4.337  14.533  0.00  0.00    +0.000 A 
ATOM     13  C   UNL     1       7.013   4.547  14.781  0.00  0.00    +0.000 A 
ATOM     14  C   UNL     1       7.462   4.733  16.085  0.00  0.00    +0.000 A 
ATOM     15  C   UNL     1       6.554   4.723  17.146  0.00  0.00    +0.000 A 
ENDBRANCH   9  10
BRANCH   7  16
ATOM     16  C   UNL     1       2.858   2.764  20.788  0.00  0.00    +0.000 C 
ATOM     17  C   UNL     1       1.389   2.399  20.910  0.00  0.00    +0.000 C 
ATOM     18  C   UNL     1       2.015   3.278  21.937  0.00  0.00    +0.000 C 
ENDBRANCH   7  16
ENDBRANCH   2   5
BRANCH   3  19
ATOM     19  C   UNL     1       1.939   8.848  17.616  0.00  0.00    +0.000 C 
BRANCH  19  20
ATOM     20  C   UNL     1       1.069   9.598  18.589  0.00  0.00    +0.000 A 
ATOM     21  C   UNL     1      -0.187  10.081  18.210  0.00  0.00    +0.000 A 
ATOM     22  C   UNL     1      -1.019  10.725  19.139  0.00  0.00    +0.000 A 
ATOM     23  C   UNL     1      -0.614  10.930  20.462  0.00  0.00    +0.000 A 
ATOM     24  C   UNL     1       0.647  10.447  20.832  0.00  0.00    +0.000 A 
ATOM     25  C   UNL     1       1.466   9.780  19.916  0.00  0.00    +0.000 A 
BRANCH  23  26
ATOM     26  N   UNL     1      -1.426  11.616  21.405  0.00  0.00    +0.000 N 
ATOM     27  C   UNL     1      -2.453  12.550  21.002  0.00  0.00    +0.000 C 
ATOM     28  C   UNL     1      -2.891  13.219  22.286  0.00  0.00    +0.000 C 
ATOM     29  C   UNL     1      -2.647  12.162  23.343  0.00  0.00    +0.000 C 
ATOM     30  C   UNL     1      -1.499  11.357  22.782  0.00  0.00    +0.000 C 
ATOM     31  O   UNL     1      -0.822  10.606  23.467  0.00  0.00    +0.000 OA
ENDBRANCH  23  26
ENDBRANCH  19  20
ENDBRANCH   3  19
TORSDOF 6
ENDMDL
MODEL 3
REMARK VINA RESULT:      -8.6      4.040      6.340
REMARK  Name = 
REMARK  6 active torsions:
REMARK  status: ('A' for Active; 'I' for Inactive)
REMARK    1  A    between atoms: C_2  and  C_17
REMARK    2  A    between atoms: N_3  and  C_4
REMARK    3  A    between atoms: C_4  and  C_5
REMARK    4  A    between atoms: C_8  and  N_9
REMARK    5  A    between atoms: C_19  and  C_20
REMARK    6  A    between atoms: N_24  and  C_25
REMARK                            x       y       z     vdW  Elec       q    Type
REMARK                         _______ _______ _______ _____ _____    ______ ____
ROOT
ATOM      1  O   UNL     1       7.370   4.660  18.395  0.00  0.00    +0.000 OA
ATOM      2  C   UNL     1       7.207   5.394  17.424  0.00  0.00    +0.000 C 
ATOM      3  N   UNL     1       7.633   6.703  17.432  0.00  0.00    +0.000 N 
ATOM      4  H   UNL     1       7.471   7.288  16.625  0.00  0.00    +0.000 HD
ENDROOT
BRANCH   2   5
ATOM      5  C   UNL     1       6.560   4.974  16.210  0.00  0.00    +0.000 A 
ATOM      6  C   UNL     1       7.096   4.840  14.937  0.00  0.00    +0.000 A 
ATOM      7  C   UNL     1       6.071   4.286  14.159  0.00  0.00    +0.000 A 
ATOM      8  N   UNL     1       4.985   4.013  14.875  0.00  0.00    +0.000 NA
ATOM      9  N   UNL     1       5.242   4.533  16.109  0.00  0.00    +0.000 N 
BRANCH   9  10
ATOM     10  C   UNL     1       4.173   4.626  17.047  0.00  0.00    +0.000 A 
ATOM     11  C   UNL     1       3.661   3.452  17.619  0.00  0.00    +0.000 A 
ATOM     12  C   UNL     1       2.631   3.522  18.561  0.00  0.00    +0.000 A 
ATOM     13  C   UNL     1       2.086   4.755  18.911  0.00  0.00    +0.000 A 
ATOM     14  C   UNL     1       2.565   5.921  18.320  0.00  0.00    +0.000 A 
ATOM     15  C   UNL     1       3.601   5.858  17.385  0.00  0.00    +0.000 A 
ENDBRANCH   9  10
BRANCH   7  16
ATOM     16  C   UNL     1       6.201   4.027  12.666  0.00  0.00    +0.000 C 
ATOM     17  C   UNL     1       4.969   3.555  11.915  0.00  0.00    +0.000 C 
ATOM     18  C   UNL     1       6.094   2.607  12.149  0.00  0.00    +0.000 C 
ENDBRANCH   7  16
ENDBRANCH   2   5
BRANCH   3  19
ATOM     19  C   UNL     1       8.194   7.320  18.614  0.00  0.00    +0.000 C 
BRANCH  19  20
ATOM     20  C   UNL     1       8.461   8.792  18.443  0.00  0.00    +0.000 A 
ATOM     21  C   UNL     1       7.766   9.545  17.492  0.00  0.00    +0.000 A 
ATOM     22  C   UNL     1       7.974  10.928  17.379  0.00  0.00    +0.000 A 
ATOM     23  C   UNL     1       8.899  11.595  18.190  0.00  0.00    +0.000 A 
ATOM     24  C   UNL     1       9.593  10.833  19.138  0.00  0.00    +0.000 A 
ATOM     25  C   UNL     1       9.366   9.460  19.271  0.00  0.00    +0.000 A 
BRANCH  23  26
ATOM     26  N   UNL     1       9.152  12.988  18.063  0.00  0.00    +0.000 N 
ATOM     27  C   UNL     1       8.345  13.981  18.734  0.00  0.00    +0.000 C 
ATOM     28  C   UNL     1       8.788  15.302  18.143  0.00  0.00    +0.000 C 
ATOM     29  C   UNL     1      10.234  15.058  17.762  0.00  0.00    +0.000 C 
ATOM     30  C   UNL     1      10.279  13.576  17.470  0.00  0.00    +0.000 C 
ATOM     31  O   UNL     1      11.191  13.053  16.850  0.00  0.00    +0.000 OA
ENDBRANCH  23  26
ENDBRANCH  19  20
ENDBRANCH   3  19
TORSDOF 6
ENDMDL
MODEL 4
REMARK VINA RESULT:      -8.5      0.251      1.266
REMARK  Name = 
REMARK  6 active torsions:
REMARK  status: ('A' for Active; 'I' for Inactive)
REMARK    1  A    between atoms: C_2  and  C_17
REMARK    2  A    between atoms: N_3  and  C_4
REMARK    3  A    between atoms: C_4  and  C_5
REMARK    4  A    between atoms: C_8  and  N_9
REMARK    5  A    between atoms: C_19  and  C_20
REMARK    6  A    between atoms: N_24  and  C_25
REMARK                            x       y       z     vdW  Elec       q    Type
REMARK                         _______ _______ _______ _____ _____    ______ ____
ROOT
ATOM      1  O   UNL     1       3.268   3.626  17.248  0.00  0.00    +0.000 OA
ATOM      2  C   UNL     1       4.125   4.492  17.088  0.00  0.00    +0.000 C 
ATOM      3  N   UNL     1       4.257   5.545  17.964  0.00  0.00    +0.000 N 
ATOM      4  H   UNL     1       4.960   6.250  17.798  0.00  0.00    +0.000 HD
ENDROOT
BRANCH   2   5
ATOM      5  C   UNL     1       5.052   4.498  15.988  0.00  0.00    +0.000 A 
ATOM      6  C   UNL     1       4.929   3.905  14.739  0.00  0.00    +0.000 A 
ATOM      7  C   UNL     1       6.054   4.322  14.017  0.00  0.00    +0.000 A 
ATOM      8  N   UNL     1       6.809   5.172  14.706  0.00  0.00    +0.000 NA
ATOM      9  N   UNL     1       6.256   5.198  15.952  0.00  0.00    +0.000 N 
BRANCH   9  10
ATOM     10  C   UNL     1       6.979   5.828  17.007  0.00  0.00    +0.000 A 
ATOM     11  C   UNL     1       7.235   7.206  16.933  0.00  0.00    +0.000 A 
ATOM     12  C   UNL     1       7.918   7.848  17.968  0.00  0.00    +0.000 A 
ATOM     13  C   UNL     1       8.376   7.119  19.063  0.00  0.00    +0.000 A 
ATOM     14  C   UNL     1       8.158   5.746  19.126  0.00  0.00    +0.000 A 
ATOM     15  C   UNL     1       7.467   5.099  18.098  0.00  0.00    +0.000 A 
ENDBRANCH   9  10
BRANCH   7  16
ATOM     16  C   UNL     1       6.363   3.852  12.605  0.00  0.00    +0.000 C 
ATOM     17  C   UNL     1       5.197   3.498  11.699  0.00  0.00    +0.000 C 
ATOM     18  C   UNL     1       6.075   2.415  12.223  0.00  0.00    +0.000 C 
ENDBRANCH   7  16
ENDBRANCH   2   5
BRANCH   3  19
ATOM     19  C   UNL     1       3.330   5.755  19.055  0.00  0.00    +0.000 C 
BRANCH  19  20
ATOM     20  C   UNL     1       2.640   7.092  18.995  0.00  0.00    +0.000 A 
ATOM     21  C   UNL     1       2.638   7.850  17.820  0.00  0.00    +0.000 A 
ATOM     22  C   UNL     1       1.940   9.066  17.752  0.00  0.00    +0.000 A 
ATOM     23  C   UNL     1       1.248   9.574  18.857  0.00  0.00    +0.000 A 
ATOM     24  C   UNL     1       1.258   8.809  20.030  0.00  0.00    +0.000 A 
ATOM     25  C   UNL     1       1.928   7.584  20.092  0.00  0.00    +0.000 A 
BRANCH  23  26
ATOM     26  N   UNL     1       0.570  10.822  18.817  0.00  0.00    +0.000 N 
ATOM     27  C   UNL     1       1.275  12.083  18.857  0.00  0.00    +0.000 C 
ATOM     28  C   UNL     1       0.194  13.124  19.042  0.00  0.00    +0.000 C 
ATOM     29  C   UNL     1      -1.020  12.504  18.381  0.00  0.00    +0.000 C 
ATOM     30  C   UNL     1      -0.791  11.019  18.542  0.00  0.00    +0.000 C 
ATOM     31  O   UNL     1      -1.682  10.195  18.405  0.00  0.00    +0.000 OA
ENDBRANCH  23  26
ENDBRANCH  19  20
ENDBRANCH   3  19
TORSDOF 6
ENDMDL
MODEL 5
REMARK VINA RESULT:      -8.5      4.154      6.402
REMARK  Name = 
REMARK  6 active torsions:
REMARK  status: ('A' for Active; 'I' for Inactive)
REMARK    1  A    between atoms: C_2  and  C_17
REMARK    2  A    between atoms: N_3  and  C_4
REMARK    3  A    between atoms: C_4  and  C_5
REMARK    4  A    between atoms: C_8  and  N_9
REMARK    5  A    between atoms: C_19  and  C_20
REMARK    6  A    between atoms: N_24  and  C_25
REMARK                            x       y       z     vdW  Elec       q    Type
REMARK                         _______ _______ _______ _____ _____    ______ ____
ROOT
ATOM      1  O   UNL     1       7.613   4.855  18.754  0.00  0.00    +0.000 OA
ATOM      2  C   UNL     1       7.395   5.545  17.761  0.00  0.00    +0.000 C 
ATOM      3  N   UNL     1       7.769   6.869  17.708  0.00  0.00    +0.000 N 
ATOM      4  H   UNL     1       7.563   7.415  16.885  0.00  0.00    +0.000 HD
ENDROOT
BRANCH   2   5
ATOM      5  C   UNL     1       6.733   5.054  16.582  0.00  0.00    +0.000 A 
ATOM      6  C   UNL     1       7.283   4.446  15.462  0.00  0.00    +0.000 A 
ATOM      7  C   UNL     1       6.190   4.058  14.675  0.00  0.00    +0.000 A 
ATOM      8  N   UNL     1       5.027   4.321  15.263  0.00  0.00    +0.000 NA
ATOM      9  N   UNL     1       5.355   5.029  16.382  0.00  0.00    +0.000 N 
BRANCH   9  10
ATOM     10  C   UNL     1       4.314   5.679  17.108  0.00  0.00    +0.000 A 
ATOM     11  C   UNL     1       4.249   7.081  17.102  0.00  0.00    +0.000 A 
ATOM     12  C   UNL     1       3.222   7.737  17.784  0.00  0.00    +0.000 A 
ATOM     13  C   UNL     1       2.278   7.006  18.501  0.00  0.00    +0.000 A 
ATOM     14  C   UNL     1       2.358   5.616  18.542  0.00  0.00    +0.000 A 
ATOM     15  C   UNL     1       3.377   4.953  17.854  0.00  0.00    +0.000 A 
ENDBRANCH   9  10
BRANCH   7  16
ATOM     16  C   UNL     1       6.332   3.407  13.309  0.00  0.00    +0.000 C 
ATOM     17  C   UNL     1       6.669   4.296  12.126  0.00  0.00    +0.000 C 
ATOM     18  C   UNL     1       5.306   3.706  12.237  0.00  0.00    +0.000 C 
ENDBRANCH   7  16
ENDBRANCH   2   5
BRANCH   3  19
ATOM     19  C   UNL     1       8.337   7.551  18.850  0.00  0.00    +0.000 C 
BRANCH  19  20
ATOM     20  C   UNL     1       8.582   9.016  18.601  0.00  0.00    +0.000 A 
ATOM     21  C   UNL     1       7.899   9.700  17.591  0.00  0.00    +0.000 A 
ATOM     22  C   UNL     1       8.086  11.078  17.404  0.00  0.00    +0.000 A 
ATOM     23  C   UNL     1       8.976  11.808  18.199  0.00  0.00    +0.000 A 
ATOM     24  C   UNL     1       9.657  11.115  19.207  0.00  0.00    +0.000 A 
ATOM     25  C   UNL     1       9.452   9.748  19.413  0.00  0.00    +0.000 A 
BRANCH  23  26
ATOM     26  N   UNL     1       9.207  13.197  17.998  0.00  0.00    +0.000 N 
ATOM     27  C   UNL     1       8.337  14.209  18.551  0.00  0.00    +0.000 C 
ATOM     28  C   UNL     1       8.789  15.501  17.905  0.00  0.00    +0.000 C 
ATOM     29  C   UNL     1      10.262  15.270  17.634  0.00  0.00    +0.000 C 
ATOM     30  C   UNL     1      10.358  13.774  17.442  0.00  0.00    +0.000 C 
ATOM     31  O   UNL     1      11.320  13.236  16.917  0.00  0.00    +0.000 OA
ENDBRANCH  23  26
ENDBRANCH  19  20
ENDBRANCH   3  19
TORSDOF 6
ENDMDL
MODEL 6
REMARK VINA RESULT:      -8.5      2.799      5.417
REMARK  Name = 
REMARK  6 active torsions:
REMARK  status: ('A' for Active; 'I' for Inactive)
REMARK    1  A    between atoms: C_2  and  C_17
REMARK    2  A    between atoms: N_3  and  C_4
REMARK    3  A    between atoms: C_4  and  C_5
REMARK    4  A    between atoms: C_8  and  N_9
REMARK    5  A    between atoms: C_19  and  C_20
REMARK    6  A    between atoms: N_24  and  C_25
REMARK                            x       y       z     vdW  Elec       q    Type
REMARK                         _______ _______ _______ _____ _____    ______ ____
ROOT
ATOM      1  O   UNL     1       3.164   8.003  17.131  0.00  0.00    +0.000 OA
ATOM      2  C   UNL     1       2.605   7.760  18.198  0.00  0.00    +0.000 C 
ATOM      3  N   UNL     1       1.741   8.660  18.779  0.00  0.00    +0.000 N 
ATOM      4  H   UNL     1       1.309   8.439  19.665  0.00  0.00    +0.000 HD
ENDROOT
BRANCH   2   5
ATOM      5  C   UNL     1       2.800   6.541  18.937  0.00  0.00    +0.000 A 
ATOM      6  C   UNL     1       2.115   6.077  20.051  0.00  0.00    +0.000 A 
ATOM      7  C   UNL     1       2.621   4.793  20.290  0.00  0.00    +0.000 A 
ATOM      8  N   UNL     1       3.506   4.420  19.371  0.00  0.00    +0.000 NA
ATOM      9  N   UNL     1       3.698   5.530  18.602  0.00  0.00    +0.000 N 
BRANCH   9  10
ATOM     10  C   UNL     1       4.778   5.538  17.672  0.00  0.00    +0.000 A 
ATOM     11  C   UNL     1       4.620   4.896  16.434  0.00  0.00    +0.000 A 
ATOM     12  C   UNL     1       5.656   4.915  15.498  0.00  0.00    +0.000 A 
ATOM     13  C   UNL     1       6.863   5.543  15.800  0.00  0.00    +0.000 A 
ATOM     14  C   UNL     1       7.040   6.149  17.041  0.00  0.00    +0.000 A 
ATOM     15  C   UNL     1       6.004   6.142  17.978  0.00  0.00    +0.000 A 
ENDBRANCH   9  10
BRANCH   7  16
ATOM     16  C   UNL     1       2.196   3.932  21.469  0.00  0.00    +0.000 C 
ATOM     17  C   UNL     1       2.686   2.496  21.516  0.00  0.00    +0.000 C 
ATOM     18  C   UNL     1       1.250   2.773  21.235  0.00  0.00    +0.000 C 
ENDBRANCH   7  16
ENDBRANCH   2   5
BRANCH   3  19
ATOM     19  C   UNL     1       1.526   9.981  18.231  0.00  0.00    +0.000 C 
BRANCH  19  20
ATOM     20  C   UNL     1       0.085  10.416  18.287  0.00  0.00    +0.000 A 
ATOM     21  C   UNL     1      -0.311  11.500  19.077  0.00  0.00    +0.000 A 
ATOM     22  C   UNL     1      -1.643  11.939  19.076  0.00  0.00    +0.000 A 
ATOM     23  C   UNL     1      -2.624  11.296  18.312  0.00  0.00    +0.000 A 
ATOM     24  C   UNL     1      -2.219  10.210  17.526  0.00  0.00    +0.000 A 
ATOM     25  C   UNL     1      -0.886   9.789  17.503  0.00  0.00    +0.000 A 
BRANCH  23  26
ATOM     26  N   UNL     1      -3.986  11.703  18.331  0.00  0.00    +0.000 N 
ATOM     27  C   UNL     1      -4.901  11.376  17.261  0.00  0.00    +0.000 C 
ATOM     28  C   UNL     1      -6.142  12.191  17.553  0.00  0.00    +0.000 C 
ATOM     29  C   UNL     1      -6.135  12.327  19.062  0.00  0.00    +0.000 C 
ATOM     30  C   UNL     1      -4.668  12.270  19.417  0.00  0.00    +0.000 C 
ATOM     31  O   UNL     1      -4.235  12.640  20.497  0.00  0.00    +0.000 OA
ENDBRANCH  23  26
ENDBRANCH  19  20
ENDBRANCH   3  19
TORSDOF 6
ENDMDL
MODEL 7
REMARK VINA RESULT:      -8.5      3.032      5.152
REMARK  Name = 
REMARK  6 active torsions:
REMARK  status: ('A' for Active; 'I' for Inactive)
REMARK    1  A    between atoms: C_2  and  C_17
REMARK    2  A    between atoms: N_3  and  C_4
REMARK    3  A    between atoms: C_4  and  C_5
REMARK    4  A    between atoms: C_8  and  N_9
REMARK    5  A    between atoms: C_19  and  C_20
REMARK    6  A    between atoms: N_24  and  C_25
REMARK                            x       y       z     vdW  Elec       q    Type
REMARK                         _______ _______ _______ _____ _____    ______ ____
ROOT
ATOM      1  O   UNL     1       2.102   7.736  19.896  0.00  0.00    +0.000 OA
ATOM      2  C   UNL     1       2.365   7.743  18.696  0.00  0.00    +0.000 C 
ATOM      3  N   UNL     1       1.782   8.647  17.837  0.00  0.00    +0.000 N 
ATOM      4  H   UNL     1       2.006   8.618  16.852  0.00  0.00    +0.000 HD
ENDROOT
BRANCH   2   5
ATOM      5  C   UNL     1       3.283   6.823  18.079  0.00  0.00    +0.000 A 
ATOM      6  C   UNL     1       4.235   7.066  17.099  0.00  0.00    +0.000 A 
ATOM      7  C   UNL     1       4.931   5.859  16.950  0.00  0.00    +0.000 A 
ATOM      8  N   UNL     1       4.521   4.931  17.808  0.00  0.00    +0.000 NA
ATOM      9  N   UNL     1       3.438   5.483  18.427  0.00  0.00    +0.000 N 
BRANCH   9  10
ATOM     10  C   UNL     1       2.613   4.647  19.234  0.00  0.00    +0.000 A 
ATOM     11  C   UNL     1       2.891   4.529  20.604  0.00  0.00    +0.000 A 
ATOM     12  C   UNL     1       2.078   3.736  21.418  0.00  0.00    +0.000 A 
ATOM     13  C   UNL     1       1.008   3.034  20.868  0.00  0.00    +0.000 A 
ATOM     14  C   UNL     1       0.749   3.118  19.503  0.00  0.00    +0.000 A 
ATOM     15  C   UNL     1       1.552   3.916  18.685  0.00  0.00    +0.000 A 
ENDBRANCH   9  10
BRANCH   7  16
ATOM     16  C   UNL     1       6.032   5.650  15.923  0.00  0.00    +0.000 C 
ATOM     17  C   UNL     1       5.692   4.879  14.660  0.00  0.00    +0.000 C 
ATOM     18  C   UNL     1       6.569   4.254  15.688  0.00  0.00    +0.000 C 
ENDBRANCH   7  16
ENDBRANCH   2   5
BRANCH   3  19
ATOM     19  C   UNL     1       0.749   9.561  18.271  0.00  0.00    +0.000 C 
BRANCH  19  20
ATOM     20  C   UNL     1       1.293  10.879  18.756  0.00  0.00    +0.000 A 
ATOM     21  C   UNL     1       0.977  11.365  20.028  0.00  0.00    +0.000 A 
ATOM     22  C   UNL     1       1.537  12.563  20.498  0.00  0.00    +0.000 A 
ATOM     23  C   UNL     1       2.405  13.324  19.706  0.00  0.00    +0.000 A 
ATOM     24  C   UNL     1       2.713  12.830  18.432  0.00  0.00    +0.000 A 
ATOM     25  C   UNL     1       2.180  11.623  17.973  0.00  0.00    +0.000 A 
BRANCH  23  26
ATOM     26  N   UNL     1       2.949  14.559  20.151  0.00  0.00    +0.000 N 
ATOM     27  C   UNL     1       2.649  15.812  19.495  0.00  0.00    +0.000 C 
ATOM     28  C   UNL     1       3.605  16.809  20.115  0.00  0.00    +0.000 C 
ATOM     29  C   UNL     1       3.838  16.265  21.509  0.00  0.00    +0.000 C 
ATOM     30  C   UNL     1       3.653  14.774  21.344  0.00  0.00    +0.000 C 
ATOM     31  O   UNL     1       4.046  13.965  22.170  0.00  0.00    +0.000 OA
ENDBRANCH  23  26
ENDBRANCH  19  20
ENDBRANCH   3  19
TORSDOF 6
ENDMDL
MODEL 8
REMARK VINA RESULT:      -8.5      2.726      5.383
REMARK  Name = 
REMARK  6 active torsions:
REMARK  status: ('A' for Active; 'I' for Inactive)
REMARK    1  A    between atoms: C_2  and  C_17
REMARK    2  A    between atoms: N_3  and  C_4
REMARK    3  A    between atoms: C_4  and  C_5
REMARK    4  A    between atoms: C_8  and  N_9
REMARK    5  A    between atoms: C_19  and  C_20
REMARK    6  A    between atoms: N_24  and  C_25
REMARK                            x       y       z     vdW  Elec       q    Type
REMARK                         _______ _______ _______ _____ _____    ______ ____
ROOT
ATOM      1  O   UNL     1       2.861   7.865  17.042  0.00  0.00    +0.000 OA
ATOM      2  C   UNL     1       2.509   7.717  18.210  0.00  0.00    +0.000 C 
ATOM      3  N   UNL     1       1.877   8.722  18.905  0.00  0.00    +0.000 N 
ATOM      4  H   UNL     1       1.614   8.577  19.869  0.00  0.00    +0.000 HD
ENDROOT
BRANCH   2   5
ATOM      5  C   UNL     1       2.725   6.506  18.956  0.00  0.00    +0.000 A 
ATOM      6  C   UNL     1       2.051   6.039  20.076  0.00  0.00    +0.000 A 
ATOM      7  C   UNL     1       2.578   4.764  20.322  0.00  0.00    +0.000 A 
ATOM      8  N   UNL     1       3.465   4.399  19.402  0.00  0.00    +0.000 NA
ATOM      9  N   UNL     1       3.637   5.506  18.624  0.00  0.00    +0.000 N 
BRANCH   9  10
ATOM     10  C   UNL     1       4.714   5.524  17.691  0.00  0.00    +0.000 A 
ATOM     11  C   UNL     1       4.603   4.783  16.505  0.00  0.00    +0.000 A 
ATOM     12  C   UNL     1       5.635   4.808  15.563  0.00  0.00    +0.000 A 
ATOM     13  C   UNL     1       6.792   5.543  15.813  0.00  0.00    +0.000 A 
ATOM     14  C   UNL     1       6.924   6.251  17.004  0.00  0.00    +0.000 A 
ATOM     15  C   UNL     1       5.892   6.237  17.945  0.00  0.00    +0.000 A 
ENDBRANCH   9  10
BRANCH   7  16
ATOM     16  C   UNL     1       2.170   3.905  21.508  0.00  0.00    +0.000 C 
ATOM     17  C   UNL     1       2.713   2.489  21.583  0.00  0.00    +0.000 C 
ATOM     18  C   UNL     1       1.271   2.708  21.280  0.00  0.00    +0.000 C 
ENDBRANCH   7  16
ENDBRANCH   2   5
BRANCH   3  19
ATOM     19  C   UNL     1       1.690  10.042  18.344  0.00  0.00    +0.000 C 
BRANCH  19  20
ATOM     20  C   UNL     1       0.248  10.477  18.325  0.00  0.00    +0.000 A 
ATOM     21  C   UNL     1      -0.732   9.699  17.703  0.00  0.00    +0.000 A 
ATOM     22  C   UNL     1      -2.082  10.079  17.743  0.00  0.00    +0.000 A 
ATOM     23  C   UNL     1      -2.491  11.256  18.380  0.00  0.00    +0.000 A 
ATOM     24  C   UNL     1      -1.502  12.031  18.998  0.00  0.00    +0.000 A 
ATOM     25  C   UNL     1      -0.160  11.640  18.984  0.00  0.00    +0.000 A 
BRANCH  23  26
ATOM     26  N   UNL     1      -3.849  11.676  18.395  0.00  0.00    +0.000 N 
ATOM     27  C   UNL     1      -4.431  12.354  19.531  0.00  0.00    +0.000 C 
ATOM     28  C   UNL     1      -5.915  12.395  19.237  0.00  0.00    +0.000 C 
ATOM     29  C   UNL     1      -5.980  12.418  17.723  0.00  0.00    +0.000 C 
ATOM     30  C   UNL     1      -4.728  11.686  17.303  0.00  0.00    +0.000 C 
ATOM     31  O   UNL     1      -4.571  11.240  16.177  0.00  0.00    +0.000 OA
ENDBRANCH  23  26
ENDBRANCH  19  20
ENDBRANCH   3  19
TORSDOF 6
ENDMDL
MODEL 9
REMARK VINA RESULT:      -8.5      2.946      5.135
REMARK  Name = 
REMARK  6 active torsions:
REMARK  status: ('A' for Active; 'I' for Inactive)
REMARK    1  A    between atoms: C_2  and  C_17
REMARK    2  A    between atoms: N_3  and  C_4
REMARK    3  A    between atoms: C_4  and  C_5
REMARK    4  A    between atoms: C_8  and  N_9
REMARK    5  A    between atoms: C_19  and  C_20
REMARK    6  A    between atoms: N_24  and  C_25
REMARK                            x       y       z     vdW  Elec       q    Type
REMARK                         _______ _______ _______ _____ _____    ______ ____
ROOT
ATOM      1  O   UNL     1       2.147   7.652  19.917  0.00  0.00    +0.000 OA
ATOM      2  C   UNL     1       2.393   7.689  18.713  0.00  0.00    +0.000 C 
ATOM      3  N   UNL     1       1.819   8.631  17.890  0.00  0.00    +0.000 N 
ATOM      4  H   UNL     1       2.028   8.627  16.902  0.00  0.00    +0.000 HD
ENDROOT
BRANCH   2   5
ATOM      5  C   UNL     1       3.280   6.767  18.055  0.00  0.00    +0.000 A 
ATOM      6  C   UNL     1       4.198   7.011  17.043  0.00  0.00    +0.000 A 
ATOM      7  C   UNL     1       4.878   5.800  16.859  0.00  0.00    +0.000 A 
ATOM      8  N   UNL     1       4.490   4.867  17.723  0.00  0.00    +0.000 NA
ATOM      9  N   UNL     1       3.436   5.423  18.386  0.00  0.00    +0.000 N 
BRANCH   9  10
ATOM     10  C   UNL     1       2.632   4.587  19.214  0.00  0.00    +0.000 A 
ATOM     11  C   UNL     1       2.976   4.430  20.566  0.00  0.00    +0.000 A 
ATOM     12  C   UNL     1       2.187   3.636  21.402  0.00  0.00    +0.000 A 
ATOM     13  C   UNL     1       1.075   2.971  20.891  0.00  0.00    +0.000 A 
ATOM     14  C   UNL     1       0.749   3.093  19.543  0.00  0.00    +0.000 A 
ATOM     15  C   UNL     1       1.529   3.892  18.704  0.00  0.00    +0.000 A 
ENDBRANCH   9  10
BRANCH   7  16
ATOM     16  C   UNL     1       5.939   5.590  15.791  0.00  0.00    +0.000 C 
ATOM     17  C   UNL     1       5.620   4.648  14.644  0.00  0.00    +0.000 C 
ATOM     18  C   UNL     1       6.615   4.240  15.674  0.00  0.00    +0.000 C 
ENDBRANCH   7  16
ENDBRANCH   2   5
BRANCH   3  19
ATOM     19  C   UNL     1       0.814   9.556  18.367  0.00  0.00    +0.000 C 
BRANCH  19  20
ATOM     20  C   UNL     1       1.381  10.899  18.746  0.00  0.00    +0.000 A 
ATOM     21  C   UNL     1       2.288  11.560  17.914  0.00  0.00    +0.000 A 
ATOM     22  C   UNL     1       2.764  12.839  18.243  0.00  0.00    +0.000 A 
ATOM     23  C   UNL     1       2.371  13.483  19.422  0.00  0.00    +0.000 A 
ATOM     24  C   UNL     1       1.464  12.812  20.251  0.00  0.00    +0.000 A 
ATOM     25  C   UNL     1       0.967  11.551  19.911  0.00  0.00    +0.000 A 
BRANCH  23  26
ATOM     26  N   UNL     1       2.874  14.760  19.791  0.00  0.00    +0.000 N 
ATOM     27  C   UNL     1       4.200  14.936  20.338  0.00  0.00    +0.000 C 
ATOM     28  C   UNL     1       4.234  16.373  20.811  0.00  0.00    +0.000 C 
ATOM     29  C   UNL     1       3.267  17.080  19.883  0.00  0.00    +0.000 C 
ATOM     30  C   UNL     1       2.281  15.999  19.507  0.00  0.00    +0.000 C 
ATOM     31  O   UNL     1       1.191  16.243  19.014  0.00  0.00    +0.000 OA
ENDBRANCH  23  26
ENDBRANCH  19  20
ENDBRANCH   3  19
TORSDOF 6
ENDMDL
