MODEL 1
REMARK VINA RESULT:      -8.0      0.000      0.000
REMARK  Name = 
REMARK  5 active torsions:
REMARK  status: ('A' for Active; 'I' for Inactive)
REMARK    1  A    between atoms: S_2  and  C_4
REMARK    2  A    between atoms: S_2  and  N_14
REMARK    3  A    between atoms: N_7  and  C_8
REMARK    4  A    between atoms: C_18  and  C_19
REMARK    5  A    between atoms: C_19  and  C_20
REMARK                            x       y       z     vdW  Elec       q    Type
REMARK                         _______ _______ _______ _____ _____    ______ ____
ROOT
ATOM      1  O   UNL     1       4.274   5.452  19.825  0.00  0.00    +0.000 OA
ATOM      2  S   UNL     1       2.831   5.371  19.845  0.00  0.00    +0.000 S 
ATOM      3  O   UNL     1       2.099   5.017  21.042  0.00  0.00    +0.000 OA
ENDROOT
BRANCH   2   4
ATOM      4  C   UNL     1       2.334   6.971  19.482  0.00  0.00    +0.000 A 
ATOM      5  C   UNL     1       2.458   7.616  18.242  0.00  0.00    +0.000 A 
ATOM      6  N   UNL     1       1.966   8.862  18.269  0.00  0.00    +0.000 NA
ATOM      7  N   UNL     1       1.540   9.019  19.540  0.00  0.00    +0.000 N 
ATOM      8  C   UNL     1       1.700   7.881  20.296  0.00  0.00    +0.000 A 
BRANCH   7   9
ATOM      9  C   UNL     1       0.948  10.271  19.997  0.00  0.00    +0.000 C 
ATOM     10  C   UNL     1      -0.510  10.205  20.420  0.00  0.00    +0.000 C 
ATOM     11  C   UNL     1      -1.242  10.322  19.099  0.00  0.00    +0.000 C 
ATOM     12  O   UNL     1      -0.429  11.149  18.250  0.00  0.00    +0.000 OA
ATOM     13  C   UNL     1       0.866  11.283  18.861  0.00  0.00    +0.000 C 
ENDBRANCH   7   9
ENDBRANCH   2   4
BRANCH   2  14
ATOM     14  N   UNL     1       2.351   4.311  18.583  0.00  0.00    +0.000 NA
ATOM     15  C   UNL     1       1.245   3.381  18.941  0.00  0.00    +0.000 C 
ATOM     16  C   UNL     1       1.936   2.067  19.254  0.00  0.00    +0.000 C 
ATOM     17  C   UNL     1       3.016   2.005  18.194  0.00  0.00    +0.000 C 
ATOM     18  C   UNL     1       3.487   3.458  18.046  0.00  0.00    +0.000 C 
BRANCH  18  19
ATOM     19  C   UNL     1       3.776   3.845  16.580  0.00  0.00    +0.000 C 
BRANCH  19  20
ATOM     20  C   UNL     1       5.273   3.887  16.210  0.00  0.00    +0.000 C 
ATOM     21  C   UNL     1       6.198   4.185  17.411  0.00  0.00    +0.000 C 
ATOM     22  C   UNL     1       6.941   5.459  16.976  0.00  0.00    +0.000 C 
ATOM     23  C   UNL     1       5.944   6.633  16.921  0.00  0.00    +0.000 C 
ATOM     24  C   UNL     1       5.175   6.378  15.617  0.00  0.00    +0.000 C 
ATOM     25  C   UNL     1       5.691   4.996  15.194  0.00  0.00    +0.000 C 
ATOM     26  C   UNL     1       7.186   5.167  15.498  0.00  0.00    +0.000 C 
ENDBRANCH  19  20
ENDBRANCH  18  19
ENDBRANCH   2  14
TORSDOF 5
ENDMDL
MODEL 2
REMARK VINA RESULT:      -7.6      0.632      1.134
REMARK  Name = 
REMARK  5 active torsions:
REMARK  status: ('A' for Active; 'I' for Inactive)
REMARK    1  A    between atoms: S_2  and  C_4
REMARK    2  A    between atoms: S_2  and  N_14
REMARK    3  A    between atoms: N_7  and  C_8
REMARK    4  A    between atoms: C_18  and  C_19
REMARK    5  A    between atoms: C_19  and  C_20
REMARK                            x       y       z     vdW  Elec       q    Type
REMARK                         _______ _______ _______ _____ _____    ______ ____
ROOT
ATOM      1  O   UNL     1       4.292   5.513  19.800  0.00  0.00    +0.000 OA
ATOM      2  S   UNL     1       2.874   5.288  19.967  0.00  0.00    +0.000 S 
ATOM      3  O   UNL     1       2.324   4.734  21.185  0.00  0.00    +0.000 OA
ENDROOT
BRANCH   2   4
ATOM      4  C   UNL     1       2.201   6.860  19.854  0.00  0.00    +0.000 A 
ATOM      5  C   UNL     1       1.579   7.572  20.890  0.00  0.00    +0.000 A 
ATOM      6  N   UNL     1       1.164   8.782  20.494  0.00  0.00    +0.000 NA
ATOM      7  N   UNL     1       1.509   8.838  19.191  0.00  0.00    +0.000 N 
ATOM      8  C   UNL     1       2.183   7.713  18.773  0.00  0.00    +0.000 A 
BRANCH   7   9
ATOM      9  C   UNL     1       1.207  10.004  18.369  0.00  0.00    +0.000 C 
ATOM     10  C   UNL     1       1.286  11.351  19.068  0.00  0.00    +0.000 C 
ATOM     11  C   UNL     1      -0.066  11.453  19.741  0.00  0.00    +0.000 C 
ATOM     12  O   UNL     1      -0.999  10.760  18.896  0.00  0.00    +0.000 OA
ATOM     13  C   UNL     1      -0.252  10.000  17.931  0.00  0.00    +0.000 C 
ENDBRANCH   7   9
ENDBRANCH   2   4
BRANCH   2  14
ATOM     14  N   UNL     1       2.340   4.328  18.648  0.00  0.00    +0.000 NA
ATOM     15  C   UNL     1       1.207   3.415  18.963  0.00  0.00    +0.000 C 
ATOM     16  C   UNL     1       1.855   2.061  19.179  0.00  0.00    +0.000 C 
ATOM     17  C   UNL     1       2.918   2.031  18.101  0.00  0.00    +0.000 C 
ATOM     18  C   UNL     1       3.438   3.473  18.039  0.00  0.00    +0.000 C 
BRANCH  18  19
ATOM     19  C   UNL     1       3.721   3.944  16.597  0.00  0.00    +0.000 C 
BRANCH  19  20
ATOM     20  C   UNL     1       5.212   3.933  16.198  0.00  0.00    +0.000 C 
ATOM     21  C   UNL     1       6.169   4.197  17.382  0.00  0.00    +0.000 C 
ATOM     22  C   UNL     1       6.948   5.445  16.933  0.00  0.00    +0.000 C 
ATOM     23  C   UNL     1       5.992   6.653  16.898  0.00  0.00    +0.000 C 
ATOM     24  C   UNL     1       5.190   6.427  15.608  0.00  0.00    +0.000 C 
ATOM     25  C   UNL     1       5.649   5.028  15.175  0.00  0.00    +0.000 C 
ATOM     26  C   UNL     1       7.155   5.146  15.450  0.00  0.00    +0.000 C 
ENDBRANCH  19  20
ENDBRANCH  18  19
ENDBRANCH   2  14
TORSDOF 5
ENDMDL
MODEL 3
REMARK VINA RESULT:      -7.6      0.819      1.207
REMARK  Name = 
REMARK  5 active torsions:
REMARK  status: ('A' for Active; 'I' for Inactive)
REMARK    1  A    between atoms: S_2  and  C_4
REMARK    2  A    between atoms: S_2  and  N_14
REMARK    3  A    between atoms: N_7  and  C_8
REMARK    4  A    between atoms: C_18  and  C_19
REMARK    5  A    between atoms: C_19  and  C_20
REMARK                            x       y       z     vdW  Elec       q    Type
REMARK                         _______ _______ _______ _____ _____    ______ ____
ROOT
ATOM      1  O   UNL     1       4.138   5.912  19.761  0.00  0.00    +0.000 OA
ATOM      2  S   UNL     1       2.695   5.843  19.695  0.00  0.00    +0.000 S 
ATOM      3  O   UNL     1       1.880   5.700  20.881  0.00  0.00    +0.000 OA
ENDROOT
BRANCH   2   4
ATOM      4  C   UNL     1       2.251   7.361  19.034  0.00  0.00    +0.000 A 
ATOM      5  C   UNL     1       2.771   7.941  17.867  0.00  0.00    +0.000 A 
ATOM      6  N   UNL     1       2.215   9.131  17.603  0.00  0.00    +0.000 NA
ATOM      7  N   UNL     1       1.345   9.319  18.617  0.00  0.00    +0.000 N 
ATOM      8  C   UNL     1       1.299   8.249  19.481  0.00  0.00    +0.000 A 
BRANCH   7   9
ATOM      9  C   UNL     1       0.538  10.530  18.716  0.00  0.00    +0.000 C 
ATOM     10  C   UNL     1       1.297  11.816  18.998  0.00  0.00    +0.000 C 
ATOM     11  C   UNL     1       1.458  11.780  20.503  0.00  0.00    +0.000 C 
ATOM     12  O   UNL     1       0.302  11.105  21.025  0.00  0.00    +0.000 OA
ATOM     13  C   UNL     1      -0.382  10.474  19.929  0.00  0.00    +0.000 C 
ENDBRANCH   7   9
ENDBRANCH   2   4
BRANCH   2  14
ATOM     14  N   UNL     1       2.283   4.587  18.600  0.00  0.00    +0.000 NA
ATOM     15  C   UNL     1       1.217   3.667  19.084  0.00  0.00    +0.000 C 
ATOM     16  C   UNL     1       1.965   2.449  19.592  0.00  0.00    +0.000 C 
ATOM     17  C   UNL     1       3.061   2.284  18.560  0.00  0.00    +0.000 C 
ATOM     18  C   UNL     1       3.465   3.720  18.202  0.00  0.00    +0.000 C 
BRANCH  18  19
ATOM     19  C   UNL     1       3.756   3.902  16.698  0.00  0.00    +0.000 C 
BRANCH  19  20
ATOM     20  C   UNL     1       5.253   3.868  16.323  0.00  0.00    +0.000 C 
ATOM     21  C   UNL     1       6.190   4.235  17.496  0.00  0.00    +0.000 C 
ATOM     22  C   UNL     1       6.969   5.447  16.957  0.00  0.00    +0.000 C 
ATOM     23  C   UNL     1       6.006   6.642  16.807  0.00  0.00    +0.000 C 
ATOM     24  C   UNL     1       5.226   6.305  15.529  0.00  0.00    +0.000 C 
ATOM     25  C   UNL     1       5.699   4.877  15.220  0.00  0.00    +0.000 C 
ATOM     26  C   UNL     1       7.200   5.028  15.507  0.00  0.00    +0.000 C 
ENDBRANCH  19  20
ENDBRANCH  18  19
ENDBRANCH   2  14
TORSDOF 5
ENDMDL
MODEL 4
REMARK VINA RESULT:      -7.4      0.579      1.214
REMARK  Name = 
REMARK  5 active torsions:
REMARK  status: ('A' for Active; 'I' for Inactive)
REMARK    1  A    between atoms: S_2  and  C_4
REMARK    2  A    between atoms: S_2  and  N_14
REMARK    3  A    between atoms: N_7  and  C_8
REMARK    4  A    between atoms: C_18  and  C_19
REMARK    5  A    between atoms: C_19  and  C_20
REMARK                            x       y       z     vdW  Elec       q    Type
REMARK                         _______ _______ _______ _____ _____    ______ ____
ROOT
ATOM      1  O   UNL     1       4.230   5.441  20.104  0.00  0.00    +0.000 OA
ATOM      2  S   UNL     1       2.819   5.314  19.814  0.00  0.00    +0.000 S 
ATOM      3  O   UNL     1       1.870   4.858  20.806  0.00  0.00    +0.000 OA
ENDROOT
BRANCH   2   4
ATOM      4  C   UNL     1       2.339   6.918  19.448  0.00  0.00    +0.000 A 
ATOM      5  C   UNL     1       2.478   7.564  18.211  0.00  0.00    +0.000 A 
ATOM      6  N   UNL     1       1.996   8.814  18.235  0.00  0.00    +0.000 NA
ATOM      7  N   UNL     1       1.561   8.973  19.502  0.00  0.00    +0.000 N 
ATOM      8  C   UNL     1       1.705   7.833  20.259  0.00  0.00    +0.000 A 
BRANCH   7   9
ATOM      9  C   UNL     1       0.975  10.229  19.956  0.00  0.00    +0.000 C 
ATOM     10  C   UNL     1      -0.481  10.171  20.383  0.00  0.00    +0.000 C 
ATOM     11  C   UNL     1      -1.216  10.286  19.064  0.00  0.00    +0.000 C 
ATOM     12  O   UNL     1      -0.403  11.106  18.210  0.00  0.00    +0.000 OA
ATOM     13  C   UNL     1       0.895  11.237  18.816  0.00  0.00    +0.000 C 
ENDBRANCH   7   9
ENDBRANCH   2   4
BRANCH   2  14
ATOM     14  N   UNL     1       2.661   4.326  18.419  0.00  0.00    +0.000 NA
ATOM     15  C   UNL     1       1.270   3.880  18.130  0.00  0.00    +0.000 C 
ATOM     16  C   UNL     1       1.204   2.462  18.664  0.00  0.00    +0.000 C 
ATOM     17  C   UNL     1       2.556   1.901  18.272  0.00  0.00    +0.000 C 
ATOM     18  C   UNL     1       3.524   3.077  18.463  0.00  0.00    +0.000 C 
BRANCH  18  19
ATOM     19  C   UNL     1       4.597   3.152  17.356  0.00  0.00    +0.000 C 
BRANCH  19  20
ATOM     20  C   UNL     1       4.489   4.387  16.437  0.00  0.00    +0.000 C 
ATOM     21  C   UNL     1       5.010   4.137  15.004  0.00  0.00    +0.000 C 
ATOM     22  C   UNL     1       6.120   5.190  14.845  0.00  0.00    +0.000 C 
ATOM     23  C   UNL     1       7.293   4.835  15.780  0.00  0.00    +0.000 C 
ATOM     24  C   UNL     1       6.784   5.269  17.161  0.00  0.00    +0.000 C 
ATOM     25  C   UNL     1       5.320   5.633  16.874  0.00  0.00    +0.000 C 
ATOM     26  C   UNL     1       5.491   6.390  15.549  0.00  0.00    +0.000 C 
ENDBRANCH  19  20
ENDBRANCH  18  19
ENDBRANCH   2  14
TORSDOF 5
ENDMDL
MODEL 5
REMARK VINA RESULT:      -7.4      0.914      1.502
REMARK  Name = 
REMARK  5 active torsions:
REMARK  status: ('A' for Active; 'I' for Inactive)
REMARK    1  A    between atoms: S_2  and  C_4
REMARK    2  A    between atoms: S_2  and  N_14
REMARK    3  A    between atoms: N_7  and  C_8
REMARK    4  A    between atoms: C_18  and  C_19
REMARK    5  A    between atoms: C_19  and  C_20
REMARK                            x       y       z     vdW  Elec       q    Type
REMARK                         _______ _______ _______ _____ _____    ______ ____
ROOT
ATOM      1  O   UNL     1       2.779   4.748  21.470  0.00  0.00    +0.000 OA
ATOM      2  S   UNL     1       1.897   4.849  20.328  0.00  0.00    +0.000 S 
ATOM      3  O   UNL     1       0.520   4.410  20.383  0.00  0.00    +0.000 OA
ENDROOT
BRANCH   2   4
ATOM      4  C   UNL     1       1.812   6.535  20.034  0.00  0.00    +0.000 A 
ATOM      5  C   UNL     1       2.340   7.211  18.924  0.00  0.00    +0.000 A 
ATOM      6  N   UNL     1       2.102   8.528  18.973  0.00  0.00    +0.000 NA
ATOM      7  N   UNL     1       1.429   8.697  20.131  0.00  0.00    +0.000 N 
ATOM      8  C   UNL     1       1.190   7.509  20.782  0.00  0.00    +0.000 A 
BRANCH   7   9
ATOM      9  C   UNL     1       0.996  10.017  20.576  0.00  0.00    +0.000 C 
ATOM     10  C   UNL     1      -0.494  10.183  20.822  0.00  0.00    +0.000 C 
ATOM     11  C   UNL     1      -1.028  10.458  19.432  0.00  0.00    +0.000 C 
ATOM     12  O   UNL     1       0.006  11.163  18.726  0.00  0.00    +0.000 OA
ATOM     13  C   UNL     1       1.221  11.060  19.489  0.00  0.00    +0.000 C 
ENDBRANCH   7   9
ENDBRANCH   2   4
BRANCH   2  14
ATOM     14  N   UNL     1       2.663   4.064  19.008  0.00  0.00    +0.000 NA
ATOM     15  C   UNL     1       1.836   3.020  18.342  0.00  0.00    +0.000 C 
ATOM     16  C   UNL     1       2.345   1.709  18.911  0.00  0.00    +0.000 C 
ATOM     17  C   UNL     1       3.841   1.938  18.972  0.00  0.00    +0.000 C 
ATOM     18  C   UNL     1       3.984   3.412  19.376  0.00  0.00    +0.000 C 
BRANCH  18  19
ATOM     19  C   UNL     1       5.136   4.124  18.637  0.00  0.00    +0.000 C 
BRANCH  19  20
ATOM     20  C   UNL     1       4.704   4.919  17.387  0.00  0.00    +0.000 C 
ATOM     21  C   UNL     1       4.806   4.108  16.075  0.00  0.00    +0.000 C 
ATOM     22  C   UNL     1       5.766   4.947  15.216  0.00  0.00    +0.000 C 
ATOM     23  C   UNL     1       7.175   4.902  15.840  0.00  0.00    +0.000 C 
ATOM     24  C   UNL     1       7.061   5.863  17.032  0.00  0.00    +0.000 C 
ATOM     25  C   UNL     1       5.560   6.182  17.056  0.00  0.00    +0.000 C 
ATOM     26  C   UNL     1       5.303   6.362  15.553  0.00  0.00    +0.000 C 
ENDBRANCH  19  20
ENDBRANCH  18  19
ENDBRANCH   2  14
TORSDOF 5
ENDMDL
MODEL 6
REMARK VINA RESULT:      -7.3      0.666      1.185
REMARK  Name = 
REMARK  5 active torsions:
REMARK  status: ('A' for Active; 'I' for Inactive)
REMARK    1  A    between atoms: S_2  and  C_4
REMARK    2  A    between atoms: S_2  and  N_14
REMARK    3  A    between atoms: N_7  and  C_8
REMARK    4  A    between atoms: C_18  and  C_19
REMARK    5  A    between atoms: C_19  and  C_20
REMARK                            x       y       z     vdW  Elec       q    Type
REMARK                         _______ _______ _______ _____ _____    ______ ____
ROOT
ATOM      1  O   UNL     1       4.380   5.481  19.982  0.00  0.00    +0.000 OA
ATOM      2  S   UNL     1       2.946   5.293  19.968  0.00  0.00    +0.000 S 
ATOM      3  O   UNL     1       2.225   4.814  21.127  0.00  0.00    +0.000 OA
ENDROOT
BRANCH   2   4
ATOM      4  C   UNL     1       2.337   6.871  19.690  0.00  0.00    +0.000 A 
ATOM      5  C   UNL     1       2.368   7.569  18.474  0.00  0.00    +0.000 A 
ATOM      6  N   UNL     1       1.802   8.779  18.571  0.00  0.00    +0.000 NA
ATOM      7  N   UNL     1       1.421   8.861  19.863  0.00  0.00    +0.000 N 
ATOM      8  C   UNL     1       1.682   7.707  20.566  0.00  0.00    +0.000 A 
BRANCH   7   9
ATOM      9  C   UNL     1       0.773  10.055  20.394  0.00  0.00    +0.000 C 
ATOM     10  C   UNL     1      -0.742  10.092  20.294  0.00  0.00    +0.000 C 
ATOM     11  C   UNL     1      -0.967  10.580  18.878  0.00  0.00    +0.000 C 
ATOM     12  O   UNL     1       0.129  11.454  18.564  0.00  0.00    +0.000 OA
ATOM     13  C   UNL     1       1.140  11.285  19.573  0.00  0.00    +0.000 C 
ENDBRANCH   7   9
ENDBRANCH   2   4
BRANCH   2  14
ATOM     14  N   UNL     1       2.566   4.278  18.637  0.00  0.00    +0.000 NA
ATOM     15  C   UNL     1       1.213   3.659  18.695  0.00  0.00    +0.000 C 
ATOM     16  C   UNL     1       1.458   2.250  19.198  0.00  0.00    +0.000 C 
ATOM     17  C   UNL     1       2.727   1.858  18.470  0.00  0.00    +0.000 C 
ATOM     18  C   UNL     1       3.559   3.147  18.437  0.00  0.00    +0.000 C 
BRANCH  18  19
ATOM     19  C   UNL     1       4.304   3.343  17.099  0.00  0.00    +0.000 C 
BRANCH  19  20
ATOM     20  C   UNL     1       5.350   4.477  17.106  0.00  0.00    +0.000 C 
ATOM     21  C   UNL     1       4.832   5.797  16.491  0.00  0.00    +0.000 C 
ATOM     22  C   UNL     1       5.820   6.062  15.342  0.00  0.00    +0.000 C 
ATOM     23  C   UNL     1       5.625   4.992  14.250  0.00  0.00    +0.000 C 
ATOM     24  C   UNL     1       6.314   3.755  14.843  0.00  0.00    +0.000 C 
ATOM     25  C   UNL     1       6.642   4.213  16.271  0.00  0.00    +0.000 C 
ATOM     26  C   UNL     1       7.139   5.638  15.985  0.00  0.00    +0.000 C 
ENDBRANCH  19  20
ENDBRANCH  18  19
ENDBRANCH   2  14
TORSDOF 5
ENDMDL
MODEL 7
REMARK VINA RESULT:      -7.1      2.163      4.424
REMARK  Name = 
REMARK  5 active torsions:
REMARK  status: ('A' for Active; 'I' for Inactive)
REMARK    1  A    between atoms: S_2  and  C_4
REMARK    2  A    between atoms: S_2  and  N_14
REMARK    3  A    between atoms: N_7  and  C_8
REMARK    4  A    between atoms: C_18  and  C_19
REMARK    5  A    between atoms: C_19  and  C_20
REMARK                            x       y       z     vdW  Elec       q    Type
REMARK                         _______ _______ _______ _____ _____    ______ ____
ROOT
ATOM      1  O   UNL     1       4.933   6.962  15.470  0.00  0.00    +0.000 OA
ATOM      2  S   UNL     1       5.430   6.775  16.815  0.00  0.00    +0.000 S 
ATOM      3  O   UNL     1       6.504   7.580  17.355  0.00  0.00    +0.000 OA
ENDROOT
BRANCH   2   4
ATOM      4  C   UNL     1       4.073   7.132  17.799  0.00  0.00    +0.000 A 
ATOM      5  C   UNL     1       3.808   6.604  19.071  0.00  0.00    +0.000 A 
ATOM      6  N   UNL     1       2.672   7.086  19.592  0.00  0.00    +0.000 NA
ATOM      7  N   UNL     1       2.200   7.916  18.640  0.00  0.00    +0.000 N 
ATOM      8  C   UNL     1       3.041   8.011  17.556  0.00  0.00    +0.000 A 
BRANCH   7   9
ATOM      9  C   UNL     1       0.944   8.637  18.810  0.00  0.00    +0.000 C 
ATOM     10  C   UNL     1       0.757   9.867  17.938  0.00  0.00    +0.000 C 
ATOM     11  C   UNL     1       1.495  10.937  18.715  0.00  0.00    +0.000 C 
ATOM     12  O   UNL     1       1.360  10.603  20.106  0.00  0.00    +0.000 OA
ATOM     13  C   UNL     1       0.856   9.260  20.198  0.00  0.00    +0.000 C 
ENDBRANCH   7   9
ENDBRANCH   2   4
BRANCH   2  14
ATOM     14  N   UNL     1       5.855   5.120  16.987  0.00  0.00    +0.000 NA
ATOM     15  C   UNL     1       7.098   4.721  16.271  0.00  0.00    +0.000 C 
ATOM     16  C   UNL     1       6.610   4.060  14.996  0.00  0.00    +0.000 C 
ATOM     17  C   UNL     1       5.412   3.267  15.477  0.00  0.00    +0.000 C 
ATOM     18  C   UNL     1       4.763   4.166  16.538  0.00  0.00    +0.000 C 
BRANCH  18  19
ATOM     19  C   UNL     1       4.238   3.372  17.752  0.00  0.00    +0.000 C 
BRANCH  19  20
ATOM     20  C   UNL     1       2.767   2.919  17.638  0.00  0.00    +0.000 C 
ATOM     21  C   UNL     1       1.754   4.081  17.741  0.00  0.00    +0.000 C 
ATOM     22  C   UNL     1       0.882   3.682  18.943  0.00  0.00    +0.000 C 
ATOM     23  C   UNL     1       1.727   3.755  20.229  0.00  0.00    +0.000 C 
ATOM     24  C   UNL     1       2.585   2.484  20.157  0.00  0.00    +0.000 C 
ATOM     25  C   UNL     1       2.267   1.949  18.754  0.00  0.00    +0.000 C 
ATOM     26  C   UNL     1       0.748   2.177  18.723  0.00  0.00    +0.000 C 
ENDBRANCH  19  20
ENDBRANCH  18  19
ENDBRANCH   2  14
TORSDOF 5
ENDMDL
MODEL 8
REMARK VINA RESULT:      -7.1      0.924      1.731
REMARK  Name = 
REMARK  5 active torsions:
REMARK  status: ('A' for Active; 'I' for Inactive)
REMARK    1  A    between atoms: S_2  and  C_4
REMARK    2  A    between atoms: S_2  and  N_14
REMARK    3  A    between atoms: N_7  and  C_8
REMARK    4  A    between atoms: C_18  and  C_19
REMARK    5  A    between atoms: C_19  and  C_20
REMARK                            x       y       z     vdW  Elec       q    Type
REMARK                         _______ _______ _______ _____ _____    ______ ____
ROOT
ATOM      1  O   UNL     1       4.369   5.479  20.002  0.00  0.00    +0.000 OA
ATOM      2  S   UNL     1       2.944   5.236  20.042  0.00  0.00    +0.000 S 
ATOM      3  O   UNL     1       2.288   4.721  21.224  0.00  0.00    +0.000 OA
ENDROOT
BRANCH   2   4
ATOM      4  C   UNL     1       2.265   6.791  19.802  0.00  0.00    +0.000 A 
ATOM      5  C   UNL     1       1.620   7.573  20.772  0.00  0.00    +0.000 A 
ATOM      6  N   UNL     1       1.206   8.748  20.281  0.00  0.00    +0.000 NA
ATOM      7  N   UNL     1       1.575   8.711  18.983  0.00  0.00    +0.000 N 
ATOM      8  C   UNL     1       2.262   7.563  18.662  0.00  0.00    +0.000 A 
BRANCH   7   9
ATOM      9  C   UNL     1       1.282   9.812  18.074  0.00  0.00    +0.000 C 
ATOM     10  C   UNL     1       2.057  11.097  18.310  0.00  0.00    +0.000 C 
ATOM     11  C   UNL     1       1.256  11.768  19.407  0.00  0.00    +0.000 C 
ATOM     12  O   UNL     1      -0.115  11.388  19.206  0.00  0.00    +0.000 OA
ATOM     13  C   UNL     1      -0.147  10.307  18.259  0.00  0.00    +0.000 C 
ENDBRANCH   7   9
ENDBRANCH   2   4
BRANCH   2  14
ATOM     14  N   UNL     1       2.551   4.217  18.718  0.00  0.00    +0.000 NA
ATOM     15  C   UNL     1       1.214   3.568  18.810  0.00  0.00    +0.000 C 
ATOM     16  C   UNL     1       1.505   2.163  19.301  0.00  0.00    +0.000 C 
ATOM     17  C   UNL     1       2.762   1.802  18.538  0.00  0.00    +0.000 C 
ATOM     18  C   UNL     1       3.564   3.109  18.487  0.00  0.00    +0.000 C 
BRANCH  18  19
ATOM     19  C   UNL     1       4.267   3.325  17.131  0.00  0.00    +0.000 C 
BRANCH  19  20
ATOM     20  C   UNL     1       5.307   4.466  17.120  0.00  0.00    +0.000 C 
ATOM     21  C   UNL     1       4.778   5.776  16.493  0.00  0.00    +0.000 C 
ATOM     22  C   UNL     1       5.760   6.034  15.338  0.00  0.00    +0.000 C 
ATOM     23  C   UNL     1       5.567   4.951  14.258  0.00  0.00    +0.000 C 
ATOM     24  C   UNL     1       6.266   3.725  14.862  0.00  0.00    +0.000 C 
ATOM     25  C   UNL     1       6.597   4.201  16.284  0.00  0.00    +0.000 C 
ATOM     26  C   UNL     1       7.084   5.625  15.979  0.00  0.00    +0.000 C 
ENDBRANCH  19  20
ENDBRANCH  18  19
ENDBRANCH   2  14
TORSDOF 5
ENDMDL
MODEL 9
REMARK VINA RESULT:      -7.1      1.100      1.396
REMARK  Name = 
REMARK  5 active torsions:
REMARK  status: ('A' for Active; 'I' for Inactive)
REMARK    1  A    between atoms: S_2  and  C_4
REMARK    2  A    between atoms: S_2  and  N_14
REMARK    3  A    between atoms: N_7  and  C_8
REMARK    4  A    between atoms: C_18  and  C_19
REMARK    5  A    between atoms: C_19  and  C_20
REMARK                            x       y       z     vdW  Elec       q    Type
REMARK                         _______ _______ _______ _____ _____    ______ ____
ROOT
ATOM      1  O   UNL     1       2.539   4.648  21.610  0.00  0.00    +0.000 OA
ATOM      2  S   UNL     1       1.819   4.859  20.374  0.00  0.00    +0.000 S 
ATOM      3  O   UNL     1       0.462   4.392  20.190  0.00  0.00    +0.000 OA
ENDROOT
BRANCH   2   4
ATOM      4  C   UNL     1       1.719   6.565  20.253  0.00  0.00    +0.000 A 
ATOM      5  C   UNL     1       2.212   7.352  19.201  0.00  0.00    +0.000 A 
ATOM      6  N   UNL     1       1.971   8.656  19.389  0.00  0.00    +0.000 NA
ATOM      7  N   UNL     1       1.333   8.705  20.576  0.00  0.00    +0.000 N 
ATOM      8  C   UNL     1       1.116   7.456  21.112  0.00  0.00    +0.000 A 
BRANCH   7   9
ATOM      9  C   UNL     1       0.909   9.970  21.164  0.00  0.00    +0.000 C 
ATOM     10  C   UNL     1      -0.588  10.150  21.354  0.00  0.00    +0.000 C 
ATOM     11  C   UNL     1      -1.040  10.614  19.986  0.00  0.00    +0.000 C 
ATOM     12  O   UNL     1       0.047  11.370  19.428  0.00  0.00    +0.000 OA
ATOM     13  C   UNL     1       1.216  11.135  20.231  0.00  0.00    +0.000 C 
ENDBRANCH   7   9
ENDBRANCH   2   4
BRANCH   2  14
ATOM     14  N   UNL     1       2.783   4.238  19.097  0.00  0.00    +0.000 NA
ATOM     15  C   UNL     1       2.098   3.238  18.232  0.00  0.00    +0.000 C 
ATOM     16  C   UNL     1       2.593   1.895  18.735  0.00  0.00    +0.000 C 
ATOM     17  C   UNL     1       4.056   2.169  19.014  0.00  0.00    +0.000 C 
ATOM     18  C   UNL     1       4.076   3.598  19.572  0.00  0.00    +0.000 C 
BRANCH  18  19
ATOM     19  C   UNL     1       5.278   4.421  19.062  0.00  0.00    +0.000 C 
BRANCH  19  20
ATOM     20  C   UNL     1       5.672   4.144  17.596  0.00  0.00    +0.000 C 
ATOM     21  C   UNL     1       7.132   4.527  17.267  0.00  0.00    +0.000 C 
ATOM     22  C   UNL     1       6.980   5.549  16.128  0.00  0.00    +0.000 C 
ATOM     23  C   UNL     1       6.330   6.832  16.682  0.00  0.00    +0.000 C 
ATOM     24  C   UNL     1       4.851   6.445  16.820  0.00  0.00    +0.000 C 
ATOM     25  C   UNL     1       4.874   4.941  16.516  0.00  0.00    +0.000 C 
ATOM     26  C   UNL     1       5.841   4.926  15.324  0.00  0.00    +0.000 C 
ENDBRANCH  19  20
ENDBRANCH  18  19
ENDBRANCH   2  14
TORSDOF 5
ENDMDL
