MODEL 1
REMARK VINA RESULT:      -8.3      0.000      0.000
REMARK  Name = 
REMARK  4 active torsions:
REMARK  status: ('A' for Active; 'I' for Inactive)
REMARK    1  A    between atoms: C_1  and  O_2
REMARK    2  A    between atoms: O_2  and  C_3
REMARK    3  A    between atoms: C_5  and  N_6
REMARK    4  A    between atoms: C_12  and  C_13
REMARK                            x       y       z     vdW  Elec       q    Type
REMARK                         _______ _______ _______ _____ _____    ______ ____
ROOT
ATOM      1  N   UNL     1       2.264   7.115  19.305  0.00  0.00    +0.000 N 
ATOM      2  C   UNL     1       1.807   8.038  20.214  0.00  0.00    +0.000 C 
ATOM      3  O   UNL     1       1.860   7.838  21.422  0.00  0.00    +0.000 OA
ATOM      4  N   UNL     1       1.233   9.177  19.677  0.00  0.00    +0.000 N 
ATOM      5  C   UNL     1       1.167   9.513  18.259  0.00  0.00    +0.000 C 
ATOM      6  C   UNL     1      -0.282   9.537  17.847  0.00  0.00    +0.000 C 
ATOM      7  C   UNL     1      -1.063  10.637  18.536  0.00  0.00    +0.000 C 
ATOM      8  C   UNL     1      -0.723  10.661  20.037  0.00  0.00    +0.000 C 
ATOM      9  C   UNL     1       0.593  10.135  20.586  0.00  0.00    +0.000 C 
ATOM     10  C   UNL     1      -0.549  11.881  19.252  0.00  0.00    +0.000 C 
ATOM     11  F   UNL     1       0.671  12.412  18.927  0.00  0.00    +0.000 F 
ATOM     12  F   UNL     1      -1.380  12.946  19.543  0.00  0.00    +0.000 F 
ATOM     13  H   UNL     1       2.593   7.494  18.434  0.00  0.00    +0.000 HD
ENDROOT
BRANCH   1  16
ATOM     14  C   UNL     1       3.808   4.049  18.966  0.00  0.00    +0.000 C 
ATOM     15  C   UNL     1       4.217   5.553  19.000  0.00  0.00    +0.000 C 
ATOM     16  C   UNL     1       2.862   5.836  19.714  0.00  0.00    +0.000 C 
ATOM     17  C   UNL     1       2.373   4.566  19.066  0.00  0.00    +0.000 C 
ATOM     18  C   UNL     1       1.559   4.574  17.784  0.00  0.00    +0.000 C 
ATOM     19  C   UNL     1       0.883   3.291  18.330  0.00  0.00    +0.000 C 
ATOM     20  C   UNL     1       1.313   3.733  19.744  0.00  0.00    +0.000 C 
BRANCH  14  22
ATOM     21  C   UNL     1       4.525   1.875  19.800  0.00  0.00    +0.000 C 
ATOM     22  O   UNL     1       4.280   3.247  20.073  0.00  0.00    +0.000 OA
ENDBRANCH  14  22
ENDBRANCH   1  16
BRANCH   7  23
ATOM     23  C   UNL     1      -2.273  11.014  17.704  0.00  0.00    +0.000 A 
ATOM     24  C   UNL     1      -3.487  11.476  18.214  0.00  0.00    +0.000 A 
ATOM     25  C   UNL     1      -4.615  11.576  17.392  0.00  0.00    +0.000 A 
ATOM     26  C   UNL     1      -4.551  11.206  16.040  0.00  0.00    +0.000 A 
ATOM     27  C   UNL     1      -3.349  10.775  15.501  0.00  0.00    +0.000 A 
ATOM     28  C   UNL     1      -2.231  10.692  16.324  0.00  0.00    +0.000 A 
ENDBRANCH   7  23
TORSDOF 3
ENDMDL
MODEL 2
REMARK VINA RESULT:      -8.2      3.798      8.623
REMARK  Name = 
REMARK  4 active torsions:
REMARK  status: ('A' for Active; 'I' for Inactive)
REMARK    1  A    between atoms: C_1  and  O_2
REMARK    2  A    between atoms: O_2  and  C_3
REMARK    3  A    between atoms: C_5  and  N_6
REMARK    4  A    between atoms: C_12  and  C_13
REMARK                            x       y       z     vdW  Elec       q    Type
REMARK                         _______ _______ _______ _____ _____    ______ ____
ROOT
ATOM      1  N   UNL     1       1.337   9.826  20.029  0.00  0.00    +0.000 N 
ATOM      2  C   UNL     1       1.423   8.536  20.495  0.00  0.00    +0.000 C 
ATOM      3  O   UNL     1       1.231   8.260  21.674  0.00  0.00    +0.000 OA
ATOM      4  N   UNL     1       1.794   7.584  19.563  0.00  0.00    +0.000 N 
ATOM      5  C   UNL     1       2.000   7.817  18.138  0.00  0.00    +0.000 C 
ATOM      6  C   UNL     1       3.450   7.559  17.822  0.00  0.00    +0.000 C 
ATOM      7  C   UNL     1       3.841   6.111  18.030  0.00  0.00    +0.000 C 
ATOM      8  C   UNL     1       3.276   5.602  19.369  0.00  0.00    +0.000 C 
ATOM      9  C   UNL     1       2.048   6.213  20.024  0.00  0.00    +0.000 C 
ATOM     10  C   UNL     1       2.949   4.879  18.142  0.00  0.00    +0.000 C 
ATOM     11  F   UNL     1       1.705   4.870  17.570  0.00  0.00    +0.000 F 
ATOM     12  F   UNL     1       3.458   3.600  18.006  0.00  0.00    +0.000 F 
ATOM     13  H   UNL     1       1.067   9.918  19.065  0.00  0.00    +0.000 HD
ENDROOT
BRANCH   1  16
ATOM     14  C   UNL     1      -0.312  12.662  21.093  0.00  0.00    +0.000 C 
ATOM     15  C   UNL     1      -0.543  11.121  21.094  0.00  0.00    +0.000 C 
ATOM     16  C   UNL     1       0.993  10.957  20.902  0.00  0.00    +0.000 C 
ATOM     17  C   UNL     1       0.962  12.344  20.312  0.00  0.00    +0.000 C 
ATOM     18  C   UNL     1       0.924  12.585  18.813  0.00  0.00    +0.000 C 
ATOM     19  C   UNL     1       1.713  13.887  19.109  0.00  0.00    +0.000 C 
ATOM     20  C   UNL     1       2.169  13.242  20.434  0.00  0.00    +0.000 C 
BRANCH  14  22
ATOM     21  C   UNL     1      -0.888  14.446  22.649  0.00  0.00    +0.000 C 
ATOM     22  O   UNL     1      -0.135  13.269  22.393  0.00  0.00    +0.000 OA
ENDBRANCH  14  22
ENDBRANCH   1  16
BRANCH   7  23
ATOM     23  C   UNL     1       5.045   5.769  17.175  0.00  0.00    +0.000 A 
ATOM     24  C   UNL     1       5.042   5.681  15.782  0.00  0.00    +0.000 A 
ATOM     25  C   UNL     1       6.136   5.136  15.099  0.00  0.00    +0.000 A 
ATOM     26  C   UNL     1       7.254   4.661  15.802  0.00  0.00    +0.000 A 
ATOM     27  C   UNL     1       7.296   4.768  17.183  0.00  0.00    +0.000 A 
ATOM     28  C   UNL     1       6.209   5.323  17.850  0.00  0.00    +0.000 A 
ENDBRANCH   7  23
TORSDOF 3
ENDMDL
MODEL 3
REMARK VINA RESULT:      -8.0      3.755      8.599
REMARK  Name = 
REMARK  4 active torsions:
REMARK  status: ('A' for Active; 'I' for Inactive)
REMARK    1  A    between atoms: C_1  and  O_2
REMARK    2  A    between atoms: O_2  and  C_3
REMARK    3  A    between atoms: C_5  and  N_6
REMARK    4  A    between atoms: C_12  and  C_13
REMARK                            x       y       z     vdW  Elec       q    Type
REMARK                         _______ _______ _______ _____ _____    ______ ____
ROOT
ATOM      1  N   UNL     1       1.433   9.516  20.064  0.00  0.00    +0.000 N 
ATOM      2  C   UNL     1       1.443   8.254  20.606  0.00  0.00    +0.000 C 
ATOM      3  O   UNL     1       1.206   8.058  21.793  0.00  0.00    +0.000 OA
ATOM      4  N   UNL     1       1.793   7.232  19.741  0.00  0.00    +0.000 N 
ATOM      5  C   UNL     1       2.048   7.371  18.312  0.00  0.00    +0.000 C 
ATOM      6  C   UNL     1       3.491   7.027  18.055  0.00  0.00    +0.000 C 
ATOM      7  C   UNL     1       3.805   5.576  18.358  0.00  0.00    +0.000 C 
ATOM      8  C   UNL     1       3.181   5.175  19.707  0.00  0.00    +0.000 C 
ATOM      9  C   UNL     1       1.967   5.880  20.288  0.00  0.00    +0.000 C 
ATOM     10  C   UNL     1       2.852   4.396  18.515  0.00  0.00    +0.000 C 
ATOM     11  F   UNL     1       1.625   4.412  17.907  0.00  0.00    +0.000 F 
ATOM     12  F   UNL     1       3.302   3.090  18.467  0.00  0.00    +0.000 F 
ATOM     13  H   UNL     1       1.194   9.564  19.089  0.00  0.00    +0.000 HD
ENDROOT
BRANCH   1  16
ATOM     14  C   UNL     1      -0.232  12.384  21.016  0.00  0.00    +0.000 C 
ATOM     15  C   UNL     1      -0.398  10.842  21.177  0.00  0.00    +0.000 C 
ATOM     16  C   UNL     1       1.121  10.713  20.859  0.00  0.00    +0.000 C 
ATOM     17  C   UNL     1       0.980  12.037  20.152  0.00  0.00    +0.000 C 
ATOM     18  C   UNL     1       0.799  12.135  18.648  0.00  0.00    +0.000 C 
ATOM     19  C   UNL     1       1.556  13.484  18.751  0.00  0.00    +0.000 C 
ATOM     20  C   UNL     1       2.154  12.982  20.081  0.00  0.00    +0.000 C 
BRANCH  14  22
ATOM     21  C   UNL     1      -0.789  14.243  22.487  0.00  0.00    +0.000 C 
ATOM     22  O   UNL     1       0.035  13.115  22.235  0.00  0.00    +0.000 OA
ENDBRANCH  14  22
ENDBRANCH   1  16
BRANCH   7  23
ATOM     23  C   UNL     1       5.014   5.129  17.559  0.00  0.00    +0.000 A 
ATOM     24  C   UNL     1       6.295   4.938  18.080  0.00  0.00    +0.000 A 
ATOM     25  C   UNL     1       7.390   4.751  17.229  0.00  0.00    +0.000 A 
ATOM     26  C   UNL     1       7.224   4.760  15.836  0.00  0.00    +0.000 A 
ATOM     27  C   UNL     1       5.958   4.914  15.294  0.00  0.00    +0.000 A 
ATOM     28  C   UNL     1       4.875   5.086  16.149  0.00  0.00    +0.000 A 
ENDBRANCH   7  23
TORSDOF 3
ENDMDL
MODEL 4
REMARK VINA RESULT:      -7.9      3.574      8.673
REMARK  Name = 
REMARK  4 active torsions:
REMARK  status: ('A' for Active; 'I' for Inactive)
REMARK    1  A    between atoms: C_1  and  O_2
REMARK    2  A    between atoms: O_2  and  C_3
REMARK    3  A    between atoms: C_5  and  N_6
REMARK    4  A    between atoms: C_12  and  C_13
REMARK                            x       y       z     vdW  Elec       q    Type
REMARK                         _______ _______ _______ _____ _____    ______ ____
ROOT
ATOM      1  N   UNL     1       1.094  10.473  19.133  0.00  0.00    +0.000 N 
ATOM      2  C   UNL     1       1.196   9.353  19.922  0.00  0.00    +0.000 C 
ATOM      3  O   UNL     1       0.992   9.392  21.130  0.00  0.00    +0.000 OA
ATOM      4  N   UNL     1       1.600   8.198  19.276  0.00  0.00    +0.000 N 
ATOM      5  C   UNL     1       1.822   8.053  17.842  0.00  0.00    +0.000 C 
ATOM      6  C   UNL     1       3.281   7.753  17.619  0.00  0.00    +0.000 C 
ATOM      7  C   UNL     1       3.695   6.419  18.204  0.00  0.00    +0.000 C 
ATOM      8  C   UNL     1       3.120   6.267  19.624  0.00  0.00    +0.000 C 
ATOM      9  C   UNL     1       1.872   7.002  20.083  0.00  0.00    +0.000 C 
ATOM     10  C   UNL     1       2.825   5.240  18.627  0.00  0.00    +0.000 C 
ATOM     11  F   UNL     1       1.590   5.054  18.066  0.00  0.00    +0.000 F 
ATOM     12  F   UNL     1       3.360   3.982  18.836  0.00  0.00    +0.000 F 
ATOM     13  H   UNL     1       0.837  10.303  18.176  0.00  0.00    +0.000 HD
ENDROOT
BRANCH   1  16
ATOM     14  C   UNL     1       0.212  13.807  19.119  0.00  0.00    +0.000 C 
ATOM     15  C   UNL     1      -0.481  12.426  18.912  0.00  0.00    +0.000 C 
ATOM     16  C   UNL     1       0.716  11.786  19.674  0.00  0.00    +0.000 C 
ATOM     17  C   UNL     1       1.503  12.999  19.247  0.00  0.00    +0.000 C 
ATOM     18  C   UNL     1       2.422  12.984  18.039  0.00  0.00    +0.000 C 
ATOM     19  C   UNL     1       3.276  14.024  18.807  0.00  0.00    +0.000 C 
ATOM     20  C   UNL     1       2.632  13.508  20.109  0.00  0.00    +0.000 C 
BRANCH  14  22
ATOM     21  C   UNL     1      -0.530  15.913  20.093  0.00  0.00    +0.000 C 
ATOM     22  O   UNL     1      -0.203  14.546  20.292  0.00  0.00    +0.000 OA
ENDBRANCH  14  22
ENDBRANCH   1  16
BRANCH   7  23
ATOM     23  C   UNL     1       4.918   5.891  17.479  0.00  0.00    +0.000 A 
ATOM     24  C   UNL     1       6.234   6.277  17.739  0.00  0.00    +0.000 A 
ATOM     25  C   UNL     1       7.269   5.913  16.869  0.00  0.00    +0.000 A 
ATOM     26  C   UNL     1       7.003   5.161  15.715  0.00  0.00    +0.000 A 
ATOM     27  C   UNL     1       5.710   4.738  15.452  0.00  0.00    +0.000 A 
ATOM     28  C   UNL     1       4.692   5.094  16.330  0.00  0.00    +0.000 A 
ENDBRANCH   7  23
TORSDOF 3
ENDMDL
MODEL 5
REMARK VINA RESULT:      -7.3      1.213      1.347
REMARK  Name = 
REMARK  4 active torsions:
REMARK  status: ('A' for Active; 'I' for Inactive)
REMARK    1  A    between atoms: C_1  and  O_2
REMARK    2  A    between atoms: O_2  and  C_3
REMARK    3  A    between atoms: C_5  and  N_6
REMARK    4  A    between atoms: C_12  and  C_13
REMARK                            x       y       z     vdW  Elec       q    Type
REMARK                         _______ _______ _______ _____ _____    ______ ____
ROOT
ATOM      1  N   UNL     1       2.825   7.523  18.424  0.00  0.00    +0.000 N 
ATOM      2  C   UNL     1       2.152   7.879  19.568  0.00  0.00    +0.000 C 
ATOM      3  O   UNL     1       2.192   7.192  20.582  0.00  0.00    +0.000 OA
ATOM      4  N   UNL     1       1.384   9.027  19.480  0.00  0.00    +0.000 N 
ATOM      5  C   UNL     1       1.313   9.922  18.332  0.00  0.00    +0.000 C 
ATOM      6  C   UNL     1      -0.092   9.882  17.789  0.00  0.00    +0.000 C 
ATOM      7  C   UNL     1      -1.108  10.435  18.766  0.00  0.00    +0.000 C 
ATOM      8  C   UNL     1      -0.845   9.869  20.173  0.00  0.00    +0.000 C 
ATOM      9  C   UNL     1       0.525   9.383  20.617  0.00  0.00    +0.000 C 
ATOM     10  C   UNL     1      -0.887  11.318  19.989  0.00  0.00    +0.000 C 
ATOM     11  F   UNL     1       0.213  12.130  20.067  0.00  0.00    +0.000 F 
ATOM     12  F   UNL     1      -1.929  12.003  20.586  0.00  0.00    +0.000 F 
ATOM     13  H   UNL     1       3.109   8.288  17.836  0.00  0.00    +0.000 HD
ENDROOT
BRANCH   1  16
ATOM     14  C   UNL     1       4.066   4.578  17.127  0.00  0.00    +0.000 C 
ATOM     15  C   UNL     1       4.281   6.110  16.931  0.00  0.00    +0.000 C 
ATOM     16  C   UNL     1       3.651   6.310  18.341  0.00  0.00    +0.000 C 
ATOM     17  C   UNL     1       2.971   4.984  18.112  0.00  0.00    +0.000 C 
ATOM     18  C   UNL     1       1.538   4.884  17.621  0.00  0.00    +0.000 C 
ATOM     19  C   UNL     1       1.460   3.572  18.441  0.00  0.00    +0.000 C 
ATOM     20  C   UNL     1       2.640   4.095  19.285  0.00  0.00    +0.000 C 
BRANCH  14  22
ATOM     21  C   UNL     1       6.461   4.131  17.106  0.00  0.00    +0.000 C 
ATOM     22  O   UNL     1       5.191   3.854  17.678  0.00  0.00    +0.000 OA
ENDBRANCH  14  22
ENDBRANCH   1  16
BRANCH   7  23
ATOM     23  C   UNL     1      -2.332  10.928  18.018  0.00  0.00    +0.000 A 
ATOM     24  C   UNL     1      -3.457  11.503  18.611  0.00  0.00    +0.000 A 
ATOM     25  C   UNL     1      -4.625  11.712  17.869  0.00  0.00    +0.000 A 
ATOM     26  C   UNL     1      -4.692  11.340  16.517  0.00  0.00    +0.000 A 
ATOM     27  C   UNL     1      -3.578  10.797  15.897  0.00  0.00    +0.000 A 
ATOM     28  C   UNL     1      -2.418  10.606  16.641  0.00  0.00    +0.000 A 
ENDBRANCH   7  23
TORSDOF 3
ENDMDL
MODEL 6
REMARK VINA RESULT:      -7.1      3.321      8.583
REMARK  Name = 
REMARK  4 active torsions:
REMARK  status: ('A' for Active; 'I' for Inactive)
REMARK    1  A    between atoms: C_1  and  O_2
REMARK    2  A    between atoms: O_2  and  C_3
REMARK    3  A    between atoms: C_5  and  N_6
REMARK    4  A    between atoms: C_12  and  C_13
REMARK                            x       y       z     vdW  Elec       q    Type
REMARK                         _______ _______ _______ _____ _____    ______ ____
ROOT
ATOM      1  N   UNL     1       1.440  10.053  18.953  0.00  0.00    +0.000 N 
ATOM      2  C   UNL     1       1.434   8.968  19.796  0.00  0.00    +0.000 C 
ATOM      3  O   UNL     1       1.163   9.075  20.986  0.00  0.00    +0.000 OA
ATOM      4  N   UNL     1       1.808   7.763  19.227  0.00  0.00    +0.000 N 
ATOM      5  C   UNL     1       2.104   7.539  17.817  0.00  0.00    +0.000 C 
ATOM      6  C   UNL     1       3.555   7.151  17.696  0.00  0.00    +0.000 C 
ATOM      7  C   UNL     1       3.859   5.826  18.363  0.00  0.00    +0.000 C 
ATOM      8  C   UNL     1       3.196   5.773  19.751  0.00  0.00    +0.000 C 
ATOM      9  C   UNL     1       1.966   6.594  20.102  0.00  0.00    +0.000 C 
ATOM     10  C   UNL     1       2.901   4.717  18.785  0.00  0.00    +0.000 C 
ATOM     11  F   UNL     1       1.692   4.571  18.159  0.00  0.00    +0.000 F 
ATOM     12  F   UNL     1       3.351   3.444  19.081  0.00  0.00    +0.000 F 
ATOM     13  H   UNL     1       1.230   9.852  17.991  0.00  0.00    +0.000 HD
ENDROOT
BRANCH   1  16
ATOM     14  C   UNL     1      -0.182  12.520  20.735  0.00  0.00    +0.000 C 
ATOM     15  C   UNL     1       0.976  11.502  20.961  0.00  0.00    +0.000 C 
ATOM     16  C   UNL     1       1.106  11.409  19.412  0.00  0.00    +0.000 C 
ATOM     17  C   UNL     1      -0.333  11.855  19.368  0.00  0.00    +0.000 C 
ATOM     18  C   UNL     1      -1.480  10.874  19.207  0.00  0.00    +0.000 C 
ATOM     19  C   UNL     1      -2.218  12.019  18.468  0.00  0.00    +0.000 C 
ATOM     20  C   UNL     1      -0.839  12.652  18.190  0.00  0.00    +0.000 C 
BRANCH  14  22
ATOM     21  C   UNL     1      -0.664  14.809  21.416  0.00  0.00    +0.000 C 
ATOM     22  O   UNL     1       0.202  13.915  20.733  0.00  0.00    +0.000 OA
ENDBRANCH  14  22
ENDBRANCH   1  16
BRANCH   7  23
ATOM     23  C   UNL     1       5.091   5.200  17.738  0.00  0.00    +0.000 A 
ATOM     24  C   UNL     1       6.369   5.210  18.298  0.00  0.00    +0.000 A 
ATOM     25  C   UNL     1       7.480   4.814  17.544  0.00  0.00    +0.000 A 
ATOM     26  C   UNL     1       7.333   4.407  16.210  0.00  0.00    +0.000 A 
ATOM     27  C   UNL     1       6.070   4.357  15.641  0.00  0.00    +0.000 A 
ATOM     28  C   UNL     1       4.972   4.740  16.402  0.00  0.00    +0.000 A 
ENDBRANCH   7  23
TORSDOF 3
ENDMDL
MODEL 7
REMARK VINA RESULT:      -7.0      1.163      1.873
REMARK  Name = 
REMARK  4 active torsions:
REMARK  status: ('A' for Active; 'I' for Inactive)
REMARK    1  A    between atoms: C_1  and  O_2
REMARK    2  A    between atoms: O_2  and  C_3
REMARK    3  A    between atoms: C_5  and  N_6
REMARK    4  A    between atoms: C_12  and  C_13
REMARK                            x       y       z     vdW  Elec       q    Type
REMARK                         _______ _______ _______ _____ _____    ______ ____
ROOT
ATOM      1  N   UNL     1       2.392   6.902  18.321  0.00  0.00    +0.000 N 
ATOM      2  C   UNL     1       2.010   7.588  19.449  0.00  0.00    +0.000 C 
ATOM      3  O   UNL     1       2.147   7.113  20.571  0.00  0.00    +0.000 OA
ATOM      4  N   UNL     1       1.411   8.816  19.231  0.00  0.00    +0.000 N 
ATOM      5  C   UNL     1       1.248   9.470  17.939  0.00  0.00    +0.000 C 
ATOM      6  C   UNL     1      -0.226   9.579  17.648  0.00  0.00    +0.000 C 
ATOM      7  C   UNL     1      -0.946  10.484  18.625  0.00  0.00    +0.000 C 
ATOM      8  C   UNL     1      -0.500  10.163  20.064  0.00  0.00    +0.000 C 
ATOM      9  C   UNL     1       0.846   9.533  20.381  0.00  0.00    +0.000 C 
ATOM     10  C   UNL     1      -0.370  11.532  19.571  0.00  0.00    +0.000 C 
ATOM     11  F   UNL     1       0.829  12.133  19.292  0.00  0.00    +0.000 F 
ATOM     12  F   UNL     1      -1.169  12.496  20.159  0.00  0.00    +0.000 F 
ATOM     13  H   UNL     1       2.664   7.475  17.541  0.00  0.00    +0.000 HD
ENDROOT
BRANCH   1  16
ATOM     14  C   UNL     1       4.780   4.503  18.985  0.00  0.00    +0.000 C 
ATOM     15  C   UNL     1       3.667   5.273  19.759  0.00  0.00    +0.000 C 
ATOM     16  C   UNL     1       3.006   5.568  18.380  0.00  0.00    +0.000 C 
ATOM     17  C   UNL     1       4.382   5.376  17.796  0.00  0.00    +0.000 C 
ATOM     18  C   UNL     1       5.293   6.546  17.471  0.00  0.00    +0.000 C 
ATOM     19  C   UNL     1       5.852   5.659  16.330  0.00  0.00    +0.000 C 
ATOM     20  C   UNL     1       4.537   4.854  16.388  0.00  0.00    +0.000 C 
BRANCH  14  22
ATOM     21  C   UNL     1       4.528   2.320  20.036  0.00  0.00    +0.000 C 
ATOM     22  O   UNL     1       4.569   3.080  18.837  0.00  0.00    +0.000 OA
ENDBRANCH  14  22
ENDBRANCH   1  16
BRANCH   7  23
ATOM     23  C   UNL     1      -2.208  11.035  17.991  0.00  0.00    +0.000 A 
ATOM     24  C   UNL     1      -3.304  11.540  18.691  0.00  0.00    +0.000 A 
ATOM     25  C   UNL     1      -4.509  11.809  18.032  0.00  0.00    +0.000 A 
ATOM     26  C   UNL     1      -4.642  11.568  16.656  0.00  0.00    +0.000 A 
ATOM     27  C   UNL     1      -3.558  11.098  15.932  0.00  0.00    +0.000 A 
ATOM     28  C   UNL     1      -2.362  10.847  16.594  0.00  0.00    +0.000 A 
ENDBRANCH   7  23
TORSDOF 3
ENDMDL
MODEL 8
REMARK VINA RESULT:      -7.0      2.414      3.812
REMARK  Name = 
REMARK  4 active torsions:
REMARK  status: ('A' for Active; 'I' for Inactive)
REMARK    1  A    between atoms: C_1  and  O_2
REMARK    2  A    between atoms: O_2  and  C_3
REMARK    3  A    between atoms: C_5  and  N_6
REMARK    4  A    between atoms: C_12  and  C_13
REMARK                            x       y       z     vdW  Elec       q    Type
REMARK                         _______ _______ _______ _____ _____    ______ ____
ROOT
ATOM      1  N   UNL     1       2.240   6.895  19.996  0.00  0.00    +0.000 N 
ATOM      2  C   UNL     1       2.266   7.809  18.971  0.00  0.00    +0.000 C 
ATOM      3  O   UNL     1       3.018   7.683  18.010  0.00  0.00    +0.000 OA
ATOM      4  N   UNL     1       1.435   8.905  19.122  0.00  0.00    +0.000 N 
ATOM      5  C   UNL     1       0.483   9.112  20.206  0.00  0.00    +0.000 C 
ATOM      6  C   UNL     1       0.920  10.320  20.993  0.00  0.00    +0.000 C 
ATOM      7  C   UNL     1       0.854  11.597  20.181  0.00  0.00    +0.000 C 
ATOM      8  C   UNL     1       1.466  11.364  18.787  0.00  0.00    +0.000 C 
ATOM      9  C   UNL     1       1.522   9.991  18.137  0.00  0.00    +0.000 C 
ATOM     10  C   UNL     1       0.101  11.877  18.885  0.00  0.00    +0.000 C 
ATOM     11  F   UNL     1      -1.013  11.149  18.560  0.00  0.00    +0.000 F 
ATOM     12  F   UNL     1      -0.124  13.167  18.441  0.00  0.00    +0.000 F 
ATOM     13  H   UNL     1       1.360   6.810  20.474  0.00  0.00    +0.000 HD
ENDROOT
BRANCH   1  16
ATOM     14  C   UNL     1       3.327   3.732  19.152  0.00  0.00    +0.000 C 
ATOM     15  C   UNL     1       3.410   5.177  18.572  0.00  0.00    +0.000 C 
ATOM     16  C   UNL     1       3.093   5.698  20.005  0.00  0.00    +0.000 C 
ATOM     17  C   UNL     1       2.453   4.353  20.240  0.00  0.00    +0.000 C 
ATOM     18  C   UNL     1       0.955   4.139  20.120  0.00  0.00    +0.000 C 
ATOM     19  C   UNL     1       1.129   3.052  21.211  0.00  0.00    +0.000 C 
ATOM     20  C   UNL     1       2.434   3.760  21.628  0.00  0.00    +0.000 C 
BRANCH  14  22
ATOM     21  C   UNL     1       4.637   1.741  19.659  0.00  0.00    +0.000 C 
ATOM     22  O   UNL     1       4.583   3.159  19.585  0.00  0.00    +0.000 OA
ENDBRANCH  14  22
ENDBRANCH   1  16
BRANCH   7  23
ATOM     23  C   UNL     1       0.708  12.792  21.102  0.00  0.00    +0.000 A 
ATOM     24  C   UNL     1      -0.426  13.087  21.861  0.00  0.00    +0.000 A 
ATOM     25  C   UNL     1      -0.555  14.327  22.498  0.00  0.00    +0.000 A 
ATOM     26  C   UNL     1       0.448  15.301  22.379  0.00  0.00    +0.000 A 
ATOM     27  C   UNL     1       1.598  15.021  21.658  0.00  0.00    +0.000 A 
ATOM     28  C   UNL     1       1.722  13.781  21.041  0.00  0.00    +0.000 A 
ENDBRANCH   7  23
TORSDOF 3
ENDMDL
MODEL 9
REMARK VINA RESULT:      -6.9      2.296      3.661
REMARK  Name = 
REMARK  4 active torsions:
REMARK  status: ('A' for Active; 'I' for Inactive)
REMARK    1  A    between atoms: C_1  and  O_2
REMARK    2  A    between atoms: O_2  and  C_3
REMARK    3  A    between atoms: C_5  and  N_6
REMARK    4  A    between atoms: C_12  and  C_13
REMARK                            x       y       z     vdW  Elec       q    Type
REMARK                         _______ _______ _______ _____ _____    ______ ____
ROOT
ATOM      1  N   UNL     1       2.140   6.840  19.896  0.00  0.00    +0.000 N 
ATOM      2  C   UNL     1       2.311   7.824  18.953  0.00  0.00    +0.000 C 
ATOM      3  O   UNL     1       3.248   7.807  18.163  0.00  0.00    +0.000 OA
ATOM      4  N   UNL     1       1.395   8.860  18.992  0.00  0.00    +0.000 N 
ATOM      5  C   UNL     1       0.231   8.940  19.867  0.00  0.00    +0.000 C 
ATOM      6  C   UNL     1       0.417  10.111  20.795  0.00  0.00    +0.000 C 
ATOM      7  C   UNL     1       0.432  11.436  20.062  0.00  0.00    +0.000 C 
ATOM      8  C   UNL     1       1.327  11.335  18.813  0.00  0.00    +0.000 C 
ATOM      9  C   UNL     1       1.605  10.016  18.111  0.00  0.00    +0.000 C 
ATOM     10  C   UNL     1      -0.060  11.765  18.657  0.00  0.00    +0.000 C 
ATOM     11  F   UNL     1      -1.034  11.003  18.068  0.00  0.00    +0.000 F 
ATOM     12  F   UNL     1      -0.278  13.069  18.251  0.00  0.00    +0.000 F 
ATOM     13  H   UNL     1       1.189   6.675  20.178  0.00  0.00    +0.000 HD
ENDROOT
BRANCH   1  16
ATOM     14  C   UNL     1       3.441   3.709  19.267  0.00  0.00    +0.000 C 
ATOM     15  C   UNL     1       3.485   5.130  18.627  0.00  0.00    +0.000 C 
ATOM     16  C   UNL     1       3.051   5.693  20.013  0.00  0.00    +0.000 C 
ATOM     17  C   UNL     1       2.468   4.327  20.270  0.00  0.00    +0.000 C 
ATOM     18  C   UNL     1       0.994   4.026  20.069  0.00  0.00    +0.000 C 
ATOM     19  C   UNL     1       1.155   2.998  21.218  0.00  0.00    +0.000 C 
ATOM     20  C   UNL     1       2.393   3.793  21.680  0.00  0.00    +0.000 C 
BRANCH  14  22
ATOM     21  C   UNL     1       4.790   1.823  20.013  0.00  0.00    +0.000 C 
ATOM     22  O   UNL     1       4.694   3.224  19.801  0.00  0.00    +0.000 OA
ENDBRANCH  14  22
ENDBRANCH   1  16
BRANCH   7  23
ATOM     23  C   UNL     1       0.022  12.554  21.001  0.00  0.00    +0.000 A 
ATOM     24  C   UNL     1       0.732  13.740  21.196  0.00  0.00    +0.000 A 
ATOM     25  C   UNL     1       0.403  14.604  22.247  0.00  0.00    +0.000 A 
ATOM     26  C   UNL     1      -0.643  14.292  23.130  0.00  0.00    +0.000 A 
ATOM     27  C   UNL     1      -1.384  13.137  22.937  0.00  0.00    +0.000 A 
ATOM     28  C   UNL     1      -1.056  12.292  21.882  0.00  0.00    +0.000 A 
ENDBRANCH   7  23
TORSDOF 3
ENDMDL
