MODEL 1
REMARK VINA RESULT:      -9.0      0.000      0.000
REMARK  Name = 
REMARK  3 active torsions:
REMARK  status: ('A' for Active; 'I' for Inactive)
REMARK    1  A    between atoms: C_4  and  C_5
REMARK    2  A    between atoms: C_11  and  C_12
REMARK    3  A    between atoms: C_12  and  C_13
REMARK                            x       y       z     vdW  Elec       q    Type
REMARK                         _______ _______ _______ _____ _____    ______ ____
ROOT
ATOM      1  C   UNL     1       8.882   9.909  18.659  0.00  0.00    +0.000 C 
ATOM      2  O   UNL     1       8.081  10.512  17.948  0.00  0.00    +0.000 OA
ATOM      3  N   UNL     1       8.908   8.549  18.885  0.00  0.00    +0.000 N 
ATOM      4  C   UNL     1       8.018   7.714  18.263  0.00  0.00    +0.000 A 
ATOM      5  N   UNL     1       7.224   7.982  17.260  0.00  0.00    +0.000 NA
ATOM      6  C   UNL     1       6.418   6.897  17.015  0.00  0.00    +0.000 A 
ATOM      7  C   UNL     1       6.618   5.803  17.831  0.00  0.00    +0.000 A 
ATOM      8  S   UNL     1       7.932   6.132  18.895  0.00  0.00    +0.000 S 
ATOM      9  H   UNL     1       9.465   8.139  19.623  0.00  0.00    +0.000 HD
ENDROOT
BRANCH   1  13
ATOM     10  O   UNL     1       7.774  12.120  21.888  0.00  0.00    +0.000 OA
ATOM     11  C   UNL     1       8.659  12.103  21.036  0.00  0.00    +0.000 C 
ATOM     12  C   UNL     1       9.591  10.931  20.854  0.00  0.00    +0.000 C 
ATOM     13  C   UNL     1       9.955  10.714  19.393  0.00  0.00    +0.000 C 
ATOM     14  C   UNL     1      10.298  12.002  18.686  0.00  0.00    +0.000 A 
ATOM     15  C   UNL     1      11.096  11.997  17.531  0.00  0.00    +0.000 A 
ATOM     16  C   UNL     1      11.342  13.190  16.853  0.00  0.00    +0.000 A 
ATOM     17  C   UNL     1      10.792  14.376  17.327  0.00  0.00    +0.000 A 
ATOM     18  F   UNL     1      11.024  15.519  16.667  0.00  0.00    +0.000 F 
ATOM     19  C   UNL     1       9.993  14.396  18.465  0.00  0.00    +0.000 A 
ATOM     20  C   UNL     1       9.748  13.205  19.141  0.00  0.00    +0.000 A 
ATOM     21  N   UNL     1       8.885  13.193  20.241  0.00  0.00    +0.000 N 
ATOM     22  H   UNL     1       8.355  14.024  20.480  0.00  0.00    +0.000 HD
ENDBRANCH   1  13
BRANCH   7  23
ATOM     23  C   UNL     1       5.833   4.530  17.886  0.00  0.00    +0.000 C 
BRANCH  23  24
ATOM     24  C   UNL     1       4.394   4.791  18.281  0.00  0.00    +0.000 A 
ATOM     25  C   UNL     1       4.088   5.352  19.530  0.00  0.00    +0.000 A 
ATOM     26  C   UNL     1       2.761   5.459  19.951  0.00  0.00    +0.000 A 
ATOM     27  C   UNL     1       1.730   5.014  19.128  0.00  0.00    +0.000 A 
ATOM     28  C   UNL     1       2.020   4.485  17.871  0.00  0.00    +0.000 A 
ATOM     29  C   UNL     1       3.346   4.375  17.449  0.00  0.00    +0.000 A 
ENDBRANCH  23  24
ENDBRANCH   7  23
TORSDOF 3
ENDMDL
MODEL 2
REMARK VINA RESULT:      -8.5      5.649      8.420
REMARK  Name = 
REMARK  3 active torsions:
REMARK  status: ('A' for Active; 'I' for Inactive)
REMARK    1  A    between atoms: C_4  and  C_5
REMARK    2  A    between atoms: C_11  and  C_12
REMARK    3  A    between atoms: C_12  and  C_13
REMARK                            x       y       z     vdW  Elec       q    Type
REMARK                         _______ _______ _______ _____ _____    ______ ____
ROOT
ATOM      1  C   UNL     1       2.721   6.232  18.675  0.00  0.00    +0.000 C 
ATOM      2  O   UNL     1       2.100   5.684  19.584  0.00  0.00    +0.000 OA
ATOM      3  N   UNL     1       2.617   7.554  18.300  0.00  0.00    +0.000 N 
ATOM      4  C   UNL     1       1.799   8.417  18.979  0.00  0.00    +0.000 A 
ATOM      5  N   UNL     1       1.215   8.237  20.134  0.00  0.00    +0.000 NA
ATOM      6  C   UNL     1       0.395   9.307  20.402  0.00  0.00    +0.000 A 
ATOM      7  C   UNL     1       0.376  10.302  19.448  0.00  0.00    +0.000 A 
ATOM      8  S   UNL     1       1.498   9.907  18.203  0.00  0.00    +0.000 S 
ATOM      9  H   UNL     1       3.006   7.897  17.431  0.00  0.00    +0.000 HD
ENDROOT
BRANCH   1  13
ATOM     10  O   UNL     1       3.920   2.640  20.159  0.00  0.00    +0.000 OA
ATOM     11  C   UNL     1       4.321   3.501  19.382  0.00  0.00    +0.000 C 
ATOM     12  C   UNL     1       3.551   3.908  18.150  0.00  0.00    +0.000 C 
ATOM     13  C   UNL     1       3.697   5.393  17.850  0.00  0.00    +0.000 C 
ATOM     14  C   UNL     1       5.123   5.870  17.978  0.00  0.00    +0.000 A 
ATOM     15  C   UNL     1       5.556   7.025  17.310  0.00  0.00    +0.000 A 
ATOM     16  C   UNL     1       6.858   7.488  17.498  0.00  0.00    +0.000 A 
ATOM     17  C   UNL     1       7.715   6.801  18.349  0.00  0.00    +0.000 A 
ATOM     18  F   UNL     1       8.963   7.255  18.534  0.00  0.00    +0.000 F 
ATOM     19  C   UNL     1       7.299   5.659  19.025  0.00  0.00    +0.000 A 
ATOM     20  C   UNL     1       5.999   5.198  18.837  0.00  0.00    +0.000 A 
ATOM     21  N   UNL     1       5.539   4.097  19.566  0.00  0.00    +0.000 N 
ATOM     22  H   UNL     1       6.109   3.704  20.306  0.00  0.00    +0.000 HD
ENDBRANCH   1  13
BRANCH   7  23
ATOM     23  C   UNL     1      -0.489  11.524  19.398  0.00  0.00    +0.000 C 
BRANCH  23  24
ATOM     24  C   UNL     1      -1.860  11.201  18.843  0.00  0.00    +0.000 A 
ATOM     25  C   UNL     1      -2.027  10.163  17.914  0.00  0.00    +0.000 A 
ATOM     26  C   UNL     1      -3.262   9.959  17.295  0.00  0.00    +0.000 A 
ATOM     27  C   UNL     1      -4.341  10.785  17.602  0.00  0.00    +0.000 A 
ATOM     28  C   UNL     1      -4.195  11.799  18.548  0.00  0.00    +0.000 A 
ATOM     29  C   UNL     1      -2.962  12.005  19.166  0.00  0.00    +0.000 A 
ENDBRANCH  23  24
ENDBRANCH   7  23
TORSDOF 3
ENDMDL
MODEL 3
REMARK VINA RESULT:      -8.3      6.600      8.834
REMARK  Name = 
REMARK  3 active torsions:
REMARK  status: ('A' for Active; 'I' for Inactive)
REMARK    1  A    between atoms: C_4  and  C_5
REMARK    2  A    between atoms: C_11  and  C_12
REMARK    3  A    between atoms: C_12  and  C_13
REMARK                            x       y       z     vdW  Elec       q    Type
REMARK                         _______ _______ _______ _____ _____    ______ ____
ROOT
ATOM      1  C   UNL     1       2.446   5.213  18.935  0.00  0.00    +0.000 C 
ATOM      2  O   UNL     1       1.931   4.937  20.017  0.00  0.00    +0.000 OA
ATOM      3  N   UNL     1       2.517   6.465  18.362  0.00  0.00    +0.000 N 
ATOM      4  C   UNL     1       2.028   7.566  19.014  0.00  0.00    +0.000 A 
ATOM      5  N   UNL     1       1.668   7.671  20.265  0.00  0.00    +0.000 NA
ATOM      6  C   UNL     1       1.133   8.919  20.482  0.00  0.00    +0.000 A 
ATOM      7  C   UNL     1       1.107   9.759  19.389  0.00  0.00    +0.000 A 
ATOM      8  S   UNL     1       1.860   8.969  18.057  0.00  0.00    +0.000 S 
ATOM      9  H   UNL     1       2.779   6.597  17.395  0.00  0.00    +0.000 HD
ENDROOT
BRANCH   1  13
ATOM     10  O   UNL     1       4.557   2.330  20.878  0.00  0.00    +0.000 OA
ATOM     11  C   UNL     1       4.487   2.832  19.760  0.00  0.00    +0.000 C 
ATOM     12  C   UNL     1       3.224   2.813  18.936  0.00  0.00    +0.000 C 
ATOM     13  C   UNL     1       3.061   4.081  18.111  0.00  0.00    +0.000 C 
ATOM     14  C   UNL     1       4.341   4.493  17.426  0.00  0.00    +0.000 A 
ATOM     15  C   UNL     1       4.315   5.306  16.283  0.00  0.00    +0.000 A 
ATOM     16  C   UNL     1       5.511   5.733  15.708  0.00  0.00    +0.000 A 
ATOM     17  C   UNL     1       6.721   5.350  16.274  0.00  0.00    +0.000 A 
ATOM     18  F   UNL     1       7.869   5.770  15.723  0.00  0.00    +0.000 F 
ATOM     19  C   UNL     1       6.764   4.551  17.411  0.00  0.00    +0.000 A 
ATOM     20  C   UNL     1       5.570   4.125  17.985  0.00  0.00    +0.000 A 
ATOM     21  N   UNL     1       5.592   3.386  19.172  0.00  0.00    +0.000 N 
ATOM     22  H   UNL     1       6.464   3.253  19.671  0.00  0.00    +0.000 HD
ENDBRANCH   1  13
BRANCH   7  23
ATOM     23  C   UNL     1       0.493  11.121  19.280  0.00  0.00    +0.000 C 
BRANCH  23  24
ATOM     24  C   UNL     1      -0.966  11.032  18.886  0.00  0.00    +0.000 A 
ATOM     25  C   UNL     1      -1.378  10.163  17.865  0.00  0.00    +0.000 A 
ATOM     26  C   UNL     1      -2.697  10.187  17.405  0.00  0.00    +0.000 A 
ATOM     27  C   UNL     1      -3.615  11.073  17.964  0.00  0.00    +0.000 A 
ATOM     28  C   UNL     1      -3.225  11.918  19.002  0.00  0.00    +0.000 A 
ATOM     29  C   UNL     1      -1.908  11.897  19.462  0.00  0.00    +0.000 A 
ENDBRANCH  23  24
ENDBRANCH   7  23
TORSDOF 3
ENDMDL
MODEL 4
REMARK VINA RESULT:      -8.2      5.831      8.274
REMARK  Name = 
REMARK  3 active torsions:
REMARK  status: ('A' for Active; 'I' for Inactive)
REMARK    1  A    between atoms: C_4  and  C_5
REMARK    2  A    between atoms: C_11  and  C_12
REMARK    3  A    between atoms: C_12  and  C_13
REMARK                            x       y       z     vdW  Elec       q    Type
REMARK                         _______ _______ _______ _____ _____    ______ ____
ROOT
ATOM      1  C   UNL     1       4.216   6.596  17.493  0.00  0.00    +0.000 C 
ATOM      2  O   UNL     1       4.516   7.407  16.619  0.00  0.00    +0.000 OA
ATOM      3  N   UNL     1       3.234   6.753  18.448  0.00  0.00    +0.000 N 
ATOM      4  C   UNL     1       2.445   7.872  18.469  0.00  0.00    +0.000 A 
ATOM      5  N   UNL     1       2.315   8.788  17.545  0.00  0.00    +0.000 NA
ATOM      6  C   UNL     1       1.506   9.795  18.013  0.00  0.00    +0.000 A 
ATOM      7  C   UNL     1       1.014   9.626  19.290  0.00  0.00    +0.000 A 
ATOM      8  S   UNL     1       1.529   8.097  19.891  0.00  0.00    +0.000 S 
ATOM      9  H   UNL     1       3.164   6.141  19.250  0.00  0.00    +0.000 HD
ENDROOT
BRANCH   1  13
ATOM     10  O   UNL     1       8.049   6.699  18.848  0.00  0.00    +0.000 OA
ATOM     11  C   UNL     1       7.338   5.998  18.133  0.00  0.00    +0.000 C 
ATOM     12  C   UNL     1       6.080   5.336  18.636  0.00  0.00    +0.000 C 
ATOM     13  C   UNL     1       4.997   5.283  17.568  0.00  0.00    +0.000 C 
ATOM     14  C   UNL     1       5.532   4.849  16.225  0.00  0.00    +0.000 A 
ATOM     15  C   UNL     1       4.682   4.284  15.262  0.00  0.00    +0.000 A 
ATOM     16  C   UNL     1       5.182   3.956  14.003  0.00  0.00    +0.000 A 
ATOM     17  C   UNL     1       6.521   4.193  13.712  0.00  0.00    +0.000 A 
ATOM     18  F   UNL     1       6.995   3.884  12.497  0.00  0.00    +0.000 F 
ATOM     19  C   UNL     1       7.374   4.760  14.652  0.00  0.00    +0.000 A 
ATOM     20  C   UNL     1       6.874   5.088  15.909  0.00  0.00    +0.000 A 
ATOM     21  N   UNL     1       7.696   5.728  16.841  0.00  0.00    +0.000 N 
ATOM     22  H   UNL     1       8.618   6.051  16.567  0.00  0.00    +0.000 HD
ENDBRANCH   1  13
BRANCH   7  23
ATOM     23  C   UNL     1       0.208  10.587  20.109  0.00  0.00    +0.000 C 
BRANCH  23  24
ATOM     24  C   UNL     1      -1.093  10.937  19.417  0.00  0.00    +0.000 A 
ATOM     25  C   UNL     1      -1.871  12.014  19.866  0.00  0.00    +0.000 A 
ATOM     26  C   UNL     1      -3.137  12.247  19.322  0.00  0.00    +0.000 A 
ATOM     27  C   UNL     1      -3.632  11.411  18.324  0.00  0.00    +0.000 A 
ATOM     28  C   UNL     1      -2.853  10.358  17.847  0.00  0.00    +0.000 A 
ATOM     29  C   UNL     1      -1.589  10.122  18.391  0.00  0.00    +0.000 A 
ENDBRANCH  23  24
ENDBRANCH   7  23
TORSDOF 3
ENDMDL
MODEL 5
REMARK VINA RESULT:      -8.2      6.798      8.751
REMARK  Name = 
REMARK  3 active torsions:
REMARK  status: ('A' for Active; 'I' for Inactive)
REMARK    1  A    between atoms: C_4  and  C_5
REMARK    2  A    between atoms: C_11  and  C_12
REMARK    3  A    between atoms: C_12  and  C_13
REMARK                            x       y       z     vdW  Elec       q    Type
REMARK                         _______ _______ _______ _____ _____    ______ ____
ROOT
ATOM      1  C   UNL     1       1.210   9.382  18.998  0.00  0.00    +0.000 C 
ATOM      2  O   UNL     1       0.806   9.065  20.115  0.00  0.00    +0.000 OA
ATOM      3  N   UNL     1       2.088   8.663  18.215  0.00  0.00    +0.000 N 
ATOM      4  C   UNL     1       2.571   7.450  18.630  0.00  0.00    +0.000 A 
ATOM      5  N   UNL     1       2.150   6.708  19.619  0.00  0.00    +0.000 NA
ATOM      6  C   UNL     1       2.981   5.622  19.760  0.00  0.00    +0.000 A 
ATOM      7  C   UNL     1       4.023   5.543  18.861  0.00  0.00    +0.000 A 
ATOM      8  S   UNL     1       3.899   6.848  17.744  0.00  0.00    +0.000 S 
ATOM      9  H   UNL     1       2.527   9.063  17.397  0.00  0.00    +0.000 HD
ENDROOT
BRANCH   1  13
ATOM     10  O   UNL     1       1.007  12.652  21.406  0.00  0.00    +0.000 OA
ATOM     11  C   UNL     1       0.492  12.228  20.376  0.00  0.00    +0.000 C 
ATOM     12  C   UNL     1       1.293  11.899  19.141  0.00  0.00    +0.000 C 
ATOM     13  C   UNL     1       0.726  10.701  18.394  0.00  0.00    +0.000 C 
ATOM     14  C   UNL     1      -0.776  10.761  18.263  0.00  0.00    +0.000 A 
ATOM     15  C   UNL     1      -1.437  10.057  17.244  0.00  0.00    +0.000 A 
ATOM     16  C   UNL     1      -2.829  10.070  17.183  0.00  0.00    +0.000 A 
ATOM     17  C   UNL     1      -3.552  10.779  18.135  0.00  0.00    +0.000 A 
ATOM     18  F   UNL     1      -4.892  10.782  18.078  0.00  0.00    +0.000 F 
ATOM     19  C   UNL     1      -2.913  11.476  19.155  0.00  0.00    +0.000 A 
ATOM     20  C   UNL     1      -1.523  11.462  19.215  0.00  0.00    +0.000 A 
ATOM     21  N   UNL     1      -0.866  12.092  20.277  0.00  0.00    +0.000 N 
ATOM     22  H   UNL     1      -1.399  12.461  21.056  0.00  0.00    +0.000 HD
ENDBRANCH   1  13
BRANCH   7  23
ATOM     23  C   UNL     1       5.147   4.554  18.828  0.00  0.00    +0.000 C 
BRANCH  23  24
ATOM     24  C   UNL     1       5.711   4.415  17.430  0.00  0.00    +0.000 A 
ATOM     25  C   UNL     1       7.031   4.799  17.151  0.00  0.00    +0.000 A 
ATOM     26  C   UNL     1       7.504   4.806  15.837  0.00  0.00    +0.000 A 
ATOM     27  C   UNL     1       6.665   4.423  14.792  0.00  0.00    +0.000 A 
ATOM     28  C   UNL     1       5.362   4.008  15.061  0.00  0.00    +0.000 A 
ATOM     29  C   UNL     1       4.887   4.003  16.373  0.00  0.00    +0.000 A 
ENDBRANCH  23  24
ENDBRANCH   7  23
TORSDOF 3
ENDMDL
MODEL 6
REMARK VINA RESULT:      -8.2      7.165     10.531
REMARK  Name = 
REMARK  3 active torsions:
REMARK  status: ('A' for Active; 'I' for Inactive)
REMARK    1  A    between atoms: C_4  and  C_5
REMARK    2  A    between atoms: C_11  and  C_12
REMARK    3  A    between atoms: C_12  and  C_13
REMARK                            x       y       z     vdW  Elec       q    Type
REMARK                         _______ _______ _______ _____ _____    ______ ____
ROOT
ATOM      1  C   UNL     1       2.377   7.431  19.022  0.00  0.00    +0.000 C 
ATOM      2  O   UNL     1       2.210   7.702  17.834  0.00  0.00    +0.000 OA
ATOM      3  N   UNL     1       1.882   8.139  20.097  0.00  0.00    +0.000 N 
ATOM      4  C   UNL     1       1.084   9.237  19.910  0.00  0.00    +0.000 A 
ATOM      5  N   UNL     1       0.499   9.633  18.811  0.00  0.00    +0.000 NA
ATOM      6  C   UNL     1      -0.118  10.840  19.034  0.00  0.00    +0.000 A 
ATOM      7  C   UNL     1      -0.008  11.344  20.312  0.00  0.00    +0.000 A 
ATOM      8  S   UNL     1       0.841  10.209  21.291  0.00  0.00    +0.000 S 
ATOM      9  H   UNL     1       2.210   7.980  21.040  0.00  0.00    +0.000 HD
ENDROOT
BRANCH   1  13
ATOM     10  O   UNL     1       5.050   6.063  16.279  0.00  0.00    +0.000 OA
ATOM     11  C   UNL     1       4.406   5.641  17.235  0.00  0.00    +0.000 C 
ATOM     12  C   UNL     1       4.547   6.207  18.626  0.00  0.00    +0.000 C 
ATOM     13  C   UNL     1       3.225   6.209  19.378  0.00  0.00    +0.000 C 
ATOM     14  C   UNL     1       2.468   4.913  19.220  0.00  0.00    +0.000 A 
ATOM     15  C   UNL     1       1.510   4.520  20.167  0.00  0.00    +0.000 A 
ATOM     16  C   UNL     1       0.772   3.355  19.965  0.00  0.00    +0.000 A 
ATOM     17  C   UNL     1       0.992   2.592  18.824  0.00  0.00    +0.000 A 
ATOM     18  F   UNL     1       0.274   1.477  18.629  0.00  0.00    +0.000 F 
ATOM     19  C   UNL     1       1.932   2.972  17.872  0.00  0.00    +0.000 A 
ATOM     20  C   UNL     1       2.668   4.135  18.074  0.00  0.00    +0.000 A 
ATOM     21  N   UNL     1       3.561   4.574  17.093  0.00  0.00    +0.000 N 
ATOM     22  H   UNL     1       3.595   4.109  16.192  0.00  0.00    +0.000 HD
ENDBRANCH   1  13
BRANCH   7  23
ATOM     23  C   UNL     1      -0.469  12.672  20.830  0.00  0.00    +0.000 C 
BRANCH  23  24
ATOM     24  C   UNL     1      -1.823  12.557  21.498  0.00  0.00    +0.000 A 
ATOM     25  C   UNL     1      -2.995  12.871  20.794  0.00  0.00    +0.000 A 
ATOM     26  C   UNL     1      -4.228  12.904  21.451  0.00  0.00    +0.000 A 
ATOM     27  C   UNL     1      -4.301  12.618  22.812  0.00  0.00    +0.000 A 
ATOM     28  C   UNL     1      -3.147  12.272  23.515  0.00  0.00    +0.000 A 
ATOM     29  C   UNL     1      -1.915  12.241  22.861  0.00  0.00    +0.000 A 
ENDBRANCH  23  24
ENDBRANCH   7  23
TORSDOF 3
ENDMDL
MODEL 7
REMARK VINA RESULT:      -8.1      7.072      9.876
REMARK  Name = 
REMARK  3 active torsions:
REMARK  status: ('A' for Active; 'I' for Inactive)
REMARK    1  A    between atoms: C_4  and  C_5
REMARK    2  A    between atoms: C_11  and  C_12
REMARK    3  A    between atoms: C_12  and  C_13
REMARK                            x       y       z     vdW  Elec       q    Type
REMARK                         _______ _______ _______ _____ _____    ______ ____
ROOT
ATOM      1  C   UNL     1       3.849   6.562  18.620  0.00  0.00    +0.000 C 
ATOM      2  O   UNL     1       4.511   7.101  17.735  0.00  0.00    +0.000 OA
ATOM      3  N   UNL     1       2.691   7.053  19.185  0.00  0.00    +0.000 N 
ATOM      4  C   UNL     1       2.137   8.226  18.747  0.00  0.00    +0.000 A 
ATOM      5  N   UNL     1       2.424   8.902  17.665  0.00  0.00    +0.000 NA
ATOM      6  C   UNL     1       1.711  10.077  17.660  0.00  0.00    +0.000 A 
ATOM      7  C   UNL     1       0.873  10.276  18.736  0.00  0.00    +0.000 A 
ATOM      8  S   UNL     1       0.928   8.887  19.753  0.00  0.00    +0.000 S 
ATOM      9  H   UNL     1       2.302   6.664  20.032  0.00  0.00    +0.000 HD
ENDROOT
BRANCH   1  13
ATOM     10  O   UNL     1       6.291   4.264  16.318  0.00  0.00    +0.000 OA
ATOM     11  C   UNL     1       5.493   4.130  17.241  0.00  0.00    +0.000 C 
ATOM     12  C   UNL     1       5.668   4.813  18.575  0.00  0.00    +0.000 C 
ATOM     13  C   UNL     1       4.336   5.226  19.183  0.00  0.00    +0.000 C 
ATOM     14  C   UNL     1       3.293   4.140  19.082  0.00  0.00    +0.000 A 
ATOM     15  C   UNL     1       2.200   4.109  19.961  0.00  0.00    +0.000 A 
ATOM     16  C   UNL     1       1.211   3.139  19.805  0.00  0.00    +0.000 A 
ATOM     17  C   UNL     1       1.317   2.210  18.776  0.00  0.00    +0.000 A 
ATOM     18  F   UNL     1       0.360   1.284  18.624  0.00  0.00    +0.000 F 
ATOM     19  C   UNL     1       2.390   2.232  17.891  0.00  0.00    +0.000 A 
ATOM     20  C   UNL     1       3.376   3.201  18.048  0.00  0.00    +0.000 A 
ATOM     21  N   UNL     1       4.421   3.287  17.123  0.00  0.00    +0.000 N 
ATOM     22  H   UNL     1       4.404   2.720  16.283  0.00  0.00    +0.000 HD
ENDBRANCH   1  13
BRANCH   7  23
ATOM     23  C   UNL     1       0.061  11.489  19.069  0.00  0.00    +0.000 C 
BRANCH  23  24
ATOM     24  C   UNL     1      -1.369  11.337  18.595  0.00  0.00    +0.000 A 
ATOM     25  C   UNL     1      -2.394  12.113  19.157  0.00  0.00    +0.000 A 
ATOM     26  C   UNL     1      -3.728  11.872  18.824  0.00  0.00    +0.000 A 
ATOM     27  C   UNL     1      -4.050  10.859  17.923  0.00  0.00    +0.000 A 
ATOM     28  C   UNL     1      -3.038  10.103  17.333  0.00  0.00    +0.000 A 
ATOM     29  C   UNL     1      -1.704  10.342  17.667  0.00  0.00    +0.000 A 
ENDBRANCH  23  24
ENDBRANCH   7  23
TORSDOF 3
ENDMDL
MODEL 8
REMARK VINA RESULT:      -8.1      6.233      7.911
REMARK  Name = 
REMARK  3 active torsions:
REMARK  status: ('A' for Active; 'I' for Inactive)
REMARK    1  A    between atoms: C_4  and  C_5
REMARK    2  A    between atoms: C_11  and  C_12
REMARK    3  A    between atoms: C_12  and  C_13
REMARK                            x       y       z     vdW  Elec       q    Type
REMARK                         _______ _______ _______ _____ _____    ______ ____
ROOT
ATOM      1  C   UNL     1       0.821   9.860  18.814  0.00  0.00    +0.000 C 
ATOM      2  O   UNL     1       1.196  10.165  17.684  0.00  0.00    +0.000 OA
ATOM      3  N   UNL     1       1.228   8.760  19.539  0.00  0.00    +0.000 N 
ATOM      4  C   UNL     1       2.169   7.898  19.042  0.00  0.00    +0.000 A 
ATOM      5  N   UNL     1       2.956   8.066  18.012  0.00  0.00    +0.000 NA
ATOM      6  C   UNL     1       3.671   6.913  17.792  0.00  0.00    +0.000 A 
ATOM      7  C   UNL     1       3.429   5.880  18.672  0.00  0.00    +0.000 A 
ATOM      8  S   UNL     1       2.315   6.414  19.871  0.00  0.00    +0.000 S 
ATOM      9  H   UNL     1       0.745   8.461  20.376  0.00  0.00    +0.000 HD
ENDROOT
BRANCH   1  13
ATOM     10  O   UNL     1      -2.399  11.119  16.673  0.00  0.00    +0.000 OA
ATOM     11  C   UNL     1      -1.741  11.470  17.648  0.00  0.00    +0.000 C 
ATOM     12  C   UNL     1      -1.587  10.610  18.878  0.00  0.00    +0.000 C 
ATOM     13  C   UNL     1      -0.209  10.754  19.506  0.00  0.00    +0.000 C 
ATOM     14  C   UNL     1       0.238  12.193  19.593  0.00  0.00    +0.000 A 
ATOM     15  C   UNL     1       1.206  12.589  20.529  0.00  0.00    +0.000 A 
ATOM     16  C   UNL     1       1.656  13.908  20.545  0.00  0.00    +0.000 A 
ATOM     17  C   UNL     1       1.143  14.820  19.631  0.00  0.00    +0.000 A 
ATOM     18  F   UNL     1       1.585  16.086  19.644  0.00  0.00    +0.000 F 
ATOM     19  C   UNL     1       0.189  14.442  18.692  0.00  0.00    +0.000 A 
ATOM     20  C   UNL     1      -0.259  13.125  18.676  0.00  0.00    +0.000 A 
ATOM     21  N   UNL     1      -1.159  12.707  17.691  0.00  0.00    +0.000 N 
ATOM     22  H   UNL     1      -1.401  13.329  16.927  0.00  0.00    +0.000 HD
ENDBRANCH   1  13
BRANCH   7  23
ATOM     23  C   UNL     1       3.961   4.480  18.628  0.00  0.00    +0.000 C 
BRANCH  23  24
ATOM     24  C   UNL     1       5.075   4.350  17.611  0.00  0.00    +0.000 A 
ATOM     25  C   UNL     1       6.404   4.621  17.970  0.00  0.00    +0.000 A 
ATOM     26  C   UNL     1       7.408   4.641  17.000  0.00  0.00    +0.000 A 
ATOM     27  C   UNL     1       7.096   4.386  15.666  0.00  0.00    +0.000 A 
ATOM     28  C   UNL     1       5.784   4.083  15.304  0.00  0.00    +0.000 A 
ATOM     29  C   UNL     1       4.779   4.065  16.271  0.00  0.00    +0.000 A 
ENDBRANCH  23  24
ENDBRANCH   7  23
TORSDOF 3
ENDMDL
MODEL 9
REMARK VINA RESULT:      -8.1      5.965      8.330
REMARK  Name = 
REMARK  3 active torsions:
REMARK  status: ('A' for Active; 'I' for Inactive)
REMARK    1  A    between atoms: C_4  and  C_5
REMARK    2  A    between atoms: C_11  and  C_12
REMARK    3  A    between atoms: C_12  and  C_13
REMARK                            x       y       z     vdW  Elec       q    Type
REMARK                         _______ _______ _______ _____ _____    ______ ____
ROOT
ATOM      1  C   UNL     1       4.217   6.191  17.583  0.00  0.00    +0.000 C 
ATOM      2  O   UNL     1       4.392   7.044  16.715  0.00  0.00    +0.000 OA
ATOM      3  N   UNL     1       3.344   6.278  18.647  0.00  0.00    +0.000 N 
ATOM      4  C   UNL     1       2.528   7.367  18.801  0.00  0.00    +0.000 A 
ATOM      5  N   UNL     1       2.268   8.312  17.936  0.00  0.00    +0.000 NA
ATOM      6  C   UNL     1       1.486   9.272  18.531  0.00  0.00    +0.000 A 
ATOM      7  C   UNL     1       1.145   9.038  19.846  0.00  0.00    +0.000 A 
ATOM      8  S   UNL     1       1.770   7.506  20.323  0.00  0.00    +0.000 S 
ATOM      9  H   UNL     1       3.382   5.634  19.425  0.00  0.00    +0.000 HD
ENDROOT
BRANCH   1  13
ATOM     10  O   UNL     1       8.026   6.258  19.004  0.00  0.00    +0.000 OA
ATOM     11  C   UNL     1       7.349   5.624  18.201  0.00  0.00    +0.000 C 
ATOM     12  C   UNL     1       6.107   4.867  18.602  0.00  0.00    +0.000 C 
ATOM     13  C   UNL     1       5.041   4.904  17.517  0.00  0.00    +0.000 C 
ATOM     14  C   UNL     1       5.607   4.649  16.142  0.00  0.00    +0.000 A 
ATOM     15  C   UNL     1       4.789   4.173  15.105  0.00  0.00    +0.000 A 
ATOM     16  C   UNL     1       5.316   4.011  13.825  0.00  0.00    +0.000 A 
ATOM     17  C   UNL     1       6.649   4.324  13.586  0.00  0.00    +0.000 A 
ATOM     18  F   UNL     1       7.150   4.175  12.351  0.00  0.00    +0.000 F 
ATOM     19  C   UNL     1       7.471   4.803  14.600  0.00  0.00    +0.000 A 
ATOM     20  C   UNL     1       6.944   4.965  15.878  0.00  0.00    +0.000 A 
ATOM     21  N   UNL     1       7.732   5.518  16.892  0.00  0.00    +0.000 N 
ATOM     22  H   UNL     1       8.646   5.900  16.673  0.00  0.00    +0.000 HD
ENDBRANCH   1  13
BRANCH   7  23
ATOM     23  C   UNL     1       0.407   9.939  20.788  0.00  0.00    +0.000 C 
BRANCH  23  24
ATOM     24  C   UNL     1       0.063  11.257  20.127  0.00  0.00    +0.000 A 
ATOM     25  C   UNL     1      -1.082  11.375  19.325  0.00  0.00    +0.000 A 
ATOM     26  C   UNL     1      -1.321  12.545  18.601  0.00  0.00    +0.000 A 
ATOM     27  C   UNL     1      -0.424  13.608  18.676  0.00  0.00    +0.000 A 
ATOM     28  C   UNL     1       0.701  13.514  19.496  0.00  0.00    +0.000 A 
ATOM     29  C   UNL     1       0.942  12.345  20.218  0.00  0.00    +0.000 A 
ENDBRANCH  23  24
ENDBRANCH   7  23
TORSDOF 3
ENDMDL
