MODEL 1
REMARK VINA RESULT:      -9.3      0.000      0.000
REMARK  Name = 
REMARK  7 active torsions:
REMARK  status: ('A' for Active; 'I' for Inactive)
REMARK    1  A    between atoms: C_1  and  C_2
REMARK    2  A    between atoms: C_2  and  C_3
REMARK    3  A    between atoms: C_2  and  C_10
REMARK    4  A    between atoms: C_3  and  C_4
REMARK    5  A    between atoms: N_8  and  C_9
REMARK    6  A    between atoms: C_14  and  N_15
REMARK    7  A    between atoms: C_16  and  C_18
REMARK                            x       y       z     vdW  Elec       q    Type
REMARK                         _______ _______ _______ _____ _____    ______ ____
ROOT
ATOM      1  N   UNL     1       2.220   7.330  19.079  0.00  0.00    +0.000 N 
ATOM      2  C   UNL     1       1.937   8.614  18.558  0.00  0.00    +0.000 C 
ATOM      3  O   UNL     1       2.234   9.003  17.424  0.00  0.00    +0.000 OA
ATOM      4  H   UNL     1       2.023   7.187  20.061  0.00  0.00    +0.000 HD
ENDROOT
BRANCH   2   5
ATOM      5  C   UNL     1       1.019   9.683  19.347  0.00  0.00    +0.000 C 
ATOM      6  N   UNL     1       0.846   9.596  20.619  0.00  0.00    +0.000 NA
ATOM      7  C   UNL     1      -0.049  10.405  21.510  0.00  0.00    +0.000 C 
ATOM      8  C   UNL     1      -0.097  11.925  21.777  0.00  0.00    +0.000 A 
ATOM      9  C   UNL     1      -0.961  12.407  22.796  0.00  0.00    +0.000 A 
ATOM     10  C   UNL     1      -1.162  13.764  23.050  0.00  0.00    +0.000 A 
ATOM     11  C   UNL     1      -0.470  14.661  22.273  0.00  0.00    +0.000 A 
ATOM     12  N   UNL     1       0.359  14.274  21.284  0.00  0.00    +0.000 NA
ATOM     13  C   UNL     1       0.517  12.934  21.043  0.00  0.00    +0.000 A 
ATOM     14  C   UNL     1       1.243  12.625  19.784  0.00  0.00    +0.000 C 
ATOM     15  C   UNL     1       0.216  12.012  18.837  0.00  0.00    +0.000 C 
ATOM     16  N   UNL     1       0.579  10.664  18.463  0.00  0.00    +0.000 N 
ATOM     17  H   UNL     1       1.187  10.669  17.635  0.00  0.00    +0.000 HD
ENDBRANCH   2   5
BRANCH   1  22
ATOM     18  C   UNL     1       4.659   5.048  17.111  0.00  0.00    +0.000 A 
ATOM     19  C   UNL     1       3.827   3.930  16.946  0.00  0.00    +0.000 A 
ATOM     20  C   UNL     1       2.517   3.936  17.409  0.00  0.00    +0.000 A 
ATOM     21  C   UNL     1       2.003   5.054  18.080  0.00  0.00    +0.000 A 
ATOM     22  C   UNL     1       2.761   6.201  18.316  0.00  0.00    +0.000 A 
ATOM     23  C   UNL     1       4.106   6.181  17.813  0.00  0.00    +0.000 A 
BRANCH  18  25
ATOM     24  C   UNL     1       7.126   4.582  17.680  0.00  0.00    +0.000 C 
ATOM     25  C   UNL     1       6.106   4.887  16.550  0.00  0.00    +0.000 C 
BRANCH  25  26
ATOM     26  C   UNL     1       6.296   3.911  15.370  0.00  0.00    +0.000 C 
BRANCH  26  27
ATOM     27  C   UNL     1       6.871   4.497  14.100  0.00  0.00    +0.000 A 
ATOM     28  N   UNL     1       7.736   5.496  14.066  0.00  0.00    +0.000 NA
ATOM     29  N   UNL     1       8.112   5.718  12.765  0.00  0.00    +0.000 NA
ATOM     30  C   UNL     1       7.466   4.859  12.017  0.00  0.00    +0.000 A 
ATOM     31  N   UNL     1       6.661   4.086  12.803  0.00  0.00    +0.000 N 
ATOM     32  C   UNL     1       5.786   3.063  12.301  0.00  0.00    +0.000 C 
ENDBRANCH  26  27
ENDBRANCH  25  26
ENDBRANCH  18  25
ENDBRANCH   1  22
TORSDOF 5
ENDMDL
MODEL 2
REMARK VINA RESULT:      -9.2      2.283      3.523
REMARK  Name = 
REMARK  7 active torsions:
REMARK  status: ('A' for Active; 'I' for Inactive)
REMARK    1  A    between atoms: C_1  and  C_2
REMARK    2  A    between atoms: C_2  and  C_3
REMARK    3  A    between atoms: C_2  and  C_10
REMARK    4  A    between atoms: C_3  and  C_4
REMARK    5  A    between atoms: N_8  and  C_9
REMARK    6  A    between atoms: C_14  and  N_15
REMARK    7  A    between atoms: C_16  and  C_18
REMARK                            x       y       z     vdW  Elec       q    Type
REMARK                         _______ _______ _______ _____ _____    ______ ____
ROOT
ATOM      1  N   UNL     1       2.284   6.657  18.477  0.00  0.00    +0.000 N 
ATOM      2  C   UNL     1       1.934   6.860  19.832  0.00  0.00    +0.000 C 
ATOM      3  O   UNL     1       1.964   5.994  20.712  0.00  0.00    +0.000 OA
ATOM      4  H   UNL     1       2.101   7.423  17.842  0.00  0.00    +0.000 HD
ENDROOT
BRANCH   2   5
ATOM      5  C   UNL     1       1.610   8.325  20.429  0.00  0.00    +0.000 C 
ATOM      6  N   UNL     1       1.170   9.267  19.672  0.00  0.00    +0.000 NA
ATOM      7  C   UNL     1       0.925  10.710  20.001  0.00  0.00    +0.000 C 
ATOM      8  C   UNL     1       0.004  11.359  21.057  0.00  0.00    +0.000 A 
ATOM      9  C   UNL     1      -0.146  12.771  21.048  0.00  0.00    +0.000 A 
ATOM     10  C   UNL     1      -0.866  13.469  22.019  0.00  0.00    +0.000 A 
ATOM     11  C   UNL     1      -1.460  12.734  23.015  0.00  0.00    +0.000 A 
ATOM     12  N   UNL     1      -1.351  11.394  23.089  0.00  0.00    +0.000 NA
ATOM     13  C   UNL     1      -0.618  10.738  22.135  0.00  0.00    +0.000 A 
ATOM     14  C   UNL     1      -0.351   9.310  22.449  0.00  0.00    +0.000 C 
ATOM     15  C   UNL     1       1.143   9.208  22.739  0.00  0.00    +0.000 C 
ATOM     16  N   UNL     1       1.803   8.320  21.807  0.00  0.00    +0.000 N 
ATOM     17  H   UNL     1       1.775   7.352  22.149  0.00  0.00    +0.000 HD
ENDBRANCH   2   5
BRANCH   1  22
ATOM     18  C   UNL     1       4.680   4.276  16.575  0.00  0.00    +0.000 A 
ATOM     19  C   UNL     1       4.136   3.048  16.980  0.00  0.00    +0.000 A 
ATOM     20  C   UNL     1       3.010   2.995  17.794  0.00  0.00    +0.000 A 
ATOM     21  C   UNL     1       2.407   4.175  18.254  0.00  0.00    +0.000 A 
ATOM     22  C   UNL     1       2.892   5.442  17.928  0.00  0.00    +0.000 A 
ATOM     23  C   UNL     1       4.045   5.472  17.071  0.00  0.00    +0.000 A 
BRANCH  18  25
ATOM     24  C   UNL     1       5.576   4.121  14.167  0.00  0.00    +0.000 C 
ATOM     25  C   UNL     1       5.950   4.173  15.673  0.00  0.00    +0.000 C 
BRANCH  25  26
ATOM     26  C   UNL     1       7.070   5.205  15.919  0.00  0.00    +0.000 C 
BRANCH  26  27
ATOM     27  C   UNL     1       7.447   5.456  17.361  0.00  0.00    +0.000 A 
ATOM     28  N   UNL     1       7.683   4.502  18.246  0.00  0.00    +0.000 NA
ATOM     29  N   UNL     1       8.079   5.076  19.428  0.00  0.00    +0.000 NA
ATOM     30  C   UNL     1       8.071   6.374  19.256  0.00  0.00    +0.000 A 
ATOM     31  N   UNL     1       7.663   6.663  17.986  0.00  0.00    +0.000 N 
ATOM     32  C   UNL     1       7.507   7.996  17.473  0.00  0.00    +0.000 C 
ENDBRANCH  26  27
ENDBRANCH  25  26
ENDBRANCH  18  25
ENDBRANCH   1  22
TORSDOF 5
ENDMDL
MODEL 3
REMARK VINA RESULT:      -8.9      1.431      2.064
REMARK  Name = 
REMARK  7 active torsions:
REMARK  status: ('A' for Active; 'I' for Inactive)
REMARK    1  A    between atoms: C_1  and  C_2
REMARK    2  A    between atoms: C_2  and  C_3
REMARK    3  A    between atoms: C_2  and  C_10
REMARK    4  A    between atoms: C_3  and  C_4
REMARK    5  A    between atoms: N_8  and  C_9
REMARK    6  A    between atoms: C_14  and  N_15
REMARK    7  A    between atoms: C_16  and  C_18
REMARK                            x       y       z     vdW  Elec       q    Type
REMARK                         _______ _______ _______ _____ _____    ______ ____
ROOT
ATOM      1  N   UNL     1       1.946   7.068  18.686  0.00  0.00    +0.000 N 
ATOM      2  C   UNL     1       1.816   7.258  20.081  0.00  0.00    +0.000 C 
ATOM      3  O   UNL     1       2.102   6.420  20.943  0.00  0.00    +0.000 OA
ATOM      4  H   UNL     1       1.565   7.794  18.092  0.00  0.00    +0.000 HD
ENDROOT
BRANCH   2   5
ATOM      5  C   UNL     1       1.431   8.687  20.725  0.00  0.00    +0.000 C 
ATOM      6  N   UNL     1       1.019   9.657  19.987  0.00  0.00    +0.000 NA
ATOM      7  C   UNL     1       0.727  11.079  20.368  0.00  0.00    +0.000 C 
ATOM      8  C   UNL     1      -0.265  11.662  21.396  0.00  0.00    +0.000 A 
ATOM      9  C   UNL     1      -0.441  13.070  21.444  0.00  0.00    +0.000 A 
ATOM     10  C   UNL     1      -1.230  13.711  22.401  0.00  0.00    +0.000 A 
ATOM     11  C   UNL     1      -1.868  12.920  23.324  0.00  0.00    +0.000 A 
ATOM     12  N   UNL     1      -1.739  11.580  23.343  0.00  0.00    +0.000 NA
ATOM     13  C   UNL     1      -0.939  10.982  22.405  0.00  0.00    +0.000 A 
ATOM     14  C   UNL     1      -0.664   9.545  22.667  0.00  0.00    +0.000 C 
ATOM     15  C   UNL     1       0.812   9.452  23.041  0.00  0.00    +0.000 C 
ATOM     16  N   UNL     1       1.542   8.620  22.111  0.00  0.00    +0.000 N 
ATOM     17  H   UNL     1       1.511   7.637  22.405  0.00  0.00    +0.000 HD
ENDBRANCH   2   5
BRANCH   1  22
ATOM     18  C   UNL     1       4.594   4.818  16.966  0.00  0.00    +0.000 A 
ATOM     19  C   UNL     1       3.858   3.625  16.900  0.00  0.00    +0.000 A 
ATOM     20  C   UNL     1       2.543   3.567  17.349  0.00  0.00    +0.000 A 
ATOM     21  C   UNL     1       1.929   4.698  17.906  0.00  0.00    +0.000 A 
ATOM     22  C   UNL     1       2.589   5.920  18.039  0.00  0.00    +0.000 A 
ATOM     23  C   UNL     1       3.940   5.962  17.552  0.00  0.00    +0.000 A 
BRANCH  18  25
ATOM     24  C   UNL     1       7.065   4.447  17.586  0.00  0.00    +0.000 C 
ATOM     25  C   UNL     1       6.059   4.724  16.436  0.00  0.00    +0.000 C 
BRANCH  25  26
ATOM     26  C   UNL     1       6.315   3.771  15.250  0.00  0.00    +0.000 C 
BRANCH  26  27
ATOM     27  C   UNL     1       6.872   4.399  13.992  0.00  0.00    +0.000 A 
ATOM     28  N   UNL     1       7.738   5.398  13.980  0.00  0.00    +0.000 NA
ATOM     29  N   UNL     1       8.095   5.664  12.681  0.00  0.00    +0.000 NA
ATOM     30  C   UNL     1       7.437   4.831  11.915  0.00  0.00    +0.000 A 
ATOM     31  N   UNL     1       6.642   4.034  12.685  0.00  0.00    +0.000 N 
ATOM     32  C   UNL     1       5.757   3.029  12.162  0.00  0.00    +0.000 C 
ENDBRANCH  26  27
ENDBRANCH  25  26
ENDBRANCH  18  25
ENDBRANCH   1  22
TORSDOF 5
ENDMDL
MODEL 4
REMARK VINA RESULT:      -8.7      2.046      3.349
REMARK  Name = 
REMARK  7 active torsions:
REMARK  status: ('A' for Active; 'I' for Inactive)
REMARK    1  A    between atoms: C_1  and  C_2
REMARK    2  A    between atoms: C_2  and  C_3
REMARK    3  A    between atoms: C_2  and  C_10
REMARK    4  A    between atoms: C_3  and  C_4
REMARK    5  A    between atoms: N_8  and  C_9
REMARK    6  A    between atoms: C_14  and  N_15
REMARK    7  A    between atoms: C_16  and  C_18
REMARK                            x       y       z     vdW  Elec       q    Type
REMARK                         _______ _______ _______ _____ _____    ______ ____
ROOT
ATOM      1  N   UNL     1       2.045   6.590  18.628  0.00  0.00    +0.000 N 
ATOM      2  C   UNL     1       1.826   6.842  20.002  0.00  0.00    +0.000 C 
ATOM      3  O   UNL     1       1.943   6.008  20.906  0.00  0.00    +0.000 OA
ATOM      4  H   UNL     1       1.800   7.333  17.987  0.00  0.00    +0.000 HD
ENDROOT
BRANCH   2   5
ATOM      5  C   UNL     1       1.556   8.327  20.575  0.00  0.00    +0.000 C 
ATOM      6  N   UNL     1       1.113   9.262  19.810  0.00  0.00    +0.000 NA
ATOM      7  C   UNL     1       0.912  10.718  20.112  0.00  0.00    +0.000 C 
ATOM      8  C   UNL     1       0.042  11.412  21.182  0.00  0.00    +0.000 A 
ATOM      9  C   UNL     1      -0.076  12.827  21.145  0.00  0.00    +0.000 A 
ATOM     10  C   UNL     1      -0.748  13.564  22.121  0.00  0.00    +0.000 A 
ATOM     11  C   UNL     1      -1.326  12.867  23.153  0.00  0.00    +0.000 A 
ATOM     12  N   UNL     1      -1.245  11.526  23.256  0.00  0.00    +0.000 NA
ATOM     13  C   UNL     1      -0.559  10.832  22.294  0.00  0.00    +0.000 A 
ATOM     14  C   UNL     1      -0.315   9.405  22.633  0.00  0.00    +0.000 C 
ATOM     15  C   UNL     1       1.185   9.274  22.877  0.00  0.00    +0.000 C 
ATOM     16  N   UNL     1       1.793   8.349  21.946  0.00  0.00    +0.000 N 
ATOM     17  H   UNL     1       1.754   7.391  22.311  0.00  0.00    +0.000 HD
ENDBRANCH   2   5
BRANCH   1  22
ATOM     18  C   UNL     1       4.416   4.107  16.826  0.00  0.00    +0.000 A 
ATOM     19  C   UNL     1       3.731   2.913  17.100  0.00  0.00    +0.000 A 
ATOM     20  C   UNL     1       2.527   2.919  17.794  0.00  0.00    +0.000 A 
ATOM     21  C   UNL     1       1.982   4.122  18.266  0.00  0.00    +0.000 A 
ATOM     22  C   UNL     1       2.603   5.355  18.067  0.00  0.00    +0.000 A 
ATOM     23  C   UNL     1       3.836   5.328  17.331  0.00  0.00    +0.000 A 
BRANCH  18  25
ATOM     24  C   UNL     1       5.758   4.752  14.727  0.00  0.00    +0.000 C 
ATOM     25  C   UNL     1       5.758   3.938  16.048  0.00  0.00    +0.000 C 
BRANCH  25  26
ATOM     26  C   UNL     1       7.061   4.184  16.837  0.00  0.00    +0.000 C 
BRANCH  26  27
ATOM     27  C   UNL     1       7.384   5.624  17.170  0.00  0.00    +0.000 A 
ATOM     28  N   UNL     1       7.492   6.589  16.272  0.00  0.00    +0.000 NA
ATOM     29  N   UNL     1       7.707   7.779  16.921  0.00  0.00    +0.000 NA
ATOM     30  C   UNL     1       7.736   7.527  18.205  0.00  0.00    +0.000 A 
ATOM     31  N   UNL     1       7.560   6.190  18.411  0.00  0.00    +0.000 N 
ATOM     32  C   UNL     1       7.573   5.565  19.706  0.00  0.00    +0.000 C 
ENDBRANCH  26  27
ENDBRANCH  25  26
ENDBRANCH  18  25
ENDBRANCH   1  22
TORSDOF 5
ENDMDL
MODEL 5
REMARK VINA RESULT:      -8.6      1.973      2.822
REMARK  Name = 
REMARK  7 active torsions:
REMARK  status: ('A' for Active; 'I' for Inactive)
REMARK    1  A    between atoms: C_1  and  C_2
REMARK    2  A    between atoms: C_2  and  C_3
REMARK    3  A    between atoms: C_2  and  C_10
REMARK    4  A    between atoms: C_3  and  C_4
REMARK    5  A    between atoms: N_8  and  C_9
REMARK    6  A    between atoms: C_14  and  N_15
REMARK    7  A    between atoms: C_16  and  C_18
REMARK                            x       y       z     vdW  Elec       q    Type
REMARK                         _______ _______ _______ _____ _____    ______ ____
ROOT
ATOM      1  N   UNL     1       2.441   7.105  19.202  0.00  0.00    +0.000 N 
ATOM      2  C   UNL     1       2.038   8.304  18.569  0.00  0.00    +0.000 C 
ATOM      3  O   UNL     1       2.234   8.581  17.381  0.00  0.00    +0.000 OA
ATOM      4  H   UNL     1       2.318   7.060  20.206  0.00  0.00    +0.000 HD
ENDROOT
BRANCH   2   5
ATOM      5  C   UNL     1       1.105   9.397  19.304  0.00  0.00    +0.000 C 
ATOM      6  N   UNL     1       0.764   9.255  20.537  0.00  0.00    +0.000 NA
ATOM      7  C   UNL     1      -0.179  10.083  21.359  0.00  0.00    +0.000 C 
ATOM      8  C   UNL     1      -0.152  11.585  21.715  0.00  0.00    +0.000 A 
ATOM      9  C   UNL     1      -1.104  12.077  22.646  0.00  0.00    +0.000 A 
ATOM     10  C   UNL     1      -1.239  13.431  22.959  0.00  0.00    +0.000 A 
ATOM     11  C   UNL     1      -0.391  14.311  22.333  0.00  0.00    +0.000 A 
ATOM     12  N   UNL     1       0.529  13.914  21.432  0.00  0.00    +0.000 NA
ATOM     13  C   UNL     1       0.621  12.581  21.128  0.00  0.00    +0.000 A 
ATOM     14  C   UNL     1       1.480  12.284  19.952  0.00  0.00    +0.000 C 
ATOM     15  C   UNL     1       0.542  11.806  18.848  0.00  0.00    +0.000 C 
ATOM     16  N   UNL     1       0.854  10.456  18.437  0.00  0.00    +0.000 N 
ATOM     17  H   UNL     1       1.562  10.459  17.693  0.00  0.00    +0.000 HD
ENDBRANCH   2   5
BRANCH   1  22
ATOM     18  C   UNL     1       4.541   4.888  16.813  0.00  0.00    +0.000 A 
ATOM     19  C   UNL     1       4.187   3.627  17.317  0.00  0.00    +0.000 A 
ATOM     20  C   UNL     1       3.269   3.500  18.352  0.00  0.00    +0.000 A 
ATOM     21  C   UNL     1       2.695   4.636  18.940  0.00  0.00    +0.000 A 
ATOM     22  C   UNL     1       3.005   5.932  18.526  0.00  0.00    +0.000 A 
ATOM     23  C   UNL     1       3.942   6.040  17.443  0.00  0.00    +0.000 A 
BRANCH  18  25
ATOM     24  C   UNL     1       5.374   6.048  14.671  0.00  0.00    +0.000 C 
ATOM     25  C   UNL     1       5.592   4.871  15.659  0.00  0.00    +0.000 C 
BRANCH  25  26
ATOM     26  C   UNL     1       7.077   4.770  16.065  0.00  0.00    +0.000 C 
BRANCH  26  27
ATOM     27  C   UNL     1       7.424   5.230  17.463  0.00  0.00    +0.000 A 
ATOM     28  N   UNL     1       7.687   4.415  18.471  0.00  0.00    +0.000 NA
ATOM     29  N   UNL     1       8.043   5.162  19.567  0.00  0.00    +0.000 NA
ATOM     30  C   UNL     1       7.985   6.423  19.220  0.00  0.00    +0.000 A 
ATOM     31  N   UNL     1       7.582   6.519  17.919  0.00  0.00    +0.000 N 
ATOM     32  C   UNL     1       7.379   7.762  17.228  0.00  0.00    +0.000 C 
ENDBRANCH  26  27
ENDBRANCH  25  26
ENDBRANCH  18  25
ENDBRANCH   1  22
TORSDOF 5
ENDMDL
MODEL 6
REMARK VINA RESULT:      -8.6      2.241      3.362
REMARK  Name = 
REMARK  7 active torsions:
REMARK  status: ('A' for Active; 'I' for Inactive)
REMARK    1  A    between atoms: C_1  and  C_2
REMARK    2  A    between atoms: C_2  and  C_3
REMARK    3  A    between atoms: C_2  and  C_10
REMARK    4  A    between atoms: C_3  and  C_4
REMARK    5  A    between atoms: N_8  and  C_9
REMARK    6  A    between atoms: C_14  and  N_15
REMARK    7  A    between atoms: C_16  and  C_18
REMARK                            x       y       z     vdW  Elec       q    Type
REMARK                         _______ _______ _______ _____ _____    ______ ____
ROOT
ATOM      1  N   UNL     1       2.551   7.180  18.725  0.00  0.00    +0.000 N 
ATOM      2  C   UNL     1       2.389   8.445  18.114  0.00  0.00    +0.000 C 
ATOM      3  O   UNL     1       2.655   8.705  16.936  0.00  0.00    +0.000 OA
ATOM      4  H   UNL     1       2.404   7.138  19.725  0.00  0.00    +0.000 HD
ENDROOT
BRANCH   2   5
ATOM      5  C   UNL     1       1.659   9.676  18.861  0.00  0.00    +0.000 C 
ATOM      6  N   UNL     1       1.730  10.872  18.391  0.00  0.00    +0.000 NA
ATOM      7  C   UNL     1       1.232  12.155  18.988  0.00  0.00    +0.000 C 
ATOM      8  C   UNL     1      -0.191  12.584  19.405  0.00  0.00    +0.000 A 
ATOM      9  C   UNL     1      -0.402  13.929  19.810  0.00  0.00    +0.000 A 
ATOM     10  C   UNL     1      -1.619  14.397  20.306  0.00  0.00    +0.000 A 
ATOM     11  C   UNL     1      -2.655  13.499  20.388  0.00  0.00    +0.000 A 
ATOM     12  N   UNL     1      -2.523  12.207  20.030  0.00  0.00    +0.000 NA
ATOM     13  C   UNL     1      -1.309  11.772  19.568  0.00  0.00    +0.000 A 
ATOM     14  C   UNL     1      -1.199  10.295  19.445  0.00  0.00    +0.000 C 
ATOM     15  C   UNL     1      -0.220   9.846  20.525  0.00  0.00    +0.000 C 
ATOM     16  N   UNL     1       0.940   9.200  19.952  0.00  0.00    +0.000 N 
ATOM     17  H   UNL     1       0.770   8.194  19.833  0.00  0.00    +0.000 HD
ENDBRANCH   2   5
BRANCH   1  22
ATOM     18  C   UNL     1       4.462   4.572  16.585  0.00  0.00    +0.000 A 
ATOM     19  C   UNL     1       3.628   3.462  16.796  0.00  0.00    +0.000 A 
ATOM     20  C   UNL     1       2.471   3.569  17.558  0.00  0.00    +0.000 A 
ATOM     21  C   UNL     1       2.123   4.787  18.160  0.00  0.00    +0.000 A 
ATOM     22  C   UNL     1       2.902   5.937  18.030  0.00  0.00    +0.000 A 
ATOM     23  C   UNL     1       4.084   5.809  17.223  0.00  0.00    +0.000 A 
BRANCH  18  25
ATOM     24  C   UNL     1       5.377   4.191  14.209  0.00  0.00    +0.000 C 
ATOM     25  C   UNL     1       5.729   4.293  15.718  0.00  0.00    +0.000 C 
BRANCH  25  26
ATOM     26  C   UNL     1       6.942   5.222  15.931  0.00  0.00    +0.000 C 
BRANCH  26  27
ATOM     27  C   UNL     1       7.364   5.459  17.364  0.00  0.00    +0.000 A 
ATOM     28  N   UNL     1       7.614   4.496  18.235  0.00  0.00    +0.000 NA
ATOM     29  N   UNL     1       8.050   5.058  19.408  0.00  0.00    +0.000 NA
ATOM     30  C   UNL     1       8.054   6.357  19.245  0.00  0.00    +0.000 A 
ATOM     31  N   UNL     1       7.612   6.659  17.989  0.00  0.00    +0.000 N 
ATOM     32  C   UNL     1       7.458   7.998  17.489  0.00  0.00    +0.000 C 
ENDBRANCH  26  27
ENDBRANCH  25  26
ENDBRANCH  18  25
ENDBRANCH   1  22
TORSDOF 5
ENDMDL
MODEL 7
REMARK VINA RESULT:      -8.4      1.362      1.677
REMARK  Name = 
REMARK  7 active torsions:
REMARK  status: ('A' for Active; 'I' for Inactive)
REMARK    1  A    between atoms: C_1  and  C_2
REMARK    2  A    between atoms: C_2  and  C_3
REMARK    3  A    between atoms: C_2  and  C_10
REMARK    4  A    between atoms: C_3  and  C_4
REMARK    5  A    between atoms: N_8  and  C_9
REMARK    6  A    between atoms: C_14  and  N_15
REMARK    7  A    between atoms: C_16  and  C_18
REMARK                            x       y       z     vdW  Elec       q    Type
REMARK                         _______ _______ _______ _____ _____    ______ ____
ROOT
ATOM      1  N   UNL     1       1.955   8.025  18.962  0.00  0.00    +0.000 N 
ATOM      2  C   UNL     1       1.774   9.272  18.321  0.00  0.00    +0.000 C 
ATOM      3  O   UNL     1       2.234   9.577  17.215  0.00  0.00    +0.000 OA
ATOM      4  H   UNL     1       1.621   7.953  19.915  0.00  0.00    +0.000 HD
ENDROOT
BRANCH   2   5
ATOM      5  C   UNL     1       0.781  10.405  18.901  0.00  0.00    +0.000 C 
ATOM      6  N   UNL     1      -0.482  10.366  18.659  0.00  0.00    +0.000 NA
ATOM      7  C   UNL     1      -1.544  11.370  19.000  0.00  0.00    +0.000 C 
ATOM      8  C   UNL     1      -1.994  11.934  20.364  0.00  0.00    +0.000 A 
ATOM      9  C   UNL     1      -3.139  12.773  20.405  0.00  0.00    +0.000 A 
ATOM     10  C   UNL     1      -3.571  13.422  21.563  0.00  0.00    +0.000 A 
ATOM     11  C   UNL     1      -2.846  13.214  22.711  0.00  0.00    +0.000 A 
ATOM     12  N   UNL     1      -1.745  12.439  22.742  0.00  0.00    +0.000 NA
ATOM     13  C   UNL     1      -1.332  11.834  21.583  0.00  0.00    +0.000 A 
ATOM     14  C   UNL     1       0.018  11.217  21.668  0.00  0.00    +0.000 C 
ATOM     15  C   UNL     1       0.931  12.064  20.787  0.00  0.00    +0.000 C 
ATOM     16  N   UNL     1       1.496  11.285  19.708  0.00  0.00    +0.000 N 
ATOM     17  H   UNL     1       2.370  10.836  20.005  0.00  0.00    +0.000 HD
ENDBRANCH   2   5
BRANCH   1  22
ATOM     18  C   UNL     1       4.496   5.694  17.189  0.00  0.00    +0.000 A 
ATOM     19  C   UNL     1       3.802   4.480  17.311  0.00  0.00    +0.000 A 
ATOM     20  C   UNL     1       2.542   4.430  17.897  0.00  0.00    +0.000 A 
ATOM     21  C   UNL     1       1.947   5.591  18.409  0.00  0.00    +0.000 A 
ATOM     22  C   UNL     1       2.571   6.839  18.359  0.00  0.00    +0.000 A 
ATOM     23  C   UNL     1       3.863   6.871  17.732  0.00  0.00    +0.000 A 
BRANCH  18  25
ATOM     24  C   UNL     1       7.042   5.683  17.569  0.00  0.00    +0.000 C 
ATOM     25  C   UNL     1       5.902   5.590  16.519  0.00  0.00    +0.000 C 
BRANCH  25  26
ATOM     26  C   UNL     1       6.138   4.400  15.566  0.00  0.00    +0.000 C 
BRANCH  26  27
ATOM     27  C   UNL     1       6.806   4.717  14.247  0.00  0.00    +0.000 A 
ATOM     28  N   UNL     1       7.822   5.552  14.110  0.00  0.00    +0.000 NA
ATOM     29  N   UNL     1       8.235   5.542  12.801  0.00  0.00    +0.000 NA
ATOM     30  C   UNL     1       7.461   4.709  12.152  0.00  0.00    +0.000 A 
ATOM     31  N   UNL     1       6.537   4.183  13.008  0.00  0.00    +0.000 N 
ATOM     32  C   UNL     1       5.509   3.258  12.617  0.00  0.00    +0.000 C 
ENDBRANCH  26  27
ENDBRANCH  25  26
ENDBRANCH  18  25
ENDBRANCH   1  22
TORSDOF 5
ENDMDL
MODEL 8
REMARK VINA RESULT:      -8.4      2.628      4.455
REMARK  Name = 
REMARK  7 active torsions:
REMARK  status: ('A' for Active; 'I' for Inactive)
REMARK    1  A    between atoms: C_1  and  C_2
REMARK    2  A    between atoms: C_2  and  C_3
REMARK    3  A    between atoms: C_2  and  C_10
REMARK    4  A    between atoms: C_3  and  C_4
REMARK    5  A    between atoms: N_8  and  C_9
REMARK    6  A    between atoms: C_14  and  N_15
REMARK    7  A    between atoms: C_16  and  C_18
REMARK                            x       y       z     vdW  Elec       q    Type
REMARK                         _______ _______ _______ _____ _____    ______ ____
ROOT
ATOM      1  N   UNL     1       0.384   9.855  20.325  0.00  0.00    +0.000 N 
ATOM      2  C   UNL     1       0.534  10.278  21.666  0.00  0.00    +0.000 C 
ATOM      3  O   UNL     1       1.362   9.831  22.465  0.00  0.00    +0.000 OA
ATOM      4  H   UNL     1      -0.411  10.224  19.819  0.00  0.00    +0.000 HD
ENDROOT
BRANCH   2   5
ATOM      5  C   UNL     1      -0.269  11.544  22.266  0.00  0.00    +0.000 C 
ATOM      6  N   UNL     1       0.047  12.747  21.936  0.00  0.00    +0.000 NA
ATOM      7  C   UNL     1      -0.487  14.045  22.464  0.00  0.00    +0.000 C 
ATOM      8  C   UNL     1      -1.924  14.609  22.483  0.00  0.00    +0.000 A 
ATOM      9  C   UNL     1      -2.122  15.946  22.916  0.00  0.00    +0.000 A 
ATOM     10  C   UNL     1      -3.384  16.521  23.073  0.00  0.00    +0.000 A 
ATOM     11  C   UNL     1      -4.474  15.741  22.777  0.00  0.00    +0.000 A 
ATOM     12  N   UNL     1      -4.361  14.462  22.370  0.00  0.00    +0.000 NA
ATOM     13  C   UNL     1      -3.109  13.918  22.247  0.00  0.00    +0.000 A 
ATOM     14  C   UNL     1      -3.104  12.446  22.041  0.00  0.00    +0.000 C 
ATOM     15  C   UNL     1      -2.535  11.838  23.320  0.00  0.00    +0.000 C 
ATOM     16  N   UNL     1      -1.322  11.096  23.058  0.00  0.00    +0.000 N 
ATOM     17  H   UNL     1      -1.539  10.123  22.814  0.00  0.00    +0.000 HD
ENDBRANCH   2   5
BRANCH   1  22
ATOM     18  C   UNL     1       2.607   6.793  19.481  0.00  0.00    +0.000 A 
ATOM     19  C   UNL     1       2.933   7.118  18.155  0.00  0.00    +0.000 A 
ATOM     20  C   UNL     1       2.493   8.303  17.577  0.00  0.00    +0.000 A 
ATOM     21  C   UNL     1       1.684   9.191  18.301  0.00  0.00    +0.000 A 
ATOM     22  C   UNL     1       1.285   8.942  19.614  0.00  0.00    +0.000 A 
ATOM     23  C   UNL     1       1.767   7.721  20.197  0.00  0.00    +0.000 A 
BRANCH  18  25
ATOM     24  C   UNL     1       2.108   4.650  20.817  0.00  0.00    +0.000 C 
ATOM     25  C   UNL     1       3.164   5.425  19.985  0.00  0.00    +0.000 C 
BRANCH  25  26
ATOM     26  C   UNL     1       3.810   4.500  18.932  0.00  0.00    +0.000 C 
BRANCH  26  27
ATOM     27  C   UNL     1       5.288   4.698  18.680  0.00  0.00    +0.000 A 
ATOM     28  N   UNL     1       6.156   5.078  19.603  0.00  0.00    +0.000 NA
ATOM     29  N   UNL     1       7.416   5.076  19.059  0.00  0.00    +0.000 NA
ATOM     30  C   UNL     1       7.303   4.703  17.809  0.00  0.00    +0.000 A 
ATOM     31  N   UNL     1       5.990   4.475  17.518  0.00  0.00    +0.000 N 
ATOM     32  C   UNL     1       5.507   4.085  16.222  0.00  0.00    +0.000 C 
ENDBRANCH  26  27
ENDBRANCH  25  26
ENDBRANCH  18  25
ENDBRANCH   1  22
TORSDOF 5
ENDMDL
MODEL 9
REMARK VINA RESULT:      -8.3      2.732     10.228
REMARK  Name = 
REMARK  7 active torsions:
REMARK  status: ('A' for Active; 'I' for Inactive)
REMARK    1  A    between atoms: C_1  and  C_2
REMARK    2  A    between atoms: C_2  and  C_3
REMARK    3  A    between atoms: C_2  and  C_10
REMARK    4  A    between atoms: C_3  and  C_4
REMARK    5  A    between atoms: N_8  and  C_9
REMARK    6  A    between atoms: C_14  and  N_15
REMARK    7  A    between atoms: C_16  and  C_18
REMARK                            x       y       z     vdW  Elec       q    Type
REMARK                         _______ _______ _______ _____ _____    ______ ____
ROOT
ATOM      1  N   UNL     1       2.308   8.006  20.288  0.00  0.00    +0.000 N 
ATOM      2  C   UNL     1       2.243   6.600  20.149  0.00  0.00    +0.000 C 
ATOM      3  O   UNL     1       1.389   5.873  20.667  0.00  0.00    +0.000 OA
ATOM      4  H   UNL     1       3.127   8.462  19.905  0.00  0.00    +0.000 HD
ENDROOT
BRANCH   2   5
ATOM      5  C   UNL     1       3.202   5.788  19.136  0.00  0.00    +0.000 C 
ATOM      6  N   UNL     1       2.783   5.426  17.974  0.00  0.00    +0.000 NA
ATOM      7  C   UNL     1       3.465   4.574  16.944  0.00  0.00    +0.000 C 
ATOM      8  C   UNL     1       4.812   4.763  16.214  0.00  0.00    +0.000 A 
ATOM      9  C   UNL     1       5.146   3.865  15.166  0.00  0.00    +0.000 A 
ATOM     10  C   UNL     1       6.378   3.877  14.511  0.00  0.00    +0.000 A 
ATOM     11  C   UNL     1       7.295   4.820  14.908  0.00  0.00    +0.000 A 
ATOM     12  N   UNL     1       7.049   5.696  15.901  0.00  0.00    +0.000 NA
ATOM     13  C   UNL     1       5.838   5.644  16.541  0.00  0.00    +0.000 A 
ATOM     14  C   UNL     1       5.766   6.472  17.773  0.00  0.00    +0.000 C 
ATOM     15  C   UNL     1       5.694   5.494  18.942  0.00  0.00    +0.000 C 
ATOM     16  N   UNL     1       4.470   5.659  19.694  0.00  0.00    +0.000 N 
ATOM     17  H   UNL     1       4.590   6.367  20.428  0.00  0.00    +0.000 HD
ENDBRANCH   2   5
BRANCH   1  22
ATOM     18  C   UNL     1      -0.532  10.594  20.807  0.00  0.00    +0.000 A 
ATOM     19  C   UNL     1      -0.778  10.378  22.172  0.00  0.00    +0.000 A 
ATOM     20  C   UNL     1      -0.021   9.469  22.902  0.00  0.00    +0.000 A 
ATOM     21  C   UNL     1       0.990   8.722  22.282  0.00  0.00    +0.000 A 
ATOM     22  C   UNL     1       1.290   8.847  20.925  0.00  0.00    +0.000 A 
ATOM     23  C   UNL     1       0.509   9.805  20.194  0.00  0.00    +0.000 A 
BRANCH  18  25
ATOM     24  C   UNL     1      -1.088  13.089  20.507  0.00  0.00    +0.000 C 
ATOM     25  C   UNL     1      -1.471  11.635  20.120  0.00  0.00    +0.000 C 
BRANCH  25  26
ATOM     26  C   UNL     1      -1.659  11.510  18.594  0.00  0.00    +0.000 C 
BRANCH  26  27
ATOM     27  C   UNL     1      -3.084  11.539  18.088  0.00  0.00    +0.000 A 
ATOM     28  N   UNL     1      -4.128  11.875  18.826  0.00  0.00    +0.000 NA
ATOM     29  N   UNL     1      -5.251  11.875  18.036  0.00  0.00    +0.000 NA
ATOM     30  C   UNL     1      -4.881  11.532  16.827  0.00  0.00    +0.000 A 
ATOM     31  N   UNL     1      -3.538  11.290  16.813  0.00  0.00    +0.000 N 
ATOM     32  C   UNL     1      -2.808  10.857  15.653  0.00  0.00    +0.000 C 
ENDBRANCH  26  27
ENDBRANCH  25  26
ENDBRANCH  18  25
ENDBRANCH   1  22
TORSDOF 5
ENDMDL
