MODEL 1
REMARK VINA RESULT:      -8.7      0.000      0.000
REMARK  Name = 
REMARK  4 active torsions:
REMARK  status: ('A' for Active; 'I' for Inactive)
REMARK    1  A    between atoms: C_2  and  C_3
REMARK    2  A    between atoms: C_7  and  S_8
REMARK    3  A    between atoms: S_8  and  N_11
REMARK    4  A    between atoms: N_11  and  C_12
REMARK                            x       y       z     vdW  Elec       q    Type
REMARK                         _______ _______ _______ _____ _____    ______ ____
ROOT
ATOM      1  C   UNL     1       2.100   7.944  18.947  0.00  0.00    +0.000 A 
ATOM      2  C   UNL     1       1.960   7.406  20.236  0.00  0.00    +0.000 A 
ATOM      3  C   UNL     1       1.229   8.084  21.216  0.00  0.00    +0.000 A 
ATOM      4  C   UNL     1       0.727   9.357  20.946  0.00  0.00    +0.000 A 
ATOM      5  C   UNL     1       0.903   9.904  19.674  0.00  0.00    +0.000 A 
ATOM      6  C   UNL     1       1.507   9.172  18.655  0.00  0.00    +0.000 A 
ENDROOT
BRANCH   1   8
ATOM      7  O   UNL     1       3.412   8.166  17.005  0.00  0.00    +0.000 OA
ATOM      8  C   UNL     1       3.058   7.427  17.923  0.00  0.00    +0.000 C 
ATOM      9  N   UNL     1       3.675   6.229  18.172  0.00  0.00    +0.000 N 
ATOM     10  C   UNL     1       5.028   5.952  17.655  0.00  0.00    +0.000 C 
ATOM     11  C   UNL     1       5.406   4.668  18.382  0.00  0.00    +0.000 C 
ATOM     12  C   UNL     1       4.069   3.997  18.268  0.00  0.00    +0.000 A 
ATOM     13  C   UNL     1       3.771   2.681  17.990  0.00  0.00    +0.000 A 
ATOM     14  C   UNL     1       2.430   2.348  17.786  0.00  0.00    +0.000 A 
ATOM     15  C   UNL     1       1.409   3.303  17.945  0.00  0.00    +0.000 A 
ATOM     16  C   UNL     1       1.719   4.637  18.203  0.00  0.00    +0.000 A 
ATOM     17  C   UNL     1       3.058   4.968  18.288  0.00  0.00    +0.000 A 
ENDBRANCH   1   8
BRANCH   5  18
ATOM     18  S   UNL     1       0.682  11.648  19.395  0.00  0.00    +0.000 S 
ATOM     19  O   UNL     1      -0.083  12.197  20.479  0.00  0.00    +0.000 OA
ATOM     20  O   UNL     1       1.995  12.184  19.046  0.00  0.00    +0.000 OA
BRANCH  18  21
ATOM     21  N   UNL     1      -0.223  11.690  17.970  0.00  0.00    +0.000 N 
ATOM     22  H   UNL     1       0.320  11.419  17.144  0.00  0.00    +0.000 HD
BRANCH  21  23
ATOM     23  C   UNL     1      -1.586  11.314  18.016  0.00  0.00    +0.000 A 
ATOM     24  C   UNL     1      -1.978  10.108  17.431  0.00  0.00    +0.000 A 
ATOM     25  C   UNL     1      -3.310   9.711  17.492  0.00  0.00    +0.000 A 
ATOM     26  C   UNL     1      -4.239  10.538  18.115  0.00  0.00    +0.000 A 
ATOM     27  F   UNL     1      -5.519  10.152  18.188  0.00  0.00    +0.000 F 
ATOM     28  C   UNL     1      -3.863  11.761  18.665  0.00  0.00    +0.000 A 
ATOM     29  C   UNL     1      -2.527  12.155  18.616  0.00  0.00    +0.000 A 
ENDBRANCH  21  23
ENDBRANCH  18  21
ENDBRANCH   5  18
TORSDOF 4
ENDMDL
MODEL 2
REMARK VINA RESULT:      -8.6      2.692      3.657
REMARK  Name = 
REMARK  4 active torsions:
REMARK  status: ('A' for Active; 'I' for Inactive)
REMARK    1  A    between atoms: C_2  and  C_3
REMARK    2  A    between atoms: C_7  and  S_8
REMARK    3  A    between atoms: S_8  and  N_11
REMARK    4  A    between atoms: N_11  and  C_12
REMARK                            x       y       z     vdW  Elec       q    Type
REMARK                         _______ _______ _______ _____ _____    ______ ____
ROOT
ATOM      1  C   UNL     1       2.436   7.155  19.188  0.00  0.00    +0.000 A 
ATOM      2  C   UNL     1       2.162   7.746  17.944  0.00  0.00    +0.000 A 
ATOM      3  C   UNL     1       1.546   8.998  17.870  0.00  0.00    +0.000 A 
ATOM      4  C   UNL     1       1.100   9.619  19.037  0.00  0.00    +0.000 A 
ATOM      5  C   UNL     1       1.339   9.008  20.269  0.00  0.00    +0.000 A 
ATOM      6  C   UNL     1       2.077   7.830  20.355  0.00  0.00    +0.000 A 
ENDROOT
BRANCH   1   8
ATOM      7  O   UNL     1       2.608   5.161  20.428  0.00  0.00    +0.000 OA
ATOM      8  C   UNL     1       2.853   5.730  19.365  0.00  0.00    +0.000 C 
ATOM      9  N   UNL     1       3.289   5.050  18.259  0.00  0.00    +0.000 N 
ATOM     10  C   UNL     1       3.089   3.594  18.138  0.00  0.00    +0.000 C 
ATOM     11  C   UNL     1       3.465   3.325  16.687  0.00  0.00    +0.000 C 
ATOM     12  C   UNL     1       4.653   4.241  16.636  0.00  0.00    +0.000 A 
ATOM     13  C   UNL     1       5.880   4.049  16.042  0.00  0.00    +0.000 A 
ATOM     14  C   UNL     1       6.872   5.004  16.278  0.00  0.00    +0.000 A 
ATOM     15  C   UNL     1       6.602   6.166  17.025  0.00  0.00    +0.000 A 
ATOM     16  C   UNL     1       5.366   6.341  17.643  0.00  0.00    +0.000 A 
ATOM     17  C   UNL     1       4.436   5.331  17.491  0.00  0.00    +0.000 A 
ENDBRANCH   1   8
BRANCH   5  18
ATOM     18  S   UNL     1       0.441   9.506  21.722  0.00  0.00    +0.000 S 
ATOM     19  O   UNL     1      -0.800   8.784  21.770  0.00  0.00    +0.000 OA
ATOM     20  O   UNL     1       1.388   9.461  22.833  0.00  0.00    +0.000 OA
BRANCH  18  21
ATOM     21  N   UNL     1       0.145  11.144  21.438  0.00  0.00    +0.000 N 
ATOM     22  H   UNL     1       0.626  11.499  20.606  0.00  0.00    +0.000 HD
BRANCH  21  23
ATOM     23  C   UNL     1      -1.137  11.667  21.734  0.00  0.00    +0.000 A 
ATOM     24  C   UNL     1      -1.908  12.199  20.698  0.00  0.00    +0.000 A 
ATOM     25  C   UNL     1      -3.181  12.692  20.967  0.00  0.00    +0.000 A 
ATOM     26  C   UNL     1      -3.656  12.672  22.275  0.00  0.00    +0.000 A 
ATOM     27  F   UNL     1      -4.886  13.133  22.534  0.00  0.00    +0.000 F 
ATOM     28  C   UNL     1      -2.877  12.181  23.319  0.00  0.00    +0.000 A 
ATOM     29  C   UNL     1      -1.606  11.675  23.049  0.00  0.00    +0.000 A 
ENDBRANCH  21  23
ENDBRANCH  18  21
ENDBRANCH   5  18
TORSDOF 4
ENDMDL
MODEL 3
REMARK VINA RESULT:      -8.6      3.252      4.242
REMARK  Name = 
REMARK  4 active torsions:
REMARK  status: ('A' for Active; 'I' for Inactive)
REMARK    1  A    between atoms: C_2  and  C_3
REMARK    2  A    between atoms: C_7  and  S_8
REMARK    3  A    between atoms: S_8  and  N_11
REMARK    4  A    between atoms: N_11  and  C_12
REMARK                            x       y       z     vdW  Elec       q    Type
REMARK                         _______ _______ _______ _____ _____    ______ ____
ROOT
ATOM      1  C   UNL     1       2.434   7.133  19.268  0.00  0.00    +0.000 A 
ATOM      2  C   UNL     1       2.301   7.763  18.020  0.00  0.00    +0.000 A 
ATOM      3  C   UNL     1       1.670   9.005  17.912  0.00  0.00    +0.000 A 
ATOM      4  C   UNL     1       1.069   9.574  19.034  0.00  0.00    +0.000 A 
ATOM      5  C   UNL     1       1.168   8.924  20.265  0.00  0.00    +0.000 A 
ATOM      6  C   UNL     1       1.917   7.759  20.403  0.00  0.00    +0.000 A 
ENDROOT
BRANCH   1   8
ATOM      7  O   UNL     1       2.611   5.141  20.510  0.00  0.00    +0.000 OA
ATOM      8  C   UNL     1       2.859   5.712  19.449  0.00  0.00    +0.000 C 
ATOM      9  N   UNL     1       3.307   5.034  18.346  0.00  0.00    +0.000 N 
ATOM     10  C   UNL     1       3.118   3.577  18.224  0.00  0.00    +0.000 C 
ATOM     11  C   UNL     1       3.506   3.310  16.775  0.00  0.00    +0.000 C 
ATOM     12  C   UNL     1       4.688   4.234  16.733  0.00  0.00    +0.000 A 
ATOM     13  C   UNL     1       5.920   4.050  16.146  0.00  0.00    +0.000 A 
ATOM     14  C   UNL     1       6.904   5.012  16.390  0.00  0.00    +0.000 A 
ATOM     15  C   UNL     1       6.621   6.172  17.134  0.00  0.00    +0.000 A 
ATOM     16  C   UNL     1       5.380   6.339  17.744  0.00  0.00    +0.000 A 
ATOM     17  C   UNL     1       4.457   5.322  17.585  0.00  0.00    +0.000 A 
ENDBRANCH   1   8
BRANCH   5  18
ATOM     18  S   UNL     1       0.085   9.353  21.611  0.00  0.00    +0.000 S 
ATOM     19  O   UNL     1      -0.800   8.250  21.862  0.00  0.00    +0.000 OA
ATOM     20  O   UNL     1       0.931   9.902  22.667  0.00  0.00    +0.000 OA
BRANCH  18  21
ATOM     21  N   UNL     1      -0.784  10.662  20.993  0.00  0.00    +0.000 N 
ATOM     22  H   UNL     1      -1.606  10.376  20.451  0.00  0.00    +0.000 HD
BRANCH  21  23
ATOM     23  C   UNL     1      -0.881  11.843  21.767  0.00  0.00    +0.000 A 
ATOM     24  C   UNL     1      -1.857  11.924  22.763  0.00  0.00    +0.000 A 
ATOM     25  C   UNL     1      -1.948  13.067  23.550  0.00  0.00    +0.000 A 
ATOM     26  C   UNL     1      -1.079  14.127  23.314  0.00  0.00    +0.000 A 
ATOM     27  F   UNL     1      -1.155  15.222  24.080  0.00  0.00    +0.000 F 
ATOM     28  C   UNL     1      -0.130  14.070  22.296  0.00  0.00    +0.000 A 
ATOM     29  C   UNL     1      -0.030  12.921  21.514  0.00  0.00    +0.000 A 
ENDBRANCH  21  23
ENDBRANCH  18  21
ENDBRANCH   5  18
TORSDOF 4
ENDMDL
MODEL 4
REMARK VINA RESULT:      -8.6      3.837      5.875
REMARK  Name = 
REMARK  4 active torsions:
REMARK  status: ('A' for Active; 'I' for Inactive)
REMARK    1  A    between atoms: C_2  and  C_3
REMARK    2  A    between atoms: C_7  and  S_8
REMARK    3  A    between atoms: S_8  and  N_11
REMARK    4  A    between atoms: N_11  and  C_12
REMARK                            x       y       z     vdW  Elec       q    Type
REMARK                         _______ _______ _______ _____ _____    ______ ____
ROOT
ATOM      1  C   UNL     1       3.883   3.239  17.323  0.00  0.00    +0.000 A 
ATOM      2  C   UNL     1       4.105   1.905  17.701  0.00  0.00    +0.000 A 
ATOM      3  C   UNL     1       3.497   1.378  18.844  0.00  0.00    +0.000 A 
ATOM      4  C   UNL     1       2.752   2.211  19.677  0.00  0.00    +0.000 A 
ATOM      5  C   UNL     1       2.568   3.547  19.318  0.00  0.00    +0.000 A 
ATOM      6  C   UNL     1       3.053   4.039  18.109  0.00  0.00    +0.000 A 
ENDROOT
BRANCH   1   8
ATOM      7  O   UNL     1       4.766   3.468  15.153  0.00  0.00    +0.000 OA
ATOM      8  C   UNL     1       4.674   3.957  16.278  0.00  0.00    +0.000 C 
ATOM      9  N   UNL     1       5.076   5.238  16.549  0.00  0.00    +0.000 N 
ATOM     10  C   UNL     1       5.238   6.226  15.467  0.00  0.00    +0.000 C 
ATOM     11  C   UNL     1       5.420   7.532  16.231  0.00  0.00    +0.000 C 
ATOM     12  C   UNL     1       6.308   6.985  17.310  0.00  0.00    +0.000 A 
ATOM     13  C   UNL     1       7.425   7.545  17.890  0.00  0.00    +0.000 A 
ATOM     14  C   UNL     1       8.165   6.752  18.771  0.00  0.00    +0.000 A 
ATOM     15  C   UNL     1       7.737   5.458  19.122  0.00  0.00    +0.000 A 
ATOM     16  C   UNL     1       6.619   4.890  18.514  0.00  0.00    +0.000 A 
ATOM     17  C   UNL     1       5.967   5.649  17.561  0.00  0.00    +0.000 A 
ENDBRANCH   1   8
BRANCH   5  18
ATOM     18  S   UNL     1       2.017   4.744  20.515  0.00  0.00    +0.000 S 
ATOM     19  O   UNL     1       0.632   5.036  20.273  0.00  0.00    +0.000 OA
ATOM     20  O   UNL     1       2.476   4.272  21.818  0.00  0.00    +0.000 OA
BRANCH  18  21
ATOM     21  N   UNL     1       2.963   6.096  20.158  0.00  0.00    +0.000 N 
ATOM     22  H   UNL     1       3.877   5.852  19.764  0.00  0.00    +0.000 HD
BRANCH  21  23
ATOM     23  C   UNL     1       2.328   7.266  19.676  0.00  0.00    +0.000 A 
ATOM     24  C   UNL     1       1.595   8.055  20.565  0.00  0.00    +0.000 A 
ATOM     25  C   UNL     1       0.987   9.222  20.114  0.00  0.00    +0.000 A 
ATOM     26  C   UNL     1       1.098   9.572  18.772  0.00  0.00    +0.000 A 
ATOM     27  F   UNL     1       0.527  10.702  18.338  0.00  0.00    +0.000 F 
ATOM     28  C   UNL     1       1.793   8.768  17.871  0.00  0.00    +0.000 A 
ATOM     29  C   UNL     1       2.413   7.605  18.324  0.00  0.00    +0.000 A 
ENDBRANCH  21  23
ENDBRANCH  18  21
ENDBRANCH   5  18
TORSDOF 4
ENDMDL
MODEL 5
REMARK VINA RESULT:      -8.4      3.176      4.246
REMARK  Name = 
REMARK  4 active torsions:
REMARK  status: ('A' for Active; 'I' for Inactive)
REMARK    1  A    between atoms: C_2  and  C_3
REMARK    2  A    between atoms: C_7  and  S_8
REMARK    3  A    between atoms: S_8  and  N_11
REMARK    4  A    between atoms: N_11  and  C_12
REMARK                            x       y       z     vdW  Elec       q    Type
REMARK                         _______ _______ _______ _____ _____    ______ ____
ROOT
ATOM      1  C   UNL     1       2.435   7.083  18.804  0.00  0.00    +0.000 A 
ATOM      2  C   UNL     1       2.450   7.946  17.697  0.00  0.00    +0.000 A 
ATOM      3  C   UNL     1       1.983   9.258  17.811  0.00  0.00    +0.000 A 
ATOM      4  C   UNL     1       1.395   9.682  19.002  0.00  0.00    +0.000 A 
ATOM      5  C   UNL     1       1.345   8.806  20.088  0.00  0.00    +0.000 A 
ATOM      6  C   UNL     1       1.938   7.547  20.021  0.00  0.00    +0.000 A 
ENDROOT
BRANCH   1   8
ATOM      7  O   UNL     1       1.895   4.843  19.288  0.00  0.00    +0.000 OA
ATOM      8  C   UNL     1       2.672   5.609  18.720  0.00  0.00    +0.000 C 
ATOM      9  N   UNL     1       3.614   5.163  17.831  0.00  0.00    +0.000 N 
ATOM     10  C   UNL     1       3.484   3.842  17.189  0.00  0.00    +0.000 C 
ATOM     11  C   UNL     1       4.564   3.885  16.115  0.00  0.00    +0.000 C 
ATOM     12  C   UNL     1       5.615   4.563  16.945  0.00  0.00    +0.000 A 
ATOM     13  C   UNL     1       6.968   4.316  17.015  0.00  0.00    +0.000 A 
ATOM     14  C   UNL     1       7.702   4.992  17.992  0.00  0.00    +0.000 A 
ATOM     15  C   UNL     1       7.099   5.958  18.819  0.00  0.00    +0.000 A 
ATOM     16  C   UNL     1       5.725   6.185  18.759  0.00  0.00    +0.000 A 
ATOM     17  C   UNL     1       4.998   5.424  17.864  0.00  0.00    +0.000 A 
ENDBRANCH   1   8
BRANCH   5  18
ATOM     18  S   UNL     1       0.251   9.113  21.457  0.00  0.00    +0.000 S 
ATOM     19  O   UNL     1      -0.551   7.943  21.680  0.00  0.00    +0.000 OA
ATOM     20  O   UNL     1       1.069   9.687  22.523  0.00  0.00    +0.000 OA
BRANCH  18  21
ATOM     21  N   UNL     1      -0.716  10.376  20.890  0.00  0.00    +0.000 N 
ATOM     22  H   UNL     1      -1.612  10.054  20.511  0.00  0.00    +0.000 HD
BRANCH  21  23
ATOM     23  C   UNL     1      -0.696  11.613  21.579  0.00  0.00    +0.000 A 
ATOM     24  C   UNL     1       0.209  12.598  21.178  0.00  0.00    +0.000 A 
ATOM     25  C   UNL     1       0.223  13.829  21.827  0.00  0.00    +0.000 A 
ATOM     26  C   UNL     1      -0.652  14.050  22.886  0.00  0.00    +0.000 A 
ATOM     27  F   UNL     1      -0.651  15.239  23.502  0.00  0.00    +0.000 F 
ATOM     28  C   UNL     1      -1.529  13.058  23.316  0.00  0.00    +0.000 A 
ATOM     29  C   UNL     1      -1.553  11.828  22.661  0.00  0.00    +0.000 A 
ENDBRANCH  21  23
ENDBRANCH  18  21
ENDBRANCH   5  18
TORSDOF 4
ENDMDL
MODEL 6
REMARK VINA RESULT:      -8.3      3.206      3.779
REMARK  Name = 
REMARK  4 active torsions:
REMARK  status: ('A' for Active; 'I' for Inactive)
REMARK    1  A    between atoms: C_2  and  C_3
REMARK    2  A    between atoms: C_7  and  S_8
REMARK    3  A    between atoms: S_8  and  N_11
REMARK    4  A    between atoms: N_11  and  C_12
REMARK                            x       y       z     vdW  Elec       q    Type
REMARK                         _______ _______ _______ _____ _____    ______ ____
ROOT
ATOM      1  C   UNL     1       1.719   8.380  19.189  0.00  0.00    +0.000 A 
ATOM      2  C   UNL     1       1.846   7.654  20.383  0.00  0.00    +0.000 A 
ATOM      3  C   UNL     1       1.238   8.104  21.559  0.00  0.00    +0.000 A 
ATOM      4  C   UNL     1       0.593   9.340  21.574  0.00  0.00    +0.000 A 
ATOM      5  C   UNL     1       0.505  10.078  20.392  0.00  0.00    +0.000 A 
ATOM      6  C   UNL     1       0.985   9.566  19.189  0.00  0.00    +0.000 A 
ENDROOT
BRANCH   1   8
ATOM      7  O   UNL     1       2.588   8.983  17.085  0.00  0.00    +0.000 OA
ATOM      8  C   UNL     1       2.529   8.120  17.959  0.00  0.00    +0.000 C 
ATOM      9  N   UNL     1       3.353   7.025  17.957  0.00  0.00    +0.000 N 
ATOM     10  C   UNL     1       4.607   7.022  17.182  0.00  0.00    +0.000 C 
ATOM     11  C   UNL     1       5.303   5.762  17.678  0.00  0.00    +0.000 C 
ATOM     12  C   UNL     1       4.083   4.889  17.725  0.00  0.00    +0.000 A 
ATOM     13  C   UNL     1       3.936   3.571  17.355  0.00  0.00    +0.000 A 
ATOM     14  C   UNL     1       2.645   3.038  17.352  0.00  0.00    +0.000 A 
ATOM     15  C   UNL     1       1.543   3.792  17.797  0.00  0.00    +0.000 A 
ATOM     16  C   UNL     1       1.696   5.132  18.147  0.00  0.00    +0.000 A 
ATOM     17  C   UNL     1       2.962   5.673  18.034  0.00  0.00    +0.000 A 
ENDBRANCH   1   8
BRANCH   5  18
ATOM     18  S   UNL     1       0.095  11.810  20.428  0.00  0.00    +0.000 S 
ATOM     19  O   UNL     1      -1.313  11.946  20.679  0.00  0.00    +0.000 OA
ATOM     20  O   UNL     1       1.085  12.454  21.287  0.00  0.00    +0.000 OA
BRANCH  18  21
ATOM     21  N   UNL     1       0.453  12.314  18.857  0.00  0.00    +0.000 N 
ATOM     22  H   UNL     1      -0.310  12.137  18.196  0.00  0.00    +0.000 HD
BRANCH  21  23
ATOM     23  C   UNL     1       1.224  13.487  18.676  0.00  0.00    +0.000 A 
ATOM     24  C   UNL     1       2.564  13.367  18.301  0.00  0.00    +0.000 A 
ATOM     25  C   UNL     1       3.329  14.510  18.093  0.00  0.00    +0.000 A 
ATOM     26  C   UNL     1       2.750  15.761  18.287  0.00  0.00    +0.000 A 
ATOM     27  F   UNL     1       3.479  16.863  18.073  0.00  0.00    +0.000 F 
ATOM     28  C   UNL     1       1.426  15.887  18.700  0.00  0.00    +0.000 A 
ATOM     29  C   UNL     1       0.655  14.743  18.898  0.00  0.00    +0.000 A 
ENDBRANCH  21  23
ENDBRANCH  18  21
ENDBRANCH   5  18
TORSDOF 4
ENDMDL
MODEL 7
REMARK VINA RESULT:      -8.2      3.972      8.236
REMARK  Name = 
REMARK  4 active torsions:
REMARK  status: ('A' for Active; 'I' for Inactive)
REMARK    1  A    between atoms: C_2  and  C_3
REMARK    2  A    between atoms: C_7  and  S_8
REMARK    3  A    between atoms: S_8  and  N_11
REMARK    4  A    between atoms: N_11  and  C_12
REMARK                            x       y       z     vdW  Elec       q    Type
REMARK                         _______ _______ _______ _____ _____    ______ ____
ROOT
ATOM      1  C   UNL     1       2.342   6.346  18.390  0.00  0.00    +0.000 A 
ATOM      2  C   UNL     1       1.368   5.650  17.656  0.00  0.00    +0.000 A 
ATOM      3  C   UNL     1       1.351   4.252  17.641  0.00  0.00    +0.000 A 
ATOM      4  C   UNL     1       2.374   3.542  18.270  0.00  0.00    +0.000 A 
ATOM      5  C   UNL     1       3.363   4.241  18.965  0.00  0.00    +0.000 A 
ATOM      6  C   UNL     1       3.302   5.626  19.100  0.00  0.00    +0.000 A 
ENDROOT
BRANCH   1   8
ATOM      7  O   UNL     1       3.599   8.202  17.672  0.00  0.00    +0.000 OA
ATOM      8  C   UNL     1       2.594   7.814  18.265  0.00  0.00    +0.000 C 
ATOM      9  N   UNL     1       1.582   8.669  18.618  0.00  0.00    +0.000 N 
ATOM     10  C   UNL     1       1.433   9.979  17.960  0.00  0.00    +0.000 C 
ATOM     11  C   UNL     1       0.070  10.448  18.453  0.00  0.00    +0.000 C 
ATOM     12  C   UNL     1       0.225   9.984  19.873  0.00  0.00    +0.000 A 
ATOM     13  C   UNL     1      -0.146  10.610  21.042  0.00  0.00    +0.000 A 
ATOM     14  C   UNL     1       0.256  10.028  22.246  0.00  0.00    +0.000 A 
ATOM     15  C   UNL     1       0.941   8.798  22.268  0.00  0.00    +0.000 A 
ATOM     16  C   UNL     1       1.334   8.183  21.081  0.00  0.00    +0.000 A 
ATOM     17  C   UNL     1       1.025   8.834  19.902  0.00  0.00    +0.000 A 
ENDBRANCH   1   8
BRANCH   5  18
ATOM     18  S   UNL     1       4.895   3.452  19.408  0.00  0.00    +0.000 S 
ATOM     19  O   UNL     1       5.439   4.113  20.560  0.00  0.00    +0.000 OA
ATOM     20  O   UNL     1       4.638   2.014  19.408  0.00  0.00    +0.000 OA
BRANCH  18  21
ATOM     21  N   UNL     1       5.871   3.743  18.061  0.00  0.00    +0.000 N 
ATOM     22  H   UNL     1       5.528   3.282  17.212  0.00  0.00    +0.000 HD
BRANCH  21  23
ATOM     23  C   UNL     1       6.483   5.011  17.923  0.00  0.00    +0.000 A 
ATOM     24  C   UNL     1       6.083   5.848  16.879  0.00  0.00    +0.000 A 
ATOM     25  C   UNL     1       6.655   7.109  16.745  0.00  0.00    +0.000 A 
ATOM     26  C   UNL     1       7.642   7.507  17.643  0.00  0.00    +0.000 A 
ATOM     27  F   UNL     1       8.184   8.726  17.525  0.00  0.00    +0.000 F 
ATOM     28  C   UNL     1       8.075   6.662  18.661  0.00  0.00    +0.000 A 
ATOM     29  C   UNL     1       7.494   5.403  18.804  0.00  0.00    +0.000 A 
ENDBRANCH  21  23
ENDBRANCH  18  21
ENDBRANCH   5  18
TORSDOF 4
ENDMDL
MODEL 8
REMARK VINA RESULT:      -8.2      3.928      8.339
REMARK  Name = 
REMARK  4 active torsions:
REMARK  status: ('A' for Active; 'I' for Inactive)
REMARK    1  A    between atoms: C_2  and  C_3
REMARK    2  A    between atoms: C_7  and  S_8
REMARK    3  A    between atoms: S_8  and  N_11
REMARK    4  A    between atoms: N_11  and  C_12
REMARK                            x       y       z     vdW  Elec       q    Type
REMARK                         _______ _______ _______ _____ _____    ______ ____
ROOT
ATOM      1  C   UNL     1       2.336   6.563  19.542  0.00  0.00    +0.000 A 
ATOM      2  C   UNL     1       1.314   6.023  20.339  0.00  0.00    +0.000 A 
ATOM      3  C   UNL     1       1.291   4.659  20.640  0.00  0.00    +0.000 A 
ATOM      4  C   UNL     1       2.227   3.806  20.055  0.00  0.00    +0.000 A 
ATOM      5  C   UNL     1       3.218   4.343  19.231  0.00  0.00    +0.000 A 
ATOM      6  C   UNL     1       3.328   5.719  19.044  0.00  0.00    +0.000 A 
ENDROOT
BRANCH   1   8
ATOM      7  O   UNL     1       3.196   8.283  18.183  0.00  0.00    +0.000 OA
ATOM      8  C   UNL     1       2.308   7.942  18.964  0.00  0.00    +0.000 C 
ATOM      9  N   UNL     1       1.175   8.689  19.149  0.00  0.00    +0.000 N 
ATOM     10  C   UNL     1       0.757   9.690  18.151  0.00  0.00    +0.000 C 
ATOM     11  C   UNL     1      -0.644  10.064  18.619  0.00  0.00    +0.000 C 
ATOM     12  C   UNL     1      -0.340  10.093  20.089  0.00  0.00    +0.000 A 
ATOM     13  C   UNL     1      -0.763  10.982  21.052  0.00  0.00    +0.000 A 
ATOM     14  C   UNL     1      -0.203  10.872  22.327  0.00  0.00    +0.000 A 
ATOM     15  C   UNL     1       0.696   9.837  22.642  0.00  0.00    +0.000 A 
ATOM     16  C   UNL     1       1.138   8.956  21.657  0.00  0.00    +0.000 A 
ATOM     17  C   UNL     1       0.659   9.151  20.375  0.00  0.00    +0.000 A 
ENDBRANCH   1   8
BRANCH   5  18
ATOM     18  S   UNL     1       4.151   3.300  18.131  0.00  0.00    +0.000 S 
ATOM     19  O   UNL     1       3.776   1.933  18.361  0.00  0.00    +0.000 OA
ATOM     20  O   UNL     1       4.052   3.901  16.804  0.00  0.00    +0.000 OA
BRANCH  18  21
ATOM     21  N   UNL     1       5.743   3.555  18.632  0.00  0.00    +0.000 N 
ATOM     22  H   UNL     1       6.303   2.696  18.636  0.00  0.00    +0.000 HD
BRANCH  21  23
ATOM     23  C   UNL     1       6.388   4.762  18.271  0.00  0.00    +0.000 A 
ATOM     24  C   UNL     1       6.235   5.250  16.971  0.00  0.00    +0.000 A 
ATOM     25  C   UNL     1       6.840   6.449  16.608  0.00  0.00    +0.000 A 
ATOM     26  C   UNL     1       7.611   7.133  17.542  0.00  0.00    +0.000 A 
ATOM     27  F   UNL     1       8.182   8.295  17.200  0.00  0.00    +0.000 F 
ATOM     28  C   UNL     1       7.800   6.632  18.828  0.00  0.00    +0.000 A 
ATOM     29  C   UNL     1       7.186   5.436  19.197  0.00  0.00    +0.000 A 
ENDBRANCH  21  23
ENDBRANCH  18  21
ENDBRANCH   5  18
TORSDOF 4
ENDMDL
MODEL 9
REMARK VINA RESULT:      -8.1      2.726      3.214
REMARK  Name = 
REMARK  4 active torsions:
REMARK  status: ('A' for Active; 'I' for Inactive)
REMARK    1  A    between atoms: C_2  and  C_3
REMARK    2  A    between atoms: C_7  and  S_8
REMARK    3  A    between atoms: S_8  and  N_11
REMARK    4  A    between atoms: N_11  and  C_12
REMARK                            x       y       z     vdW  Elec       q    Type
REMARK                         _______ _______ _______ _____ _____    ______ ____
ROOT
ATOM      1  C   UNL     1       1.730   8.369  19.105  0.00  0.00    +0.000 A 
ATOM      2  C   UNL     1       1.868   7.736  20.350  0.00  0.00    +0.000 A 
ATOM      3  C   UNL     1       1.193   8.220  21.474  0.00  0.00    +0.000 A 
ATOM      4  C   UNL     1       0.464   9.405  21.385  0.00  0.00    +0.000 A 
ATOM      5  C   UNL     1       0.363  10.053  20.152  0.00  0.00    +0.000 A 
ATOM      6  C   UNL     1       0.917   9.497  19.002  0.00  0.00    +0.000 A 
ENDROOT
BRANCH   1   8
ATOM      7  O   UNL     1       2.716   8.940  17.044  0.00  0.00    +0.000 OA
ATOM      8  C   UNL     1       2.596   8.084  17.919  0.00  0.00    +0.000 C 
ATOM      9  N   UNL     1       3.397   6.973  17.965  0.00  0.00    +0.000 N 
ATOM     10  C   UNL     1       4.688   6.940  17.255  0.00  0.00    +0.000 C 
ATOM     11  C   UNL     1       5.333   5.670  17.793  0.00  0.00    +0.000 C 
ATOM     12  C   UNL     1       4.095   4.822  17.783  0.00  0.00    +0.000 A 
ATOM     13  C   UNL     1       3.940   3.504  17.413  0.00  0.00    +0.000 A 
ATOM     14  C   UNL     1       2.640   2.997  17.349  0.00  0.00    +0.000 A 
ATOM     15  C   UNL     1       1.533   3.776  17.733  0.00  0.00    +0.000 A 
ATOM     16  C   UNL     1       1.695   5.115  18.083  0.00  0.00    +0.000 A 
ATOM     17  C   UNL     1       2.976   5.630  18.030  0.00  0.00    +0.000 A 
ENDBRANCH   1   8
BRANCH   5  18
ATOM     18  S   UNL     1      -0.166  11.750  20.056  0.00  0.00    +0.000 S 
ATOM     19  O   UNL     1       0.765  12.479  19.240  0.00  0.00    +0.000 OA
ATOM     20  O   UNL     1      -1.592  11.724  19.741  0.00  0.00    +0.000 OA
BRANCH  18  21
ATOM     21  N   UNL     1      -0.059  12.270  21.659  0.00  0.00    +0.000 N 
ATOM     22  H   UNL     1       0.810  12.774  21.858  0.00  0.00    +0.000 HD
BRANCH  21  23
ATOM     23  C   UNL     1      -1.237  12.697  22.317  0.00  0.00    +0.000 A 
ATOM     24  C   UNL     1      -1.587  14.048  22.272  0.00  0.00    +0.000 A 
ATOM     25  C   UNL     1      -2.755  14.481  22.892  0.00  0.00    +0.000 A 
ATOM     26  C   UNL     1      -3.546  13.559  23.571  0.00  0.00    +0.000 A 
ATOM     27  F   UNL     1      -4.679  13.970  24.155  0.00  0.00    +0.000 F 
ATOM     28  C   UNL     1      -3.183  12.218  23.654  0.00  0.00    +0.000 A 
ATOM     29  C   UNL     1      -2.018  11.781  23.025  0.00  0.00    +0.000 A 
ENDBRANCH  21  23
ENDBRANCH  18  21
ENDBRANCH   5  18
TORSDOF 4
ENDMDL
