MODEL 1
REMARK VINA RESULT:      -8.5      0.000      0.000
REMARK  Name = 
REMARK  5 active torsions:
REMARK  status: ('A' for Active; 'I' for Inactive)
REMARK    1  A    between atoms: C_2  and  C_3
REMARK    2  A    between atoms: C_3  and  C_4
REMARK    3  A    between atoms: N_13  and  C_14
REMARK    4  A    between atoms: C_18  and  S_19
REMARK    5  A    between atoms: S_19  and  N_22
REMARK                            x       y       z     vdW  Elec       q    Type
REMARK                         _______ _______ _______ _____ _____    ______ ____
ROOT
ATOM      1  O   UNL     1       1.945   7.835  19.470  0.00  0.00    +0.000 OA
ATOM      2  C   UNL     1       2.343   8.156  18.351  0.00  0.00    +0.000 C 
ATOM      3  N   UNL     1       3.295   7.469  17.601  0.00  0.00    +0.000 N 
ATOM      4  H   UNL     1       3.664   7.947  16.787  0.00  0.00    +0.000 HD
ENDROOT
BRANCH   3   5
ATOM      5  C   UNL     1       3.947   6.272  17.992  0.00  0.00    +0.000 A 
ATOM      6  C   UNL     1       5.279   6.246  18.420  0.00  0.00    +0.000 A 
ATOM      7  C   UNL     1       5.943   5.040  18.654  0.00  0.00    +0.000 A 
ATOM      8  C   UNL     1       5.261   3.839  18.527  0.00  0.00    +0.000 A 
ATOM      9  C   UNL     1       3.894   3.858  18.239  0.00  0.00    +0.000 A 
ATOM     10  C   UNL     1       3.238   5.065  17.937  0.00  0.00    +0.000 A 
BRANCH   9  11
ATOM     11  S   UNL     1       3.012   2.309  18.197  0.00  0.00    +0.000 S 
ATOM     12  O   UNL     1       2.060   2.386  17.109  0.00  0.00    +0.000 OA
ATOM     13  O   UNL     1       3.991   1.243  18.255  0.00  0.00    +0.000 OA
BRANCH  11  14
ATOM     14  N   UNL     1       2.147   2.308  19.650  0.00  0.00    +0.000 NA
ATOM     15  C   UNL     1       0.834   2.973  19.713  0.00  0.00    +0.000 C 
ATOM     16  C   UNL     1       1.033   4.117  20.687  0.00  0.00    +0.000 C 
ATOM     17  C   UNL     1       2.070   3.604  21.670  0.00  0.00    +0.000 C 
ATOM     18  C   UNL     1       2.863   2.537  20.922  0.00  0.00    +0.000 C 
ENDBRANCH  11  14
ENDBRANCH   9  11
ENDBRANCH   3   5
BRANCH   2  19
ATOM     19  C   UNL     1       1.761   9.379  17.659  0.00  0.00    +0.000 C 
BRANCH  19  20
ATOM     20  C   UNL     1       0.802  10.154  18.506  0.00  0.00    +0.000 A 
ATOM     21  C   UNL     1       1.127  10.851  19.656  0.00  0.00    +0.000 A 
ATOM     22  N   UNL     1       0.003  11.477  20.120  0.00  0.00    +0.000 N 
ATOM     23  C   UNL     1      -1.063  11.217  19.296  0.00  0.00    +0.000 A 
ATOM     24  C   UNL     1      -2.394  11.649  19.379  0.00  0.00    +0.000 A 
ATOM     25  C   UNL     1      -3.276  11.236  18.377  0.00  0.00    +0.000 A 
ATOM     26  C   UNL     1      -2.842  10.433  17.326  0.00  0.00    +0.000 A 
ATOM     27  C   UNL     1      -1.507  10.012  17.258  0.00  0.00    +0.000 A 
ATOM     28  C   UNL     1      -0.595  10.399  18.264  0.00  0.00    +0.000 A 
ATOM     29  H   UNL     1      -0.044  12.068  20.938  0.00  0.00    +0.000 HD
ENDBRANCH  19  20
ENDBRANCH   2  19
TORSDOF 5
ENDMDL
MODEL 2
REMARK VINA RESULT:      -8.2      2.767      4.418
REMARK  Name = 
REMARK  5 active torsions:
REMARK  status: ('A' for Active; 'I' for Inactive)
REMARK    1  A    between atoms: C_2  and  C_3
REMARK    2  A    between atoms: C_3  and  C_4
REMARK    3  A    between atoms: N_13  and  C_14
REMARK    4  A    between atoms: C_18  and  S_19
REMARK    5  A    between atoms: S_19  and  N_22
REMARK                            x       y       z     vdW  Elec       q    Type
REMARK                         _______ _______ _______ _____ _____    ______ ____
ROOT
ATOM      1  O   UNL     1       0.783   6.116  20.667  0.00  0.00    +0.000 OA
ATOM      2  C   UNL     1       1.654   6.984  20.651  0.00  0.00    +0.000 C 
ATOM      3  N   UNL     1       2.797   6.972  19.855  0.00  0.00    +0.000 N 
ATOM      4  H   UNL     1       3.517   7.648  20.082  0.00  0.00    +0.000 HD
ENDROOT
BRANCH   3   5
ATOM      5  C   UNL     1       3.133   5.969  18.910  0.00  0.00    +0.000 A 
ATOM      6  C   UNL     1       2.603   4.675  18.967  0.00  0.00    +0.000 A 
ATOM      7  C   UNL     1       3.064   3.664  18.121  0.00  0.00    +0.000 A 
ATOM      8  C   UNL     1       4.018   3.951  17.156  0.00  0.00    +0.000 A 
ATOM      9  C   UNL     1       4.452   5.269  16.996  0.00  0.00    +0.000 A 
ATOM     10  C   UNL     1       4.041   6.276  17.888  0.00  0.00    +0.000 A 
BRANCH   9  11
ATOM     11  S   UNL     1       5.589   5.636  15.673  0.00  0.00    +0.000 S 
ATOM     12  O   UNL     1       5.668   4.458  14.835  0.00  0.00    +0.000 OA
ATOM     13  O   UNL     1       5.216   6.921  15.116  0.00  0.00    +0.000 OA
BRANCH  11  14
ATOM     14  N   UNL     1       7.072   5.816  16.465  0.00  0.00    +0.000 NA
ATOM     15  C   UNL     1       7.540   4.759  17.377  0.00  0.00    +0.000 C 
ATOM     16  C   UNL     1       7.570   5.418  18.741  0.00  0.00    +0.000 C 
ATOM     17  C   UNL     1       7.904   6.871  18.455  0.00  0.00    +0.000 C 
ATOM     18  C   UNL     1       7.441   7.132  17.026  0.00  0.00    +0.000 C 
ENDBRANCH  11  14
ENDBRANCH   9  11
ENDBRANCH   3   5
BRANCH   2  19
ATOM     19  C   UNL     1       1.515   8.217  21.531  0.00  0.00    +0.000 C 
BRANCH  19  20
ATOM     20  C   UNL     1       0.732   9.325  20.901  0.00  0.00    +0.000 A 
ATOM     21  C   UNL     1       0.713   9.629  19.551  0.00  0.00    +0.000 A 
ATOM     22  N   UNL     1      -0.157  10.665  19.350  0.00  0.00    +0.000 N 
ATOM     23  C   UNL     1      -0.724  11.051  20.537  0.00  0.00    +0.000 A 
ATOM     24  C   UNL     1      -1.664  12.056  20.804  0.00  0.00    +0.000 A 
ATOM     25  C   UNL     1      -2.082  12.222  22.127  0.00  0.00    +0.000 A 
ATOM     26  C   UNL     1      -1.591  11.406  23.142  0.00  0.00    +0.000 A 
ATOM     27  C   UNL     1      -0.654  10.403  22.857  0.00  0.00    +0.000 A 
ATOM     28  C   UNL     1      -0.198  10.223  21.532  0.00  0.00    +0.000 A 
ATOM     29  H   UNL     1      -0.376  11.080  18.455  0.00  0.00    +0.000 HD
ENDBRANCH  19  20
ENDBRANCH   2  19
TORSDOF 5
ENDMDL
MODEL 3
REMARK VINA RESULT:      -8.2      2.776      4.341
REMARK  Name = 
REMARK  5 active torsions:
REMARK  status: ('A' for Active; 'I' for Inactive)
REMARK    1  A    between atoms: C_2  and  C_3
REMARK    2  A    between atoms: C_3  and  C_4
REMARK    3  A    between atoms: N_13  and  C_14
REMARK    4  A    between atoms: C_18  and  S_19
REMARK    5  A    between atoms: S_19  and  N_22
REMARK                            x       y       z     vdW  Elec       q    Type
REMARK                         _______ _______ _______ _____ _____    ______ ____
ROOT
ATOM      1  O   UNL     1       0.772   8.815  17.379  0.00  0.00    +0.000 OA
ATOM      2  C   UNL     1       1.753   9.294  17.947  0.00  0.00    +0.000 C 
ATOM      3  N   UNL     1       2.912   8.600  18.287  0.00  0.00    +0.000 N 
ATOM      4  H   UNL     1       3.554   9.067  18.917  0.00  0.00    +0.000 HD
ENDROOT
BRANCH   3   5
ATOM      5  C   UNL     1       3.166   7.232  18.013  0.00  0.00    +0.000 A 
ATOM      6  C   UNL     1       2.404   6.199  18.571  0.00  0.00    +0.000 A 
ATOM      7  C   UNL     1       2.766   4.861  18.408  0.00  0.00    +0.000 A 
ATOM      8  C   UNL     1       3.861   4.531  17.625  0.00  0.00    +0.000 A 
ATOM      9  C   UNL     1       4.546   5.543  16.948  0.00  0.00    +0.000 A 
ATOM     10  C   UNL     1       4.227   6.896  17.162  0.00  0.00    +0.000 A 
BRANCH   9  11
ATOM     11  S   UNL     1       5.877   5.085  15.854  0.00  0.00    +0.000 S 
ATOM     12  O   UNL     1       5.838   3.645  15.709  0.00  0.00    +0.000 OA
ATOM     13  O   UNL     1       5.811   5.950  14.694  0.00  0.00    +0.000 OA
BRANCH  11  14
ATOM     14  N   UNL     1       7.266   5.486  16.731  0.00  0.00    +0.000 NA
ATOM     15  C   UNL     1       7.642   4.677  17.903  0.00  0.00    +0.000 C 
ATOM     16  C   UNL     1       7.520   5.629  19.077  0.00  0.00    +0.000 C 
ATOM     17  C   UNL     1       7.873   6.989  18.503  0.00  0.00    +0.000 C 
ATOM     18  C   UNL     1       7.563   6.906  17.012  0.00  0.00    +0.000 C 
ENDBRANCH  11  14
ENDBRANCH   9  11
ENDBRANCH   3   5
BRANCH   2  19
ATOM     19  C   UNL     1       1.777  10.771  18.307  0.00  0.00    +0.000 C 
BRANCH  19  20
ATOM     20  C   UNL     1       0.758  11.161  19.331  0.00  0.00    +0.000 A 
ATOM     21  C   UNL     1      -0.225  12.121  19.161  0.00  0.00    +0.000 A 
ATOM     22  N   UNL     1      -0.997  12.158  20.290  0.00  0.00    +0.000 N 
ATOM     23  C   UNL     1      -0.554  11.236  21.203  0.00  0.00    +0.000 A 
ATOM     24  C   UNL     1      -1.041  10.924  22.480  0.00  0.00    +0.000 A 
ATOM     25  C   UNL     1      -0.393   9.914  23.196  0.00  0.00    +0.000 A 
ATOM     26  C   UNL     1       0.692   9.232  22.650  0.00  0.00    +0.000 A 
ATOM     27  C   UNL     1       1.163   9.554  21.371  0.00  0.00    +0.000 A 
ATOM     28  C   UNL     1       0.540  10.582  20.630  0.00  0.00    +0.000 A 
ATOM     29  H   UNL     1      -1.798  12.758  20.432  0.00  0.00    +0.000 HD
ENDBRANCH  19  20
ENDBRANCH   2  19
TORSDOF 5
ENDMDL
MODEL 4
REMARK VINA RESULT:      -8.1      5.259      7.514
REMARK  Name = 
REMARK  5 active torsions:
REMARK  status: ('A' for Active; 'I' for Inactive)
REMARK    1  A    between atoms: C_2  and  C_3
REMARK    2  A    between atoms: C_3  and  C_4
REMARK    3  A    between atoms: N_13  and  C_14
REMARK    4  A    between atoms: C_18  and  S_19
REMARK    5  A    between atoms: S_19  and  N_22
REMARK                            x       y       z     vdW  Elec       q    Type
REMARK                         _______ _______ _______ _____ _____    ______ ____
ROOT
ATOM      1  O   UNL     1       8.789   8.052  18.692  0.00  0.00    +0.000 OA
ATOM      2  C   UNL     1       7.983   8.668  17.996  0.00  0.00    +0.000 C 
ATOM      3  N   UNL     1       6.889   8.111  17.336  0.00  0.00    +0.000 N 
ATOM      4  H   UNL     1       6.426   8.696  16.650  0.00  0.00    +0.000 HD
ENDROOT
BRANCH   3   5
ATOM      5  C   UNL     1       6.509   6.746  17.377  0.00  0.00    +0.000 A 
ATOM      6  C   UNL     1       7.418   5.705  17.159  0.00  0.00    +0.000 A 
ATOM      7  C   UNL     1       6.993   4.379  17.053  0.00  0.00    +0.000 A 
ATOM      8  C   UNL     1       5.654   4.066  17.231  0.00  0.00    +0.000 A 
ATOM      9  C   UNL     1       4.758   5.077  17.587  0.00  0.00    +0.000 A 
ATOM     10  C   UNL     1       5.169   6.422  17.630  0.00  0.00    +0.000 A 
BRANCH   9  11
ATOM     11  S   UNL     1       3.065   4.634  17.926  0.00  0.00    +0.000 S 
ATOM     12  O   UNL     1       2.299   5.862  17.963  0.00  0.00    +0.000 OA
ATOM     13  O   UNL     1       2.703   3.558  17.027  0.00  0.00    +0.000 OA
BRANCH  11  14
ATOM     14  N   UNL     1       3.127   4.010  19.496  0.00  0.00    +0.000 NA
ATOM     15  C   UNL     1       2.977   2.560  19.707  0.00  0.00    +0.000 C 
ATOM     16  C   UNL     1       1.689   2.420  20.493  0.00  0.00    +0.000 C 
ATOM     17  C   UNL     1       1.617   3.680  21.335  0.00  0.00    +0.000 C 
ATOM     18  C   UNL     1       2.440   4.727  20.591  0.00  0.00    +0.000 C 
ENDBRANCH  11  14
ENDBRANCH   9  11
ENDBRANCH   3   5
BRANCH   2  19
ATOM     19  C   UNL     1       8.118  10.173  17.829  0.00  0.00    +0.000 C 
BRANCH  19  20
ATOM     20  C   UNL     1       9.045  10.811  18.814  0.00  0.00    +0.000 A 
ATOM     21  C   UNL     1       9.062  10.567  20.176  0.00  0.00    +0.000 A 
ATOM     22  N   UNL     1      10.080  11.290  20.736  0.00  0.00    +0.000 N 
ATOM     23  C   UNL     1      10.745  12.004  19.773  0.00  0.00    +0.000 A 
ATOM     24  C   UNL     1      11.844  12.867  19.886  0.00  0.00    +0.000 A 
ATOM     25  C   UNL     1      12.333  13.456  18.717  0.00  0.00    +0.000 A 
ATOM     26  C   UNL     1      11.754  13.184  17.481  0.00  0.00    +0.000 A 
ATOM     27  C   UNL     1      10.658  12.316  17.385  0.00  0.00    +0.000 A 
ATOM     28  C   UNL     1      10.130  11.718  18.551  0.00  0.00    +0.000 A 
ATOM     29  H   UNL     1      10.330  11.288  21.715  0.00  0.00    +0.000 HD
ENDBRANCH  19  20
ENDBRANCH   2  19
TORSDOF 5
ENDMDL
MODEL 5
REMARK VINA RESULT:      -8.0      3.167      4.648
REMARK  Name = 
REMARK  5 active torsions:
REMARK  status: ('A' for Active; 'I' for Inactive)
REMARK    1  A    between atoms: C_2  and  C_3
REMARK    2  A    between atoms: C_3  and  C_4
REMARK    3  A    between atoms: N_13  and  C_14
REMARK    4  A    between atoms: C_18  and  S_19
REMARK    5  A    between atoms: S_19  and  N_22
REMARK                            x       y       z     vdW  Elec       q    Type
REMARK                         _______ _______ _______ _____ _____    ______ ____
ROOT
ATOM      1  O   UNL     1       1.478   9.617  22.852  0.00  0.00    +0.000 OA
ATOM      2  C   UNL     1       0.386   9.730  22.296  0.00  0.00    +0.000 C 
ATOM      3  N   UNL     1       0.108   9.379  20.977  0.00  0.00    +0.000 N 
ATOM      4  H   UNL     1      -0.774   9.702  20.596  0.00  0.00    +0.000 HD
ENDROOT
BRANCH   3   5
ATOM      5  C   UNL     1       1.030   8.808  20.063  0.00  0.00    +0.000 A 
ATOM      6  C   UNL     1       1.420   9.455  18.885  0.00  0.00    +0.000 A 
ATOM      7  C   UNL     1       2.208   8.811  17.930  0.00  0.00    +0.000 A 
ATOM      8  C   UNL     1       2.676   7.528  18.170  0.00  0.00    +0.000 A 
ATOM      9  C   UNL     1       2.412   6.925  19.402  0.00  0.00    +0.000 A 
ATOM     10  C   UNL     1       1.564   7.542  20.339  0.00  0.00    +0.000 A 
BRANCH   9  11
ATOM     11  S   UNL     1       3.123   5.324  19.736  0.00  0.00    +0.000 S 
ATOM     12  O   UNL     1       4.556   5.448  19.572  0.00  0.00    +0.000 OA
ATOM     13  O   UNL     1       2.556   4.842  20.979  0.00  0.00    +0.000 OA
BRANCH  11  14
ATOM     14  N   UNL     1       2.533   4.360  18.479  0.00  0.00    +0.000 NA
ATOM     15  C   UNL     1       1.254   3.650  18.648  0.00  0.00    +0.000 C 
ATOM     16  C   UNL     1       1.626   2.181  18.612  0.00  0.00    +0.000 C 
ATOM     17  C   UNL     1       2.823   2.113  17.681  0.00  0.00    +0.000 C 
ATOM     18  C   UNL     1       3.467   3.495  17.728  0.00  0.00    +0.000 C 
ENDBRANCH  11  14
ENDBRANCH   9  11
ENDBRANCH   3   5
BRANCH   2  19
ATOM     19  C   UNL     1      -0.809  10.264  23.069  0.00  0.00    +0.000 C 
BRANCH  19  20
ATOM     20  C   UNL     1      -1.120  11.700  22.788  0.00  0.00    +0.000 A 
ATOM     21  C   UNL     1      -0.340  12.559  22.034  0.00  0.00    +0.000 A 
ATOM     22  N   UNL     1      -0.975  13.768  21.955  0.00  0.00    +0.000 N 
ATOM     23  C   UNL     1      -2.165  13.729  22.634  0.00  0.00    +0.000 A 
ATOM     24  C   UNL     1      -3.136  14.724  22.813  0.00  0.00    +0.000 A 
ATOM     25  C   UNL     1      -4.277  14.397  23.551  0.00  0.00    +0.000 A 
ATOM     26  C   UNL     1      -4.447  13.120  24.079  0.00  0.00    +0.000 A 
ATOM     27  C   UNL     1      -3.468  12.135  23.887  0.00  0.00    +0.000 A 
ATOM     28  C   UNL     1      -2.296  12.441  23.161  0.00  0.00    +0.000 A 
ATOM     29  H   UNL     1      -0.635  14.576  21.451  0.00  0.00    +0.000 HD
ENDBRANCH  19  20
ENDBRANCH   2  19
TORSDOF 5
ENDMDL
MODEL 6
REMARK VINA RESULT:      -8.0      2.064      3.534
REMARK  Name = 
REMARK  5 active torsions:
REMARK  status: ('A' for Active; 'I' for Inactive)
REMARK    1  A    between atoms: C_2  and  C_3
REMARK    2  A    between atoms: C_3  and  C_4
REMARK    3  A    between atoms: N_13  and  C_14
REMARK    4  A    between atoms: C_18  and  S_19
REMARK    5  A    between atoms: S_19  and  N_22
REMARK                            x       y       z     vdW  Elec       q    Type
REMARK                         _______ _______ _______ _____ _____    ______ ____
ROOT
ATOM      1  O   UNL     1       1.377   8.568  20.037  0.00  0.00    +0.000 OA
ATOM      2  C   UNL     1       1.673   8.908  18.892  0.00  0.00    +0.000 C 
ATOM      3  N   UNL     1       2.165   8.066  17.898  0.00  0.00    +0.000 N 
ATOM      4  H   UNL     1       2.544   8.512  17.070  0.00  0.00    +0.000 HD
ENDROOT
BRANCH   3   5
ATOM      5  C   UNL     1       2.385   6.671  18.033  0.00  0.00    +0.000 A 
ATOM      6  C   UNL     1       1.370   5.728  17.839  0.00  0.00    +0.000 A 
ATOM      7  C   UNL     1       1.571   4.376  18.125  0.00  0.00    +0.000 A 
ATOM      8  C   UNL     1       2.816   3.936  18.546  0.00  0.00    +0.000 A 
ATOM      9  C   UNL     1       3.876   4.844  18.608  0.00  0.00    +0.000 A 
ATOM     10  C   UNL     1       3.662   6.216  18.386  0.00  0.00    +0.000 A 
BRANCH   9  11
ATOM     11  S   UNL     1       5.495   4.234  19.038  0.00  0.00    +0.000 S 
ATOM     12  O   UNL     1       6.185   5.301  19.733  0.00  0.00    +0.000 OA
ATOM     13  O   UNL     1       5.327   2.934  19.652  0.00  0.00    +0.000 OA
BRANCH  11  14
ATOM     14  N   UNL     1       6.246   4.016  17.539  0.00  0.00    +0.000 NA
ATOM     15  C   UNL     1       7.409   4.846  17.182  0.00  0.00    +0.000 C 
ATOM     16  C   UNL     1       6.940   5.669  15.999  0.00  0.00    +0.000 C 
ATOM     17  C   UNL     1       5.950   4.772  15.279  0.00  0.00    +0.000 C 
ATOM     18  C   UNL     1       5.416   3.808  16.334  0.00  0.00    +0.000 C 
ENDBRANCH  11  14
ENDBRANCH   9  11
ENDBRANCH   3   5
BRANCH   2  19
ATOM     19  C   UNL     1       1.476  10.350  18.453  0.00  0.00    +0.000 C 
BRANCH  19  20
ATOM     20  C   UNL     1       0.148  10.924  18.834  0.00  0.00    +0.000 A 
ATOM     21  C   UNL     1      -0.065  11.872  19.820  0.00  0.00    +0.000 A 
ATOM     22  N   UNL     1      -1.396  12.189  19.839  0.00  0.00    +0.000 N 
ATOM     23  C   UNL     1      -2.071  11.477  18.881  0.00  0.00    +0.000 A 
ATOM     24  C   UNL     1      -3.431  11.485  18.542  0.00  0.00    +0.000 A 
ATOM     25  C   UNL     1      -3.847  10.656  17.497  0.00  0.00    +0.000 A 
ATOM     26  C   UNL     1      -2.936   9.860  16.808  0.00  0.00    +0.000 A 
ATOM     27  C   UNL     1      -1.579   9.866  17.158  0.00  0.00    +0.000 A 
ATOM     28  C   UNL     1      -1.131  10.681  18.221  0.00  0.00    +0.000 A 
ATOM     29  H   UNL     1      -1.827  12.866  20.453  0.00  0.00    +0.000 HD
ENDBRANCH  19  20
ENDBRANCH   2  19
TORSDOF 5
ENDMDL
MODEL 7
REMARK VINA RESULT:      -8.0      2.127      3.707
REMARK  Name = 
REMARK  5 active torsions:
REMARK  status: ('A' for Active; 'I' for Inactive)
REMARK    1  A    between atoms: C_2  and  C_3
REMARK    2  A    between atoms: C_3  and  C_4
REMARK    3  A    between atoms: N_13  and  C_14
REMARK    4  A    between atoms: C_18  and  S_19
REMARK    5  A    between atoms: S_19  and  N_22
REMARK                            x       y       z     vdW  Elec       q    Type
REMARK                         _______ _______ _______ _____ _____    ______ ____
ROOT
ATOM      1  O   UNL     1       0.889   9.187  21.200  0.00  0.00    +0.000 OA
ATOM      2  C   UNL     1       1.248   9.387  20.040  0.00  0.00    +0.000 C 
ATOM      3  N   UNL     1       1.883   8.459  19.217  0.00  0.00    +0.000 N 
ATOM      4  H   UNL     1       2.291   8.816  18.360  0.00  0.00    +0.000 HD
ENDROOT
BRANCH   3   5
ATOM      5  C   UNL     1       2.197   7.122  19.569  0.00  0.00    +0.000 A 
ATOM      6  C   UNL     1       1.347   6.330  20.349  0.00  0.00    +0.000 A 
ATOM      7  C   UNL     1       1.745   5.074  20.809  0.00  0.00    +0.000 A 
ATOM      8  C   UNL     1       2.978   4.559  20.437  0.00  0.00    +0.000 A 
ATOM      9  C   UNL     1       3.776   5.278  19.544  0.00  0.00    +0.000 A 
ATOM     10  C   UNL     1       3.409   6.572  19.132  0.00  0.00    +0.000 A 
BRANCH   9  11
ATOM     11  S   UNL     1       5.303   4.546  18.987  0.00  0.00    +0.000 S 
ATOM     12  O   UNL     1       6.378   5.192  19.710  0.00  0.00    +0.000 OA
ATOM     13  O   UNL     1       5.140   3.107  19.026  0.00  0.00    +0.000 OA
BRANCH  11  14
ATOM     14  N   UNL     1       5.402   5.021  17.368  0.00  0.00    +0.000 NA
ATOM     15  C   UNL     1       4.833   4.155  16.321  0.00  0.00    +0.000 C 
ATOM     16  C   UNL     1       6.029   3.717  15.498  0.00  0.00    +0.000 C 
ATOM     17  C   UNL     1       6.993   4.887  15.574  0.00  0.00    +0.000 C 
ATOM     18  C   UNL     1       6.652   5.626  16.864  0.00  0.00    +0.000 C 
ENDBRANCH  11  14
ENDBRANCH   9  11
ENDBRANCH   3   5
BRANCH   2  19
ATOM     19  C   UNL     1       0.978  10.730  19.382  0.00  0.00    +0.000 C 
BRANCH  19  20
ATOM     20  C   UNL     1      -0.460  11.140  19.410  0.00  0.00    +0.000 A 
ATOM     21  C   UNL     1      -1.036  11.990  20.338  0.00  0.00    +0.000 A 
ATOM     22  N   UNL     1      -2.351  12.171  20.007  0.00  0.00    +0.000 N 
ATOM     23  C   UNL     1      -2.661  11.463  18.874  0.00  0.00    +0.000 A 
ATOM     24  C   UNL     1      -3.873  11.358  18.178  0.00  0.00    +0.000 A 
ATOM     25  C   UNL     1      -3.897  10.566  17.027  0.00  0.00    +0.000 A 
ATOM     26  C   UNL     1      -2.750   9.915  16.581  0.00  0.00    +0.000 A 
ATOM     27  C   UNL     1      -1.545  10.033  17.287  0.00  0.00    +0.000 A 
ATOM     28  C   UNL     1      -1.493  10.813  18.463  0.00  0.00    +0.000 A 
ATOM     29  H   UNL     1      -3.005  12.757  20.506  0.00  0.00    +0.000 HD
ENDBRANCH  19  20
ENDBRANCH   2  19
TORSDOF 5
ENDMDL
MODEL 8
REMARK VINA RESULT:      -8.0      2.448      3.893
REMARK  Name = 
REMARK  5 active torsions:
REMARK  status: ('A' for Active; 'I' for Inactive)
REMARK    1  A    between atoms: C_2  and  C_3
REMARK    2  A    between atoms: C_3  and  C_4
REMARK    3  A    between atoms: N_13  and  C_14
REMARK    4  A    between atoms: C_18  and  S_19
REMARK    5  A    between atoms: S_19  and  N_22
REMARK                            x       y       z     vdW  Elec       q    Type
REMARK                         _______ _______ _______ _____ _____    ______ ____
ROOT
ATOM      1  O   UNL     1       2.285   8.537  18.067  0.00  0.00    +0.000 OA
ATOM      2  C   UNL     1       2.025   7.994  19.139  0.00  0.00    +0.000 C 
ATOM      3  N   UNL     1       2.248   6.653  19.445  0.00  0.00    +0.000 N 
ATOM      4  H   UNL     1       1.813   6.301  20.289  0.00  0.00    +0.000 HD
ENDROOT
BRANCH   3   5
ATOM      5  C   UNL     1       2.837   5.697  18.579  0.00  0.00    +0.000 A 
ATOM      6  C   UNL     1       2.527   4.334  18.642  0.00  0.00    +0.000 A 
ATOM      7  C   UNL     1       3.229   3.394  17.885  0.00  0.00    +0.000 A 
ATOM      8  C   UNL     1       4.211   3.812  17.001  0.00  0.00    +0.000 A 
ATOM      9  C   UNL     1       4.434   5.180  16.825  0.00  0.00    +0.000 A 
ATOM     10  C   UNL     1       3.777   6.126  17.632  0.00  0.00    +0.000 A 
BRANCH   9  11
ATOM     11  S   UNL     1       5.618   5.699  15.598  0.00  0.00    +0.000 S 
ATOM     12  O   UNL     1       5.754   4.615  14.648  0.00  0.00    +0.000 OA
ATOM     13  O   UNL     1       5.246   7.029  15.161  0.00  0.00    +0.000 OA
BRANCH  11  14
ATOM     14  N   UNL     1       7.063   5.816  16.468  0.00  0.00    +0.000 NA
ATOM     15  C   UNL     1       7.509   4.680  17.291  0.00  0.00    +0.000 C 
ATOM     16  C   UNL     1       7.470   5.202  18.714  0.00  0.00    +0.000 C 
ATOM     17  C   UNL     1       7.794   6.680  18.587  0.00  0.00    +0.000 C 
ATOM     18  C   UNL     1       7.388   7.075  17.170  0.00  0.00    +0.000 C 
ENDBRANCH  11  14
ENDBRANCH   9  11
ENDBRANCH   3   5
BRANCH   2  19
ATOM     19  C   UNL     1       1.436   8.809  20.280  0.00  0.00    +0.000 C 
BRANCH  19  20
ATOM     20  C   UNL     1       0.871  10.127  19.855  0.00  0.00    +0.000 A 
ATOM     21  C   UNL     1       1.388  11.367  20.187  0.00  0.00    +0.000 A 
ATOM     22  N   UNL     1       0.638  12.331  19.571  0.00  0.00    +0.000 N 
ATOM     23  C   UNL     1      -0.362  11.757  18.828  0.00  0.00    +0.000 A 
ATOM     24  C   UNL     1      -1.353  12.352  18.035  0.00  0.00    +0.000 A 
ATOM     25  C   UNL     1      -2.246  11.510  17.368  0.00  0.00    +0.000 A 
ATOM     26  C   UNL     1      -2.145  10.126  17.478  0.00  0.00    +0.000 A 
ATOM     27  C   UNL     1      -1.146   9.548  18.272  0.00  0.00    +0.000 A 
ATOM     28  C   UNL     1      -0.238  10.372  18.973  0.00  0.00    +0.000 A 
ATOM     29  H   UNL     1       0.802  13.327  19.628  0.00  0.00    +0.000 HD
ENDBRANCH  19  20
ENDBRANCH   2  19
TORSDOF 5
ENDMDL
MODEL 9
REMARK VINA RESULT:      -7.9      2.991      4.696
REMARK  Name = 
REMARK  5 active torsions:
REMARK  status: ('A' for Active; 'I' for Inactive)
REMARK    1  A    between atoms: C_2  and  C_3
REMARK    2  A    between atoms: C_3  and  C_4
REMARK    3  A    between atoms: N_13  and  C_14
REMARK    4  A    between atoms: C_18  and  S_19
REMARK    5  A    between atoms: S_19  and  N_22
REMARK                            x       y       z     vdW  Elec       q    Type
REMARK                         _______ _______ _______ _____ _____    ______ ____
ROOT
ATOM      1  O   UNL     1       1.289  11.815  21.066  0.00  0.00    +0.000 OA
ATOM      2  C   UNL     1       0.397  11.053  21.438  0.00  0.00    +0.000 C 
ATOM      3  N   UNL     1       0.209   9.747  20.992  0.00  0.00    +0.000 N 
ATOM      4  H   UNL     1      -0.669   9.304  21.237  0.00  0.00    +0.000 HD
ENDROOT
BRANCH   3   5
ATOM      5  C   UNL     1       1.029   9.069  20.054  0.00  0.00    +0.000 A 
ATOM      6  C   UNL     1       1.352   9.613  18.807  0.00  0.00    +0.000 A 
ATOM      7  C   UNL     1       2.032   8.866  17.843  0.00  0.00    +0.000 A 
ATOM      8  C   UNL     1       2.459   7.581  18.138  0.00  0.00    +0.000 A 
ATOM      9  C   UNL     1       2.267   7.077  19.427  0.00  0.00    +0.000 A 
ATOM     10  C   UNL     1       1.525   7.799  20.379  0.00  0.00    +0.000 A 
BRANCH   9  11
ATOM     11  S   UNL     1       2.929   5.469  19.820  0.00  0.00    +0.000 S 
ATOM     12  O   UNL     1       4.359   5.527  19.600  0.00  0.00    +0.000 OA
ATOM     13  O   UNL     1       2.390   5.073  21.105  0.00  0.00    +0.000 OA
BRANCH  11  14
ATOM     14  N   UNL     1       2.258   4.465  18.637  0.00  0.00    +0.000 NA
ATOM     15  C   UNL     1       1.158   3.554  18.996  0.00  0.00    +0.000 C 
ATOM     16  C   UNL     1       1.733   2.166  18.798  0.00  0.00    +0.000 C 
ATOM     17  C   UNL     1       2.721   2.322  17.657  0.00  0.00    +0.000 C 
ATOM     18  C   UNL     1       3.146   3.787  17.671  0.00  0.00    +0.000 C 
ENDBRANCH  11  14
ENDBRANCH   9  11
ENDBRANCH   3   5
BRANCH   2  19
ATOM     19  C   UNL     1      -0.597  11.505  22.496  0.00  0.00    +0.000 C 
BRANCH  19  20
ATOM     20  C   UNL     1      -1.855  12.087  21.935  0.00  0.00    +0.000 A 
ATOM     21  C   UNL     1      -2.086  12.368  20.600  0.00  0.00    +0.000 A 
ATOM     22  N   UNL     1      -3.364  12.835  20.467  0.00  0.00    +0.000 N 
ATOM     23  C   UNL     1      -3.992  12.864  21.686  0.00  0.00    +0.000 A 
ATOM     24  C   UNL     1      -5.294  13.261  22.022  0.00  0.00    +0.000 A 
ATOM     25  C   UNL     1      -5.677  13.170  23.363  0.00  0.00    +0.000 A 
ATOM     26  C   UNL     1      -4.798  12.689  24.328  0.00  0.00    +0.000 A 
ATOM     27  C   UNL     1      -3.501  12.293  23.975  0.00  0.00    +0.000 A 
ATOM     28  C   UNL     1      -3.078  12.389  22.631  0.00  0.00    +0.000 A 
ATOM     29  H   UNL     1      -3.803  13.103  19.596  0.00  0.00    +0.000 HD
ENDBRANCH  19  20
ENDBRANCH   2  19
TORSDOF 5
ENDMDL
