MODEL 1
REMARK VINA RESULT:      -8.6      0.000      0.000
REMARK  Name = 
REMARK  6 active torsions:
REMARK  status: ('A' for Active; 'I' for Inactive)
REMARK    1  A    between atoms: C_1  and  C_2
REMARK    2  A    between atoms: N_10  and  S_11
REMARK    3  A    between atoms: S_11  and  C_14
REMARK    4  A    between atoms: C_18  and  C_19
REMARK    5  A    between atoms: N_21  and  C_22
REMARK    6  A    between atoms: C_22  and  C_23
REMARK                            x       y       z     vdW  Elec       q    Type
REMARK                         _______ _______ _______ _____ _____    ______ ____
ROOT
ATOM      1  C   UNL     1      -0.586  11.195  21.136  0.00  0.00    +0.000 A 
ATOM      2  C   UNL     1      -0.733  10.778  22.467  0.00  0.00    +0.000 A 
ATOM      3  C   UNL     1      -0.088   9.624  22.911  0.00  0.00    +0.000 A 
ATOM      4  C   UNL     1       0.691   8.881  22.018  0.00  0.00    +0.000 A 
ATOM      5  C   UNL     1       0.779   9.252  20.669  0.00  0.00    +0.000 A 
ATOM      6  C   UNL     1       0.123  10.408  20.219  0.00  0.00    +0.000 A 
ENDROOT
BRANCH   5   7
ATOM      7  C   UNL     1       1.652   8.432  19.782  0.00  0.00    +0.000 C 
ATOM      8  O   UNL     1       1.886   8.821  18.642  0.00  0.00    +0.000 OA
ATOM      9  N   UNL     1       2.167   7.269  20.302  0.00  0.00    +0.000 N 
ATOM     10  H   UNL     1       1.995   7.000  21.261  0.00  0.00    +0.000 HD
BRANCH   9  11
ATOM     11  C   UNL     1       2.924   6.341  19.476  0.00  0.00    +0.000 C 
BRANCH  11  12
ATOM     12  C   UNL     1       2.255   4.987  19.380  0.00  0.00    +0.000 A 
ATOM     13  C   UNL     1       2.314   4.259  18.192  0.00  0.00    +0.000 A 
ATOM     14  C   UNL     1       1.612   3.061  18.098  0.00  0.00    +0.000 A 
ATOM     15  C   UNL     1       0.879   2.616  19.190  0.00  0.00    +0.000 A 
ATOM     16  C   UNL     1       0.890   3.385  20.342  0.00  0.00    +0.000 A 
ATOM     17  N   UNL     1       1.553   4.558  20.462  0.00  0.00    +0.000 NA
ENDBRANCH  11  12
ENDBRANCH   9  11
ENDBRANCH   5   7
BRANCH   1  18
ATOM     18  S   UNL     1      -1.371  12.716  20.598  0.00  0.00    +0.000 S 
ATOM     19  O   UNL     1      -0.531  13.274  19.557  0.00  0.00    +0.000 OA
ATOM     20  O   UNL     1      -1.609  13.469  21.813  0.00  0.00    +0.000 OA
BRANCH  18  30
ATOM     21  C   UNL     1      -4.293  14.158  20.776  0.00  0.00    +0.000 C 
ATOM     22  C   UNL     1      -4.156  12.681  20.437  0.00  0.00    +0.000 C 
ATOM     23  C   UNL     1      -5.188  12.295  19.344  0.00  0.00    +0.000 C 
ATOM     24  C   UNL     1      -4.341  11.777  18.228  0.00  0.00    +0.000 A 
ATOM     25  C   UNL     1      -4.786  11.307  17.000  0.00  0.00    +0.000 A 
ATOM     26  C   UNL     1      -3.851  10.778  16.113  0.00  0.00    +0.000 A 
ATOM     27  C   UNL     1      -2.505  10.678  16.488  0.00  0.00    +0.000 A 
ATOM     28  C   UNL     1      -2.073  11.138  17.739  0.00  0.00    +0.000 A 
ATOM     29  C   UNL     1      -2.990  11.747  18.579  0.00  0.00    +0.000 A 
ATOM     30  N   UNL     1      -2.824  12.268  19.894  0.00  0.00    +0.000 N 
ENDBRANCH  18  30
ENDBRANCH   1  18
TORSDOF 5
ENDMDL
MODEL 2
REMARK VINA RESULT:      -8.6      1.215      1.483
REMARK  Name = 
REMARK  6 active torsions:
REMARK  status: ('A' for Active; 'I' for Inactive)
REMARK    1  A    between atoms: C_1  and  C_2
REMARK    2  A    between atoms: N_10  and  S_11
REMARK    3  A    between atoms: S_11  and  C_14
REMARK    4  A    between atoms: C_18  and  C_19
REMARK    5  A    between atoms: N_21  and  C_22
REMARK    6  A    between atoms: C_22  and  C_23
REMARK                            x       y       z     vdW  Elec       q    Type
REMARK                         _______ _______ _______ _____ _____    ______ ____
ROOT
ATOM      1  C   UNL     1       0.105  10.784  20.398  0.00  0.00    +0.000 A 
ATOM      2  C   UNL     1      -0.012  10.127  21.631  0.00  0.00    +0.000 A 
ATOM      3  C   UNL     1       0.604   8.891  21.824  0.00  0.00    +0.000 A 
ATOM      4  C   UNL     1       1.325   8.308  20.777  0.00  0.00    +0.000 A 
ATOM      5  C   UNL     1       1.381   8.925  19.519  0.00  0.00    +0.000 A 
ATOM      6  C   UNL     1       0.754  10.164  19.321  0.00  0.00    +0.000 A 
ENDROOT
BRANCH   5   7
ATOM      7  C   UNL     1       2.192   8.262  18.460  0.00  0.00    +0.000 C 
ATOM      8  O   UNL     1       2.335   8.818  17.375  0.00  0.00    +0.000 OA
ATOM      9  N   UNL     1       2.758   7.047  18.763  0.00  0.00    +0.000 N 
ATOM     10  H   UNL     1       2.663   6.638  19.682  0.00  0.00    +0.000 HD
BRANCH   9  11
ATOM     11  C   UNL     1       3.460   6.266  17.756  0.00  0.00    +0.000 C 
BRANCH  11  12
ATOM     12  C   UNL     1       3.084   4.801  17.807  0.00  0.00    +0.000 A 
ATOM     13  C   UNL     1       1.771   4.425  18.090  0.00  0.00    +0.000 A 
ATOM     14  C   UNL     1       1.470   3.073  18.225  0.00  0.00    +0.000 A 
ATOM     15  C   UNL     1       2.479   2.133  18.066  0.00  0.00    +0.000 A 
ATOM     16  C   UNL     1       3.752   2.586  17.762  0.00  0.00    +0.000 A 
ATOM     17  N   UNL     1       4.079   3.892  17.635  0.00  0.00    +0.000 NA
ENDBRANCH  11  12
ENDBRANCH   9  11
ENDBRANCH   5   7
BRANCH   1  18
ATOM     18  S   UNL     1      -0.641  12.402  20.188  0.00  0.00    +0.000 S 
ATOM     19  O   UNL     1       0.033  13.031  19.070  0.00  0.00    +0.000 OA
ATOM     20  O   UNL     1      -0.588  13.016  21.500  0.00  0.00    +0.000 OA
BRANCH  18  30
ATOM     21  C   UNL     1      -3.311  14.165  20.826  0.00  0.00    +0.000 C 
ATOM     22  C   UNL     1      -3.400  12.685  20.484  0.00  0.00    +0.000 C 
ATOM     23  C   UNL     1      -4.634  12.429  19.578  0.00  0.00    +0.000 C 
ATOM     24  C   UNL     1      -4.045  11.827  18.344  0.00  0.00    +0.000 A 
ATOM     25  C   UNL     1      -4.735  11.421  17.210  0.00  0.00    +0.000 A 
ATOM     26  C   UNL     1      -4.024  10.797  16.188  0.00  0.00    +0.000 A 
ATOM     27  C   UNL     1      -2.655  10.541  16.339  0.00  0.00    +0.000 A 
ATOM     28  C   UNL     1      -1.974  10.939  17.498  0.00  0.00    +0.000 A 
ATOM     29  C   UNL     1      -2.667  11.641  18.470  0.00  0.00    +0.000 A 
ATOM     30  N   UNL     1      -2.231  12.128  19.735  0.00  0.00    +0.000 N 
ENDBRANCH  18  30
ENDBRANCH   1  18
TORSDOF 5
ENDMDL
MODEL 3
REMARK VINA RESULT:      -8.5      4.111      9.500
REMARK  Name = 
REMARK  6 active torsions:
REMARK  status: ('A' for Active; 'I' for Inactive)
REMARK    1  A    between atoms: C_1  and  C_2
REMARK    2  A    between atoms: N_10  and  S_11
REMARK    3  A    between atoms: S_11  and  C_14
REMARK    4  A    between atoms: C_18  and  C_19
REMARK    5  A    between atoms: N_21  and  C_22
REMARK    6  A    between atoms: C_22  and  C_23
REMARK                            x       y       z     vdW  Elec       q    Type
REMARK                         _______ _______ _______ _____ _____    ______ ____
ROOT
ATOM      1  C   UNL     1       3.360   5.172  19.177  0.00  0.00    +0.000 A 
ATOM      2  C   UNL     1       2.774   4.828  20.404  0.00  0.00    +0.000 A 
ATOM      3  C   UNL     1       1.866   5.696  21.011  0.00  0.00    +0.000 A 
ATOM      4  C   UNL     1       1.558   6.914  20.396  0.00  0.00    +0.000 A 
ATOM      5  C   UNL     1       2.199   7.295  19.209  0.00  0.00    +0.000 A 
ATOM      6  C   UNL     1       3.118   6.428  18.602  0.00  0.00    +0.000 A 
ENDROOT
BRANCH   5   7
ATOM      7  C   UNL     1       1.798   8.592  18.594  0.00  0.00    +0.000 C 
ATOM      8  O   UNL     1       2.257   8.907  17.501  0.00  0.00    +0.000 OA
ATOM      9  N   UNL     1       0.910   9.375  19.291  0.00  0.00    +0.000 N 
ATOM     10  H   UNL     1       0.511   9.066  20.167  0.00  0.00    +0.000 HD
BRANCH   9  11
ATOM     11  C   UNL     1       0.557  10.711  18.834  0.00  0.00    +0.000 C 
BRANCH  11  12
ATOM     12  C   UNL     1      -0.918  10.831  18.515  0.00  0.00    +0.000 A 
ATOM     13  C   UNL     1      -1.482  10.052  17.505  0.00  0.00    +0.000 A 
ATOM     14  C   UNL     1      -2.818  10.249  17.166  0.00  0.00    +0.000 A 
ATOM     15  C   UNL     1      -3.557  11.207  17.847  0.00  0.00    +0.000 A 
ATOM     16  C   UNL     1      -2.930  11.923  18.853  0.00  0.00    +0.000 A 
ATOM     17  N   UNL     1      -1.633  11.763  19.199  0.00  0.00    +0.000 NA
ENDBRANCH  11  12
ENDBRANCH   9  11
ENDBRANCH   5   7
BRANCH   1  18
ATOM     18  S   UNL     1       4.476   4.017  18.379  0.00  0.00    +0.000 S 
ATOM     19  O   UNL     1       3.671   3.202  17.492  0.00  0.00    +0.000 OA
ATOM     20  O   UNL     1       5.212   3.394  19.461  0.00  0.00    +0.000 OA
BRANCH  18  30
ATOM     21  C   UNL     1       7.229   5.564  19.204  0.00  0.00    +0.000 C 
ATOM     22  C   UNL     1       6.412   5.989  17.992  0.00  0.00    +0.000 C 
ATOM     23  C   UNL     1       7.362   6.382  16.830  0.00  0.00    +0.000 C 
ATOM     24  C   UNL     1       6.971   5.453  15.727  0.00  0.00    +0.000 A 
ATOM     25  C   UNL     1       7.533   5.390  14.459  0.00  0.00    +0.000 A 
ATOM     26  C   UNL     1       6.976   4.516  13.529  0.00  0.00    +0.000 A 
ATOM     27  C   UNL     1       5.841   3.766  13.862  0.00  0.00    +0.000 A 
ATOM     28  C   UNL     1       5.272   3.853  15.139  0.00  0.00    +0.000 A 
ATOM     29  C   UNL     1       5.885   4.654  16.089  0.00  0.00    +0.000 A 
ATOM     30  N   UNL     1       5.504   4.941  17.431  0.00  0.00    +0.000 N 
ENDBRANCH  18  30
ENDBRANCH   1  18
TORSDOF 5
ENDMDL
MODEL 4
REMARK VINA RESULT:      -8.5      2.015      2.738
REMARK  Name = 
REMARK  6 active torsions:
REMARK  status: ('A' for Active; 'I' for Inactive)
REMARK    1  A    between atoms: C_1  and  C_2
REMARK    2  A    between atoms: N_10  and  S_11
REMARK    3  A    between atoms: S_11  and  C_14
REMARK    4  A    between atoms: C_18  and  C_19
REMARK    5  A    between atoms: N_21  and  C_22
REMARK    6  A    between atoms: C_22  and  C_23
REMARK                            x       y       z     vdW  Elec       q    Type
REMARK                         _______ _______ _______ _____ _____    ______ ____
ROOT
ATOM      1  C   UNL     1       0.070  10.695  20.374  0.00  0.00    +0.000 A 
ATOM      2  C   UNL     1      -0.082  10.027  21.597  0.00  0.00    +0.000 A 
ATOM      3  C   UNL     1       0.529   8.790  21.797  0.00  0.00    +0.000 A 
ATOM      4  C   UNL     1       1.279   8.216  20.765  0.00  0.00    +0.000 A 
ATOM      5  C   UNL     1       1.371   8.844  19.515  0.00  0.00    +0.000 A 
ATOM      6  C   UNL     1       0.749  10.084  19.310  0.00  0.00    +0.000 A 
ENDROOT
BRANCH   5   7
ATOM      7  C   UNL     1       2.212   8.190  18.474  0.00  0.00    +0.000 C 
ATOM      8  O   UNL     1       2.413   8.770  17.411  0.00  0.00    +0.000 OA
ATOM      9  N   UNL     1       2.739   6.956  18.768  0.00  0.00    +0.000 N 
ATOM     10  H   UNL     1       2.596   6.526  19.671  0.00  0.00    +0.000 HD
BRANCH   9  11
ATOM     11  C   UNL     1       3.467   6.186  17.771  0.00  0.00    +0.000 C 
BRANCH  11  12
ATOM     12  C   UNL     1       4.958   6.185  18.030  0.00  0.00    +0.000 A 
ATOM     13  C   UNL     1       5.822   6.832  17.147  0.00  0.00    +0.000 A 
ATOM     14  C   UNL     1       7.195   6.737  17.355  0.00  0.00    +0.000 A 
ATOM     15  C   UNL     1       7.670   6.011  18.438  0.00  0.00    +0.000 A 
ATOM     16  C   UNL     1       6.746   5.418  19.283  0.00  0.00    +0.000 A 
ATOM     17  N   UNL     1       5.407   5.482  19.103  0.00  0.00    +0.000 NA
ENDBRANCH  11  12
ENDBRANCH   9  11
ENDBRANCH   5   7
BRANCH   1  18
ATOM     18  S   UNL     1      -0.670  12.315  20.156  0.00  0.00    +0.000 S 
ATOM     19  O   UNL     1       0.026  12.949  19.055  0.00  0.00    +0.000 OA
ATOM     20  O   UNL     1      -0.644  12.922  21.472  0.00  0.00    +0.000 OA
BRANCH  18  30
ATOM     21  C   UNL     1      -3.359  14.054  20.784  0.00  0.00    +0.000 C 
ATOM     22  C   UNL     1      -3.436  12.581  20.410  0.00  0.00    +0.000 C 
ATOM     23  C   UNL     1      -4.652  12.339  19.477  0.00  0.00    +0.000 C 
ATOM     24  C   UNL     1      -4.039  11.765  18.242  0.00  0.00    +0.000 A 
ATOM     25  C   UNL     1      -4.708  11.380  17.087  0.00  0.00    +0.000 A 
ATOM     26  C   UNL     1      -3.977  10.780  16.066  0.00  0.00    +0.000 A 
ATOM     27  C   UNL     1      -2.609  10.526  16.235  0.00  0.00    +0.000 A 
ATOM     28  C   UNL     1      -1.951  10.902  17.414  0.00  0.00    +0.000 A 
ATOM     29  C   UNL     1      -2.663  11.582  18.388  0.00  0.00    +0.000 A 
ATOM     30  N   UNL     1      -2.251  12.044  19.670  0.00  0.00    +0.000 N 
ENDBRANCH  18  30
ENDBRANCH   1  18
TORSDOF 5
ENDMDL
MODEL 5
REMARK VINA RESULT:      -8.4      1.604      3.199
REMARK  Name = 
REMARK  6 active torsions:
REMARK  status: ('A' for Active; 'I' for Inactive)
REMARK    1  A    between atoms: C_1  and  C_2
REMARK    2  A    between atoms: N_10  and  S_11
REMARK    3  A    between atoms: S_11  and  C_14
REMARK    4  A    between atoms: C_18  and  C_19
REMARK    5  A    between atoms: N_21  and  C_22
REMARK    6  A    between atoms: C_22  and  C_23
REMARK                            x       y       z     vdW  Elec       q    Type
REMARK                         _______ _______ _______ _____ _____    ______ ____
ROOT
ATOM      1  C   UNL     1      -0.143  11.294  21.671  0.00  0.00    +0.000 A 
ATOM      2  C   UNL     1      -0.586  10.633  22.825  0.00  0.00    +0.000 A 
ATOM      3  C   UNL     1      -0.284   9.285  23.016  0.00  0.00    +0.000 A 
ATOM      4  C   UNL     1       0.448   8.597  22.043  0.00  0.00    +0.000 A 
ATOM      5  C   UNL     1       0.828   9.233  20.853  0.00  0.00    +0.000 A 
ATOM      6  C   UNL     1       0.517  10.586  20.656  0.00  0.00    +0.000 A 
ENDROOT
BRANCH   5   7
ATOM      7  C   UNL     1       1.633   8.447  19.876  0.00  0.00    +0.000 C 
ATOM      8  O   UNL     1       1.795   8.884  18.741  0.00  0.00    +0.000 OA
ATOM      9  N   UNL     1       2.171   7.260  20.309  0.00  0.00    +0.000 N 
ATOM     10  H   UNL     1       2.061   6.950  21.265  0.00  0.00    +0.000 HD
BRANCH   9  11
ATOM     11  C   UNL     1       2.864   6.365  19.395  0.00  0.00    +0.000 C 
BRANCH  11  12
ATOM     12  C   UNL     1       2.166   5.028  19.269  0.00  0.00    +0.000 A 
ATOM     13  C   UNL     1       1.422   4.522  20.335  0.00  0.00    +0.000 A 
ATOM     14  C   UNL     1       0.869   3.250  20.230  0.00  0.00    +0.000 A 
ATOM     15  C   UNL     1       1.060   2.520  19.065  0.00  0.00    +0.000 A 
ATOM     16  C   UNL     1       1.791   3.102  18.042  0.00  0.00    +0.000 A 
ATOM     17  N   UNL     1       2.350   4.330  18.117  0.00  0.00    +0.000 NA
ENDBRANCH  11  12
ENDBRANCH   9  11
ENDBRANCH   5   7
BRANCH   1  18
ATOM     18  S   UNL     1      -0.485  13.043  21.471  0.00  0.00    +0.000 S 
ATOM     19  O   UNL     1       0.118  13.447  20.217  0.00  0.00    +0.000 OA
ATOM     20  O   UNL     1      -0.052  13.657  22.710  0.00  0.00    +0.000 OA
BRANCH  18  30
ATOM     21  C   UNL     1      -2.430  11.906  19.110  0.00  0.00    +0.000 C 
ATOM     22  C   UNL     1      -2.845  13.081  19.984  0.00  0.00    +0.000 C 
ATOM     23  C   UNL     1      -4.357  12.977  20.320  0.00  0.00    +0.000 C 
ATOM     24  C   UNL     1      -4.382  12.931  21.813  0.00  0.00    +0.000 A 
ATOM     25  C   UNL     1      -5.508  12.828  22.619  0.00  0.00    +0.000 A 
ATOM     26  C   UNL     1      -5.343  12.890  24.000  0.00  0.00    +0.000 A 
ATOM     27  C   UNL     1      -4.071  13.107  24.547  0.00  0.00    +0.000 A 
ATOM     28  C   UNL     1      -2.946  13.229  23.721  0.00  0.00    +0.000 A 
ATOM     29  C   UNL     1      -3.103  13.074  22.353  0.00  0.00    +0.000 A 
ATOM     30  N   UNL     1      -2.147  13.178  21.303  0.00  0.00    +0.000 N 
ENDBRANCH  18  30
ENDBRANCH   1  18
TORSDOF 5
ENDMDL
MODEL 6
REMARK VINA RESULT:      -8.3      0.986      2.451
REMARK  Name = 
REMARK  6 active torsions:
REMARK  status: ('A' for Active; 'I' for Inactive)
REMARK    1  A    between atoms: C_1  and  C_2
REMARK    2  A    between atoms: N_10  and  S_11
REMARK    3  A    between atoms: S_11  and  C_14
REMARK    4  A    between atoms: C_18  and  C_19
REMARK    5  A    between atoms: N_21  and  C_22
REMARK    6  A    between atoms: C_22  and  C_23
REMARK                            x       y       z     vdW  Elec       q    Type
REMARK                         _______ _______ _______ _____ _____    ______ ____
ROOT
ATOM      1  C   UNL     1      -0.435  11.161  20.211  0.00  0.00    +0.000 A 
ATOM      2  C   UNL     1      -0.809  10.933  21.543  0.00  0.00    +0.000 A 
ATOM      3  C   UNL     1      -0.300   9.832  22.231  0.00  0.00    +0.000 A 
ATOM      4  C   UNL     1       0.570   8.952  21.580  0.00  0.00    +0.000 A 
ATOM      5  C   UNL     1       0.887   9.133  20.226  0.00  0.00    +0.000 A 
ATOM      6  C   UNL     1       0.369  10.235  19.530  0.00  0.00    +0.000 A 
ENDROOT
BRANCH   5   7
ATOM      7  C   UNL     1       1.845   8.175  19.607  0.00  0.00    +0.000 C 
ATOM      8  O   UNL     1       2.256   8.386  18.470  0.00  0.00    +0.000 OA
ATOM      9  N   UNL     1       2.234   7.093  20.359  0.00  0.00    +0.000 N 
ATOM     10  H   UNL     1       1.916   6.973  21.311  0.00  0.00    +0.000 HD
BRANCH   9  11
ATOM     11  C   UNL     1       3.065   6.040  19.797  0.00  0.00    +0.000 C 
BRANCH  11  12
ATOM     12  C   UNL     1       2.260   4.808  19.442  0.00  0.00    +0.000 A 
ATOM     13  C   UNL     1       1.400   4.238  20.381  0.00  0.00    +0.000 A 
ATOM     14  C   UNL     1       0.743   3.053  20.064  0.00  0.00    +0.000 A 
ATOM     15  C   UNL     1       0.951   2.473  18.820  0.00  0.00    +0.000 A 
ATOM     16  C   UNL     1       1.801   3.114  17.934  0.00  0.00    +0.000 A 
ATOM     17  N   UNL     1       2.462   4.259  18.215  0.00  0.00    +0.000 NA
ENDBRANCH  11  12
ENDBRANCH   9  11
ENDBRANCH   5   7
BRANCH   1  18
ATOM     18  S   UNL     1      -1.047  12.616  19.360  0.00  0.00    +0.000 S 
ATOM     19  O   UNL     1      -0.197  12.814  18.203  0.00  0.00    +0.000 OA
ATOM     20  O   UNL     1      -1.129  13.644  20.379  0.00  0.00    +0.000 OA
BRANCH  18  30
ATOM     21  C   UNL     1      -1.959  10.281  17.270  0.00  0.00    +0.000 C 
ATOM     22  C   UNL     1      -2.821  11.512  17.510  0.00  0.00    +0.000 C 
ATOM     23  C   UNL     1      -4.319  11.108  17.532  0.00  0.00    +0.000 C 
ATOM     24  C   UNL     1      -4.782  11.545  18.883  0.00  0.00    +0.000 A 
ATOM     25  C   UNL     1      -6.059  11.402  19.408  0.00  0.00    +0.000 A 
ATOM     26  C   UNL     1      -6.329  11.952  20.658  0.00  0.00    +0.000 A 
ATOM     27  C   UNL     1      -5.340  12.679  21.334  0.00  0.00    +0.000 A 
ATOM     28  C   UNL     1      -4.060  12.832  20.784  0.00  0.00    +0.000 A 
ATOM     29  C   UNL     1      -3.771  12.205  19.584  0.00  0.00    +0.000 A 
ATOM     30  N   UNL     1      -2.579  12.222  18.804  0.00  0.00    +0.000 N 
ENDBRANCH  18  30
ENDBRANCH   1  18
TORSDOF 5
ENDMDL
MODEL 7
REMARK VINA RESULT:      -8.3      2.181      3.028
REMARK  Name = 
REMARK  6 active torsions:
REMARK  status: ('A' for Active; 'I' for Inactive)
REMARK    1  A    between atoms: C_1  and  C_2
REMARK    2  A    between atoms: N_10  and  S_11
REMARK    3  A    between atoms: S_11  and  C_14
REMARK    4  A    between atoms: C_18  and  C_19
REMARK    5  A    between atoms: N_21  and  C_22
REMARK    6  A    between atoms: C_22  and  C_23
REMARK                            x       y       z     vdW  Elec       q    Type
REMARK                         _______ _______ _______ _____ _____    ______ ____
ROOT
ATOM      1  C   UNL     1       0.391  10.345  20.597  0.00  0.00    +0.000 A 
ATOM      2  C   UNL     1       0.078   9.603  21.745  0.00  0.00    +0.000 A 
ATOM      3  C   UNL     1       0.547   8.296  21.879  0.00  0.00    +0.000 A 
ATOM      4  C   UNL     1       1.314   7.729  20.856  0.00  0.00    +0.000 A 
ATOM      5  C   UNL     1       1.564   8.440  19.674  0.00  0.00    +0.000 A 
ATOM      6  C   UNL     1       1.087   9.751  19.534  0.00  0.00    +0.000 A 
ENDROOT
BRANCH   5   7
ATOM      7  C   UNL     1       2.415   7.785  18.641  0.00  0.00    +0.000 C 
ATOM      8  O   UNL     1       2.626   8.365  17.580  0.00  0.00    +0.000 OA
ATOM      9  N   UNL     1       2.938   6.550  18.942  0.00  0.00    +0.000 N 
ATOM     10  H   UNL     1       2.786   6.121  19.843  0.00  0.00    +0.000 HD
BRANCH   9  11
ATOM     11  C   UNL     1       3.675   5.779  17.952  0.00  0.00    +0.000 C 
BRANCH  11  12
ATOM     12  C   UNL     1       5.171   5.961  18.088  0.00  0.00    +0.000 A 
ATOM     13  C   UNL     1       5.862   5.334  19.125  0.00  0.00    +0.000 A 
ATOM     14  C   UNL     1       7.220   5.592  19.285  0.00  0.00    +0.000 A 
ATOM     15  C   UNL     1       7.855   6.458  18.406  0.00  0.00    +0.000 A 
ATOM     16  C   UNL     1       7.104   7.022  17.387  0.00  0.00    +0.000 A 
ATOM     17  N   UNL     1       5.782   6.801  17.211  0.00  0.00    +0.000 NA
ENDBRANCH  11  12
ENDBRANCH   9  11
ENDBRANCH   5   7
BRANCH   1  18
ATOM     18  S   UNL     1      -0.166  12.046  20.468  0.00  0.00    +0.000 S 
ATOM     19  O   UNL     1       0.557  12.640  19.362  0.00  0.00    +0.000 OA
ATOM     20  O   UNL     1      -0.019  12.593  21.802  0.00  0.00    +0.000 OA
BRANCH  18  30
ATOM     21  C   UNL     1      -2.531  14.244  20.939  0.00  0.00    +0.000 C 
ATOM     22  C   UNL     1      -2.847  12.770  20.734  0.00  0.00    +0.000 C 
ATOM     23  C   UNL     1      -4.117  12.623  19.854  0.00  0.00    +0.000 C 
ATOM     24  C   UNL     1      -3.641  11.829  18.681  0.00  0.00    +0.000 A 
ATOM     25  C   UNL     1      -4.399  11.431  17.588  0.00  0.00    +0.000 A 
ATOM     26  C   UNL     1      -3.804  10.616  16.629  0.00  0.00    +0.000 A 
ATOM     27  C   UNL     1      -2.487  10.170  16.804  0.00  0.00    +0.000 A 
ATOM     28  C   UNL     1      -1.740  10.564  17.923  0.00  0.00    +0.000 A 
ATOM     29  C   UNL     1      -2.306  11.448  18.825  0.00  0.00    +0.000 A 
ATOM     30  N   UNL     1      -1.785  11.976  20.041  0.00  0.00    +0.000 N 
ENDBRANCH  18  30
ENDBRANCH   1  18
TORSDOF 5
ENDMDL
MODEL 8
REMARK VINA RESULT:      -8.2      4.137      9.632
REMARK  Name = 
REMARK  6 active torsions:
REMARK  status: ('A' for Active; 'I' for Inactive)
REMARK    1  A    between atoms: C_1  and  C_2
REMARK    2  A    between atoms: N_10  and  S_11
REMARK    3  A    between atoms: S_11  and  C_14
REMARK    4  A    between atoms: C_18  and  C_19
REMARK    5  A    between atoms: N_21  and  C_22
REMARK    6  A    between atoms: C_22  and  C_23
REMARK                            x       y       z     vdW  Elec       q    Type
REMARK                         _______ _______ _______ _____ _____    ______ ____
ROOT
ATOM      1  C   UNL     1       3.376   4.737  19.325  0.00  0.00    +0.000 A 
ATOM      2  C   UNL     1       2.708   4.193  20.432  0.00  0.00    +0.000 A 
ATOM      3  C   UNL     1       1.777   4.961  21.130  0.00  0.00    +0.000 A 
ATOM      4  C   UNL     1       1.526   6.277  20.728  0.00  0.00    +0.000 A 
ATOM      5  C   UNL     1       2.246   6.849  19.670  0.00  0.00    +0.000 A 
ATOM      6  C   UNL     1       3.190   6.081  18.972  0.00  0.00    +0.000 A 
ENDROOT
BRANCH   5   7
ATOM      7  C   UNL     1       1.904   8.245  19.276  0.00  0.00    +0.000 C 
ATOM      8  O   UNL     1       2.320   8.688  18.210  0.00  0.00    +0.000 OA
ATOM      9  N   UNL     1       1.116   8.970  20.137  0.00  0.00    +0.000 N 
ATOM     10  H   UNL     1       0.748   8.560  20.984  0.00  0.00    +0.000 HD
BRANCH   9  11
ATOM     11  C   UNL     1       0.833  10.377  19.901  0.00  0.00    +0.000 C 
BRANCH  11  12
ATOM     12  C   UNL     1      -0.056  10.967  20.974  0.00  0.00    +0.000 A 
ATOM     13  C   UNL     1      -0.248  10.287  22.177  0.00  0.00    +0.000 A 
ATOM     14  C   UNL     1      -1.144  10.802  23.109  0.00  0.00    +0.000 A 
ATOM     15  C   UNL     1      -1.816  11.983  22.825  0.00  0.00    +0.000 A 
ATOM     16  C   UNL     1      -1.552  12.611  21.619  0.00  0.00    +0.000 A 
ATOM     17  N   UNL     1      -0.696  12.131  20.688  0.00  0.00    +0.000 NA
ENDBRANCH  11  12
ENDBRANCH   9  11
ENDBRANCH   5   7
BRANCH   1  18
ATOM     18  S   UNL     1       4.524   3.715  18.400  0.00  0.00    +0.000 S 
ATOM     19  O   UNL     1       3.736   2.947  17.458  0.00  0.00    +0.000 OA
ATOM     20  O   UNL     1       5.315   3.031  19.404  0.00  0.00    +0.000 OA
BRANCH  18  30
ATOM     21  C   UNL     1       7.106   5.463  19.363  0.00  0.00    +0.000 C 
ATOM     22  C   UNL     1       6.280   5.869  18.151  0.00  0.00    +0.000 C 
ATOM     23  C   UNL     1       7.215   6.399  17.032  0.00  0.00    +0.000 C 
ATOM     24  C   UNL     1       6.934   5.491  15.879  0.00  0.00    +0.000 A 
ATOM     25  C   UNL     1       7.527   5.538  14.624  0.00  0.00    +0.000 A 
ATOM     26  C   UNL     1       7.072   4.662  13.643  0.00  0.00    +0.000 A 
ATOM     27  C   UNL     1       6.003   3.798  13.912  0.00  0.00    +0.000 A 
ATOM     28  C   UNL     1       5.401   3.774  15.178  0.00  0.00    +0.000 A 
ATOM     29  C   UNL     1       5.918   4.582  16.177  0.00  0.00    +0.000 A 
ATOM     30  N   UNL     1       5.484   4.771  17.520  0.00  0.00    +0.000 N 
ENDBRANCH  18  30
ENDBRANCH   1  18
TORSDOF 5
ENDMDL
MODEL 9
REMARK VINA RESULT:      -8.1      3.652      8.986
REMARK  Name = 
REMARK  6 active torsions:
REMARK  status: ('A' for Active; 'I' for Inactive)
REMARK    1  A    between atoms: C_1  and  C_2
REMARK    2  A    between atoms: N_10  and  S_11
REMARK    3  A    between atoms: S_11  and  C_14
REMARK    4  A    between atoms: C_18  and  C_19
REMARK    5  A    between atoms: N_21  and  C_22
REMARK    6  A    between atoms: C_22  and  C_23
REMARK                            x       y       z     vdW  Elec       q    Type
REMARK                         _______ _______ _______ _____ _____    ______ ____
ROOT
ATOM      1  C   UNL     1       2.604   7.647  18.617  0.00  0.00    +0.000 A 
ATOM      2  C   UNL     1       2.039   8.373  17.558  0.00  0.00    +0.000 A 
ATOM      3  C   UNL     1       1.108   9.377  17.820  0.00  0.00    +0.000 A 
ATOM      4  C   UNL     1       0.732   9.643  19.141  0.00  0.00    +0.000 A 
ATOM      5  C   UNL     1       1.237   8.870  20.195  0.00  0.00    +0.000 A 
ATOM      6  C   UNL     1       2.166   7.853  19.933  0.00  0.00    +0.000 A 
ENDROOT
BRANCH   5   7
ATOM      7  C   UNL     1       0.816   9.230  21.579  0.00  0.00    +0.000 C 
ATOM      8  O   UNL     1       1.520   8.896  22.527  0.00  0.00    +0.000 OA
ATOM      9  N   UNL     1      -0.351   9.941  21.720  0.00  0.00    +0.000 N 
ATOM     10  H   UNL     1      -0.883  10.244  20.917  0.00  0.00    +0.000 HD
BRANCH   9  11
ATOM     11  C   UNL     1      -0.907  10.229  23.034  0.00  0.00    +0.000 C 
BRANCH  11  12
ATOM     12  C   UNL     1      -1.579  11.584  23.082  0.00  0.00    +0.000 A 
ATOM     13  C   UNL     1      -0.866  12.733  22.739  0.00  0.00    +0.000 A 
ATOM     14  C   UNL     1      -1.476  13.975  22.882  0.00  0.00    +0.000 A 
ATOM     15  C   UNL     1      -2.780  14.041  23.352  0.00  0.00    +0.000 A 
ATOM     16  C   UNL     1      -3.429  12.854  23.649  0.00  0.00    +0.000 A 
ATOM     17  N   UNL     1      -2.861  11.632  23.531  0.00  0.00    +0.000 NA
ENDBRANCH  11  12
ENDBRANCH   9  11
ENDBRANCH   5   7
BRANCH   1  18
ATOM     18  S   UNL     1       3.847   6.402  18.267  0.00  0.00    +0.000 S 
ATOM     19  O   UNL     1       4.739   6.369  19.408  0.00  0.00    +0.000 OA
ATOM     20  O   UNL     1       4.365   6.742  16.957  0.00  0.00    +0.000 OA
BRANCH  18  30
ATOM     21  C   UNL     1       4.446   3.769  16.434  0.00  0.00    +0.000 C 
ATOM     22  C   UNL     1       3.067   4.031  17.021  0.00  0.00    +0.000 C 
ATOM     23  C   UNL     1       2.438   2.695  17.498  0.00  0.00    +0.000 C 
ATOM     24  C   UNL     1       2.186   2.925  18.953  0.00  0.00    +0.000 A 
ATOM     25  C   UNL     1       1.636   2.020  19.851  0.00  0.00    +0.000 A 
ATOM     26  C   UNL     1       1.394   2.444  21.155  0.00  0.00    +0.000 A 
ATOM     27  C   UNL     1       1.653   3.771  21.523  0.00  0.00    +0.000 A 
ATOM     28  C   UNL     1       2.191   4.679  20.600  0.00  0.00    +0.000 A 
ATOM     29  C   UNL     1       2.515   4.227  19.332  0.00  0.00    +0.000 A 
ATOM     30  N   UNL     1       3.037   4.936  18.212  0.00  0.00    +0.000 N 
ENDBRANCH  18  30
ENDBRANCH   1  18
TORSDOF 5
ENDMDL
