MODEL 1
REMARK VINA RESULT:      -8.7      0.000      0.000
REMARK  Name = 
REMARK  7 active torsions:
REMARK  status: ('A' for Active; 'I' for Inactive)
REMARK    1  A    between atoms: C_1  and  C_2
REMARK    2  A    between atoms: C_2  and  C_3
REMARK    3  A    between atoms: C_2  and  N_18
REMARK    4  A    between atoms: N_5  and  C_6
REMARK    5  A    between atoms: C_6  and  C_7
REMARK    6  A    between atoms: C_6  and  C_8
REMARK    7  A    between atoms: C_6  and  C_9
REMARK                            x       y       z     vdW  Elec       q    Type
REMARK                         _______ _______ _______ _____ _____    ______ ____
ROOT
ATOM      1  C   UNL     1       4.900   4.601  18.775  0.00  0.00    +0.000 C 
ATOM      2  O   UNL     1       4.449   3.603  19.337  0.00  0.00    +0.000 OA
ATOM      3  N   UNL     1       4.116   5.718  18.525  0.00  0.00    +0.000 N 
ATOM      4  H   UNL     1       4.483   6.445  17.927  0.00  0.00    +0.000 HD
ENDROOT
BRANCH   3   5
ATOM      5  C   UNL     1       2.690   5.813  18.930  0.00  0.00    +0.000 C 
ATOM      6  C   UNL     1       1.838   5.010  17.922  0.00  0.00    +0.000 C 
ATOM      7  C   UNL     1       2.478   5.245  20.355  0.00  0.00    +0.000 C 
BRANCH   5   8
ATOM      8  C   UNL     1       2.237   7.298  19.012  0.00  0.00    +0.000 A 
ATOM      9  C   UNL     1       2.186   8.118  17.849  0.00  0.00    +0.000 A 
ATOM     10  C   UNL     1       1.668   9.419  17.878  0.00  0.00    +0.000 A 
ATOM     11  C   UNL     1       1.205   9.896  19.078  0.00  0.00    +0.000 A 
ATOM     12  C   UNL     1       1.239   9.127  20.215  0.00  0.00    +0.000 A 
ATOM     13  C   UNL     1       1.730   7.835  20.214  0.00  0.00    +0.000 A 
ATOM     14  O   UNL     1       0.716   9.780  21.291  0.00  0.00    +0.000 OA
ATOM     15  C   UNL     1       0.378  11.053  20.699  0.00  0.00    +0.000 C 
ATOM     16  O   UNL     1       0.656  11.122  19.287  0.00  0.00    +0.000 OA
ENDBRANCH   5   8
ENDBRANCH   3   5
BRANCH   1  18
ATOM     17  C   UNL     1       7.107   5.914  18.859  0.00  0.00    +0.000 C 
ATOM     18  C   UNL     1       6.377   4.684  18.330  0.00  0.00    +0.000 C 
BRANCH  18  19
ATOM     19  N   UNL     1       6.419   4.610  16.871  0.00  0.00    +0.000 N 
ATOM     20  C   UNL     1       7.199   5.429  16.097  0.00  0.00    +0.000 C 
ATOM     21  O   UNL     1       7.905   6.358  16.440  0.00  0.00    +0.000 OA
ATOM     22  C   UNL     1       7.026   4.990  14.714  0.00  0.00    +0.000 A 
ATOM     23  C   UNL     1       7.560   5.483  13.540  0.00  0.00    +0.000 A 
ATOM     24  C   UNL     1       7.218   4.820  12.355  0.00  0.00    +0.000 A 
ATOM     25  C   UNL     1       6.373   3.691  12.374  0.00  0.00    +0.000 A 
ATOM     26  C   UNL     1       5.832   3.222  13.574  0.00  0.00    +0.000 A 
ATOM     27  C   UNL     1       6.169   3.906  14.725  0.00  0.00    +0.000 A 
ATOM     28  C   UNL     1       5.735   3.700  16.103  0.00  0.00    +0.000 C 
ATOM     29  O   UNL     1       4.887   2.886  16.419  0.00  0.00    +0.000 OA
ENDBRANCH  18  19
ENDBRANCH   1  18
TORSDOF 4
ENDMDL
MODEL 2
REMARK VINA RESULT:      -8.5      1.993      8.076
REMARK  Name = 
REMARK  7 active torsions:
REMARK  status: ('A' for Active; 'I' for Inactive)
REMARK    1  A    between atoms: C_1  and  C_2
REMARK    2  A    between atoms: C_2  and  C_3
REMARK    3  A    between atoms: C_2  and  N_18
REMARK    4  A    between atoms: N_5  and  C_6
REMARK    5  A    between atoms: C_6  and  C_7
REMARK    6  A    between atoms: C_6  and  C_8
REMARK    7  A    between atoms: C_6  and  C_9
REMARK                            x       y       z     vdW  Elec       q    Type
REMARK                         _______ _______ _______ _____ _____    ______ ____
ROOT
ATOM      1  C   UNL     1       4.833   5.199  18.690  0.00  0.00    +0.000 C 
ATOM      2  O   UNL     1       5.660   5.464  19.562  0.00  0.00    +0.000 OA
ATOM      3  N   UNL     1       5.170   5.183  17.344  0.00  0.00    +0.000 N 
ATOM      4  H   UNL     1       4.430   5.114  16.659  0.00  0.00    +0.000 HD
ENDROOT
BRANCH   3   5
ATOM      5  C   UNL     1       6.543   5.455  16.849  0.00  0.00    +0.000 C 
ATOM      6  C   UNL     1       6.869   6.946  17.098  0.00  0.00    +0.000 C 
ATOM      7  C   UNL     1       7.583   4.570  17.579  0.00  0.00    +0.000 C 
BRANCH   5   8
ATOM      8  C   UNL     1       6.673   5.082  15.346  0.00  0.00    +0.000 A 
ATOM      9  C   UNL     1       7.745   5.582  14.552  0.00  0.00    +0.000 A 
ATOM     10  C   UNL     1       7.950   5.164  13.230  0.00  0.00    +0.000 A 
ATOM     11  C   UNL     1       7.074   4.247  12.707  0.00  0.00    +0.000 A 
ATOM     12  C   UNL     1       6.034   3.745  13.450  0.00  0.00    +0.000 A 
ATOM     13  C   UNL     1       5.816   4.126  14.760  0.00  0.00    +0.000 A 
ATOM     14  O   UNL     1       5.297   2.836  12.751  0.00  0.00    +0.000 OA
ATOM     15  C   UNL     1       5.982   2.850  11.480  0.00  0.00    +0.000 C 
ATOM     16  O   UNL     1       7.130   3.720  11.455  0.00  0.00    +0.000 OA
ENDBRANCH   5   8
ENDBRANCH   3   5
BRANCH   1  18
ATOM     17  C   UNL     1       2.673   4.011  17.969  0.00  0.00    +0.000 C 
ATOM     18  C   UNL     1       3.371   4.846  19.037  0.00  0.00    +0.000 C 
BRANCH  18  19
ATOM     19  N   UNL     1       2.653   6.089  19.313  0.00  0.00    +0.000 N 
ATOM     20  C   UNL     1       1.931   6.305  20.457  0.00  0.00    +0.000 C 
ATOM     21  O   UNL     1       1.702   5.536  21.372  0.00  0.00    +0.000 OA
ATOM     22  C   UNL     1       1.441   7.680  20.392  0.00  0.00    +0.000 A 
ATOM     23  C   UNL     1       0.649   8.395  21.267  0.00  0.00    +0.000 A 
ATOM     24  C   UNL     1       0.366   9.725  20.934  0.00  0.00    +0.000 A 
ATOM     25  C   UNL     1       0.885  10.302  19.755  0.00  0.00    +0.000 A 
ATOM     26  C   UNL     1       1.671   9.552  18.877  0.00  0.00    +0.000 A 
ATOM     27  C   UNL     1       1.918   8.237  19.221  0.00  0.00    +0.000 A 
ATOM     28  C   UNL     1       2.647   7.198  18.501  0.00  0.00    +0.000 C 
ATOM     29  O   UNL     1       3.090   7.352  17.379  0.00  0.00    +0.000 OA
ENDBRANCH  18  19
ENDBRANCH   1  18
TORSDOF 4
ENDMDL
MODEL 3
REMARK VINA RESULT:      -8.4      1.944      7.949
REMARK  Name = 
REMARK  7 active torsions:
REMARK  status: ('A' for Active; 'I' for Inactive)
REMARK    1  A    between atoms: C_1  and  C_2
REMARK    2  A    between atoms: C_2  and  C_3
REMARK    3  A    between atoms: C_2  and  N_18
REMARK    4  A    between atoms: N_5  and  C_6
REMARK    5  A    between atoms: C_6  and  C_7
REMARK    6  A    between atoms: C_6  and  C_8
REMARK    7  A    between atoms: C_6  and  C_9
REMARK                            x       y       z     vdW  Elec       q    Type
REMARK                         _______ _______ _______ _____ _____    ______ ____
ROOT
ATOM      1  C   UNL     1       4.663   5.430  18.630  0.00  0.00    +0.000 C 
ATOM      2  O   UNL     1       5.487   5.533  19.539  0.00  0.00    +0.000 OA
ATOM      3  N   UNL     1       5.043   5.414  17.296  0.00  0.00    +0.000 N 
ATOM      4  H   UNL     1       4.327   5.485  16.586  0.00  0.00    +0.000 HD
ENDROOT
BRANCH   3   5
ATOM      5  C   UNL     1       6.459   5.494  16.856  0.00  0.00    +0.000 C 
ATOM      6  C   UNL     1       6.975   6.928  17.118  0.00  0.00    +0.000 C 
ATOM      7  C   UNL     1       7.339   4.480  17.627  0.00  0.00    +0.000 C 
BRANCH   5   8
ATOM      8  C   UNL     1       6.596   5.099  15.359  0.00  0.00    +0.000 A 
ATOM      9  C   UNL     1       7.690   5.559  14.572  0.00  0.00    +0.000 A 
ATOM     10  C   UNL     1       7.899   5.120  13.258  0.00  0.00    +0.000 A 
ATOM     11  C   UNL     1       7.004   4.220  12.736  0.00  0.00    +0.000 A 
ATOM     12  C   UNL     1       5.943   3.756  13.472  0.00  0.00    +0.000 A 
ATOM     13  C   UNL     1       5.719   4.160  14.775  0.00  0.00    +0.000 A 
ATOM     14  O   UNL     1       5.189   2.859  12.777  0.00  0.00    +0.000 OA
ATOM     15  C   UNL     1       5.888   2.839  11.513  0.00  0.00    +0.000 C 
ATOM     16  O   UNL     1       7.060   3.676  11.491  0.00  0.00    +0.000 OA
ENDBRANCH   5   8
ENDBRANCH   3   5
BRANCH   1  18
ATOM     17  C   UNL     1       2.400   4.491  17.858  0.00  0.00    +0.000 C 
ATOM     18  C   UNL     1       3.152   5.290  18.917  0.00  0.00    +0.000 C 
BRANCH  18  19
ATOM     19  N   UNL     1       2.593   6.630  19.089  0.00  0.00    +0.000 N 
ATOM     20  C   UNL     1       2.700   7.619  18.147  0.00  0.00    +0.000 C 
ATOM     21  O   UNL     1       3.298   7.602  17.087  0.00  0.00    +0.000 OA
ATOM     22  C   UNL     1       1.950   8.766  18.653  0.00  0.00    +0.000 A 
ATOM     23  C   UNL     1       1.755  10.022  18.116  0.00  0.00    +0.000 A 
ATOM     24  C   UNL     1       0.952  10.910  18.841  0.00  0.00    +0.000 A 
ATOM     25  C   UNL     1       0.364  10.523  20.063  0.00  0.00    +0.000 A 
ATOM     26  C   UNL     1       0.590   9.250  20.595  0.00  0.00    +0.000 A 
ATOM     27  C   UNL     1       1.402   8.401  19.868  0.00  0.00    +0.000 A 
ATOM     28  C   UNL     1       1.863   7.050  20.174  0.00  0.00    +0.000 C 
ATOM     29  O   UNL     1       1.639   6.495  21.233  0.00  0.00    +0.000 OA
ENDBRANCH  18  19
ENDBRANCH   1  18
TORSDOF 4
ENDMDL
MODEL 4
REMARK VINA RESULT:      -8.3      0.652      1.317
REMARK  Name = 
REMARK  7 active torsions:
REMARK  status: ('A' for Active; 'I' for Inactive)
REMARK    1  A    between atoms: C_1  and  C_2
REMARK    2  A    between atoms: C_2  and  C_3
REMARK    3  A    between atoms: C_2  and  N_18
REMARK    4  A    between atoms: N_5  and  C_6
REMARK    5  A    between atoms: C_6  and  C_7
REMARK    6  A    between atoms: C_6  and  C_8
REMARK    7  A    between atoms: C_6  and  C_9
REMARK                            x       y       z     vdW  Elec       q    Type
REMARK                         _______ _______ _______ _____ _____    ______ ____
ROOT
ATOM      1  C   UNL     1       4.987   4.373  18.681  0.00  0.00    +0.000 C 
ATOM      2  O   UNL     1       4.601   3.283  19.102  0.00  0.00    +0.000 OA
ATOM      3  N   UNL     1       4.139   5.468  18.602  0.00  0.00    +0.000 N 
ATOM      4  H   UNL     1       4.453   6.292  18.108  0.00  0.00    +0.000 HD
ENDROOT
BRANCH   3   5
ATOM      5  C   UNL     1       2.719   5.426  19.036  0.00  0.00    +0.000 C 
ATOM      6  C   UNL     1       1.908   4.630  17.989  0.00  0.00    +0.000 C 
ATOM      7  C   UNL     1       2.581   4.748  20.421  0.00  0.00    +0.000 C 
BRANCH   5   8
ATOM      8  C   UNL     1       2.157   6.862  19.228  0.00  0.00    +0.000 A 
ATOM      9  C   UNL     1       1.601   7.277  20.472  0.00  0.00    +0.000 A 
ATOM     10  C   UNL     1       1.199   8.599  20.705  0.00  0.00    +0.000 A 
ATOM     11  C   UNL     1       1.355   9.503  19.684  0.00  0.00    +0.000 A 
ATOM     12  C   UNL     1       1.891   9.133  18.476  0.00  0.00    +0.000 A 
ATOM     13  C   UNL     1       2.310   7.840  18.222  0.00  0.00    +0.000 A 
ATOM     14  O   UNL     1       1.975  10.181  17.610  0.00  0.00    +0.000 OA
ATOM     15  C   UNL     1       1.404  11.241  18.409  0.00  0.00    +0.000 C 
ATOM     16  O   UNL     1       1.038  10.824  19.738  0.00  0.00    +0.000 OA
ENDBRANCH   5   8
ENDBRANCH   3   5
BRANCH   1  18
ATOM     17  C   UNL     1       7.064   5.882  18.781  0.00  0.00    +0.000 C 
ATOM     18  C   UNL     1       6.446   4.600  18.231  0.00  0.00    +0.000 C 
BRANCH  18  19
ATOM     19  N   UNL     1       6.488   4.557  16.771  0.00  0.00    +0.000 N 
ATOM     20  C   UNL     1       7.231   5.423  16.012  0.00  0.00    +0.000 C 
ATOM     21  O   UNL     1       7.900   6.372  16.372  0.00  0.00    +0.000 OA
ATOM     22  C   UNL     1       7.072   5.006  14.621  0.00  0.00    +0.000 A 
ATOM     23  C   UNL     1       7.581   5.543  13.456  0.00  0.00    +0.000 A 
ATOM     24  C   UNL     1       7.263   4.892  12.258  0.00  0.00    +0.000 A 
ATOM     25  C   UNL     1       6.464   3.729  12.256  0.00  0.00    +0.000 A 
ATOM     26  C   UNL     1       5.946   3.214  13.447  0.00  0.00    +0.000 A 
ATOM     27  C   UNL     1       6.259   3.888  14.612  0.00  0.00    +0.000 A 
ATOM     28  C   UNL     1       5.837   3.636  15.986  0.00  0.00    +0.000 C 
ATOM     29  O   UNL     1       5.024   2.783  16.287  0.00  0.00    +0.000 OA
ENDBRANCH  18  19
ENDBRANCH   1  18
TORSDOF 4
ENDMDL
MODEL 5
REMARK VINA RESULT:      -8.2      2.161      7.625
REMARK  Name = 
REMARK  7 active torsions:
REMARK  status: ('A' for Active; 'I' for Inactive)
REMARK    1  A    between atoms: C_1  and  C_2
REMARK    2  A    between atoms: C_2  and  C_3
REMARK    3  A    between atoms: C_2  and  N_18
REMARK    4  A    between atoms: N_5  and  C_6
REMARK    5  A    between atoms: C_6  and  C_7
REMARK    6  A    between atoms: C_6  and  C_8
REMARK    7  A    between atoms: C_6  and  C_9
REMARK                            x       y       z     vdW  Elec       q    Type
REMARK                         _______ _______ _______ _____ _____    ______ ____
ROOT
ATOM      1  C   UNL     1       3.996   6.918  17.053  0.00  0.00    +0.000 C 
ATOM      2  O   UNL     1       4.335   7.353  15.953  0.00  0.00    +0.000 OA
ATOM      3  N   UNL     1       4.884   6.245  17.879  0.00  0.00    +0.000 N 
ATOM      4  H   UNL     1       4.524   5.773  18.698  0.00  0.00    +0.000 HD
ENDROOT
BRANCH   3   5
ATOM      5  C   UNL     1       6.308   6.017  17.523  0.00  0.00    +0.000 C 
ATOM      6  C   UNL     1       7.018   7.387  17.438  0.00  0.00    +0.000 C 
ATOM      7  C   UNL     1       7.011   5.134  18.582  0.00  0.00    +0.000 C 
BRANCH   5   8
ATOM      8  C   UNL     1       6.424   5.226  16.190  0.00  0.00    +0.000 A 
ATOM      9  C   UNL     1       5.653   4.050  15.961  0.00  0.00    +0.000 A 
ATOM     10  C   UNL     1       5.651   3.390  14.725  0.00  0.00    +0.000 A 
ATOM     11  C   UNL     1       6.427   3.912  13.721  0.00  0.00    +0.000 A 
ATOM     12  C   UNL     1       7.177   5.046  13.912  0.00  0.00    +0.000 A 
ATOM     13  C   UNL     1       7.188   5.727  15.115  0.00  0.00    +0.000 A 
ATOM     14  O   UNL     1       7.858   5.405  12.788  0.00  0.00    +0.000 OA
ATOM     15  C   UNL     1       7.467   4.349  11.883  0.00  0.00    +0.000 C 
ATOM     16  O   UNL     1       6.533   3.416  12.460  0.00  0.00    +0.000 OA
ENDBRANCH   5   8
ENDBRANCH   3   5
BRANCH   1  18
ATOM     17  C   UNL     1       2.343   8.458  18.276  0.00  0.00    +0.000 C 
ATOM     18  C   UNL     1       2.563   7.111  17.596  0.00  0.00    +0.000 C 
BRANCH  18  19
ATOM     19  N   UNL     1       2.257   5.993  18.487  0.00  0.00    +0.000 N 
ATOM     20  C   UNL     1       1.862   4.760  18.040  0.00  0.00    +0.000 C 
ATOM     21  O   UNL     1       1.637   4.396  16.901  0.00  0.00    +0.000 OA
ATOM     22  C   UNL     1       1.735   3.906  19.219  0.00  0.00    +0.000 A 
ATOM     23  C   UNL     1       1.346   2.587  19.337  0.00  0.00    +0.000 A 
ATOM     24  C   UNL     1       1.348   2.032  20.623  0.00  0.00    +0.000 A 
ATOM     25  C   UNL     1       1.744   2.796  21.741  0.00  0.00    +0.000 A 
ATOM     26  C   UNL     1       2.118   4.135  21.597  0.00  0.00    +0.000 A 
ATOM     27  C   UNL     1       2.088   4.662  20.321  0.00  0.00    +0.000 A 
ATOM     28  C   UNL     1       2.366   6.018  19.856  0.00  0.00    +0.000 C 
ATOM     29  O   UNL     1       2.595   6.945  20.609  0.00  0.00    +0.000 OA
ENDBRANCH  18  19
ENDBRANCH   1  18
TORSDOF 4
ENDMDL
MODEL 6
REMARK VINA RESULT:      -8.2      0.868      1.869
REMARK  Name = 
REMARK  7 active torsions:
REMARK  status: ('A' for Active; 'I' for Inactive)
REMARK    1  A    between atoms: C_1  and  C_2
REMARK    2  A    between atoms: C_2  and  C_3
REMARK    3  A    between atoms: C_2  and  N_18
REMARK    4  A    between atoms: N_5  and  C_6
REMARK    5  A    between atoms: C_6  and  C_7
REMARK    6  A    between atoms: C_6  and  C_8
REMARK    7  A    between atoms: C_6  and  C_9
REMARK                            x       y       z     vdW  Elec       q    Type
REMARK                         _______ _______ _______ _____ _____    ______ ____
ROOT
ATOM      1  C   UNL     1       4.500   5.285  18.054  0.00  0.00    +0.000 C 
ATOM      2  O   UNL     1       3.896   5.817  17.123  0.00  0.00    +0.000 OA
ATOM      3  N   UNL     1       3.869   4.962  19.246  0.00  0.00    +0.000 N 
ATOM      4  H   UNL     1       4.434   4.673  20.033  0.00  0.00    +0.000 HD
ENDROOT
BRANCH   3   5
ATOM      5  C   UNL     1       2.423   5.204  19.489  0.00  0.00    +0.000 C 
ATOM      6  C   UNL     1       1.615   4.514  18.366  0.00  0.00    +0.000 C 
ATOM      7  C   UNL     1       1.988   4.638  20.862  0.00  0.00    +0.000 C 
BRANCH   5   8
ATOM      8  C   UNL     1       2.122   6.727  19.561  0.00  0.00    +0.000 A 
ATOM      9  C   UNL     1       2.130   7.537  18.389  0.00  0.00    +0.000 A 
ATOM     10  C   UNL     1       1.745   8.883  18.412  0.00  0.00    +0.000 A 
ATOM     11  C   UNL     1       1.355   9.416  19.615  0.00  0.00    +0.000 A 
ATOM     12  C   UNL     1       1.334   8.659  20.760  0.00  0.00    +0.000 A 
ATOM     13  C   UNL     1       1.694   7.325  20.765  0.00  0.00    +0.000 A 
ATOM     14  O   UNL     1       0.900   9.371  21.837  0.00  0.00    +0.000 OA
ATOM     15  C   UNL     1       0.679  10.666  21.237  0.00  0.00    +0.000 C 
ATOM     16  O   UNL     1       0.936  10.693  19.819  0.00  0.00    +0.000 OA
ENDBRANCH   5   8
ENDBRANCH   3   5
BRANCH   1  18
ATOM     17  C   UNL     1       6.921   5.939  18.615  0.00  0.00    +0.000 C 
ATOM     18  C   UNL     1       5.998   4.923  17.949  0.00  0.00    +0.000 C 
BRANCH  18  19
ATOM     19  N   UNL     1       6.324   4.731  16.538  0.00  0.00    +0.000 N 
ATOM     20  C   UNL     1       5.804   3.719  15.774  0.00  0.00    +0.000 C 
ATOM     21  O   UNL     1       5.074   2.806  16.112  0.00  0.00    +0.000 OA
ATOM     22  C   UNL     1       6.304   3.917  14.416  0.00  0.00    +0.000 A 
ATOM     23  C   UNL     1       6.108   3.176  13.268  0.00  0.00    +0.000 A 
ATOM     24  C   UNL     1       6.711   3.644  12.094  0.00  0.00    +0.000 A 
ATOM     25  C   UNL     1       7.475   4.830  12.095  0.00  0.00    +0.000 A 
ATOM     26  C   UNL     1       7.672   5.554  13.274  0.00  0.00    +0.000 A 
ATOM     27  C   UNL     1       7.082   5.059  14.421  0.00  0.00    +0.000 A 
ATOM     28  C   UNL     1       7.142   5.548  15.795  0.00  0.00    +0.000 C 
ATOM     29  O   UNL     1       7.846   6.478  16.140  0.00  0.00    +0.000 OA
ENDBRANCH  18  19
ENDBRANCH   1  18
TORSDOF 4
ENDMDL
MODEL 7
REMARK VINA RESULT:      -8.1      3.956      9.586
REMARK  Name = 
REMARK  7 active torsions:
REMARK  status: ('A' for Active; 'I' for Inactive)
REMARK    1  A    between atoms: C_1  and  C_2
REMARK    2  A    between atoms: C_2  and  C_3
REMARK    3  A    between atoms: C_2  and  N_18
REMARK    4  A    between atoms: N_5  and  C_6
REMARK    5  A    between atoms: C_6  and  C_7
REMARK    6  A    between atoms: C_6  and  C_8
REMARK    7  A    between atoms: C_6  and  C_9
REMARK                            x       y       z     vdW  Elec       q    Type
REMARK                         _______ _______ _______ _____ _____    ______ ____
ROOT
ATOM      1  C   UNL     1      -0.169  11.424  21.692  0.00  0.00    +0.000 C 
ATOM      2  O   UNL     1      -0.350  11.250  22.897  0.00  0.00    +0.000 OA
ATOM      3  N   UNL     1       0.384  10.439  20.886  0.00  0.00    +0.000 N 
ATOM      4  H   UNL     1       0.657  10.680  19.943  0.00  0.00    +0.000 HD
ENDROOT
BRANCH   3   5
ATOM      5  C   UNL     1       0.775   9.100  21.396  0.00  0.00    +0.000 C 
ATOM      6  C   UNL     1       1.717   9.291  22.607  0.00  0.00    +0.000 C 
ATOM      7  C   UNL     1      -0.467   8.286  21.831  0.00  0.00    +0.000 C 
BRANCH   5   8
ATOM      8  C   UNL     1       1.444   8.256  20.275  0.00  0.00    +0.000 A 
ATOM      9  C   UNL     1       1.684   8.804  18.983  0.00  0.00    +0.000 A 
ATOM     10  C   UNL     1       2.392   8.105  17.997  0.00  0.00    +0.000 A 
ATOM     11  C   UNL     1       2.856   6.852  18.311  0.00  0.00    +0.000 A 
ATOM     12  C   UNL     1       2.643   6.300  19.549  0.00  0.00    +0.000 A 
ATOM     13  C   UNL     1       1.961   6.971  20.547  0.00  0.00    +0.000 A 
ATOM     14  O   UNL     1       3.199   5.061  19.661  0.00  0.00    +0.000 OA
ATOM     15  C   UNL     1       3.760   4.894  18.340  0.00  0.00    +0.000 C 
ATOM     16  O   UNL     1       3.573   6.041  17.489  0.00  0.00    +0.000 OA
ENDBRANCH   5   8
ENDBRANCH   3   5
BRANCH   1  18
ATOM     17  C   UNL     1      -0.949  13.856  21.962  0.00  0.00    +0.000 C 
ATOM     18  C   UNL     1      -0.563  12.743  20.994  0.00  0.00    +0.000 C 
BRANCH  18  19
ATOM     19  N   UNL     1      -1.633  12.454  20.040  0.00  0.00    +0.000 N 
ATOM     20  C   UNL     1      -1.404  12.055  18.749  0.00  0.00    +0.000 C 
ATOM     21  O   UNL     1      -0.345  11.938  18.163  0.00  0.00    +0.000 OA
ATOM     22  C   UNL     1      -2.712  11.790  18.153  0.00  0.00    +0.000 A 
ATOM     23  C   UNL     1      -3.055  11.389  16.878  0.00  0.00    +0.000 A 
ATOM     24  C   UNL     1      -4.416  11.192  16.613  0.00  0.00    +0.000 A 
ATOM     25  C   UNL     1      -5.385  11.389  17.620  0.00  0.00    +0.000 A 
ATOM     26  C   UNL     1      -5.013  11.811  18.899  0.00  0.00    +0.000 A 
ATOM     27  C   UNL     1      -3.667  12.016  19.127  0.00  0.00    +0.000 A 
ATOM     28  C   UNL     1      -2.977  12.498  20.319  0.00  0.00    +0.000 C 
ATOM     29  O   UNL     1      -3.560  12.891  21.312  0.00  0.00    +0.000 OA
ENDBRANCH  18  19
ENDBRANCH   1  18
TORSDOF 4
ENDMDL
MODEL 8
REMARK VINA RESULT:      -8.1      2.311      8.342
REMARK  Name = 
REMARK  7 active torsions:
REMARK  status: ('A' for Active; 'I' for Inactive)
REMARK    1  A    between atoms: C_1  and  C_2
REMARK    2  A    between atoms: C_2  and  C_3
REMARK    3  A    between atoms: C_2  and  N_18
REMARK    4  A    between atoms: N_5  and  C_6
REMARK    5  A    between atoms: C_6  and  C_7
REMARK    6  A    between atoms: C_6  and  C_8
REMARK    7  A    between atoms: C_6  and  C_9
REMARK                            x       y       z     vdW  Elec       q    Type
REMARK                         _______ _______ _______ _____ _____    ______ ____
ROOT
ATOM      1  C   UNL     1       1.670   7.488  20.507  0.00  0.00    +0.000 C 
ATOM      2  O   UNL     1       0.774   6.715  20.843  0.00  0.00    +0.000 OA
ATOM      3  N   UNL     1       2.745   7.072  19.735  0.00  0.00    +0.000 N 
ATOM      4  H   UNL     1       3.530   7.698  19.617  0.00  0.00    +0.000 HD
ENDROOT
BRANCH   3   5
ATOM      5  C   UNL     1       2.891   5.681  19.233  0.00  0.00    +0.000 C 
ATOM      6  C   UNL     1       2.785   4.712  20.433  0.00  0.00    +0.000 C 
ATOM      7  C   UNL     1       1.790   5.346  18.198  0.00  0.00    +0.000 C 
BRANCH   5   8
ATOM      8  C   UNL     1       4.234   5.508  18.471  0.00  0.00    +0.000 A 
ATOM      9  C   UNL     1       5.450   5.250  19.167  0.00  0.00    +0.000 A 
ATOM     10  C   UNL     1       6.648   4.972  18.496  0.00  0.00    +0.000 A 
ATOM     11  C   UNL     1       6.623   4.955  17.124  0.00  0.00    +0.000 A 
ATOM     12  C   UNL     1       5.466   5.196  16.427  0.00  0.00    +0.000 A 
ATOM     13  C   UNL     1       4.266   5.459  17.060  0.00  0.00    +0.000 A 
ATOM     14  O   UNL     1       5.653   5.114  15.080  0.00  0.00    +0.000 OA
ATOM     15  C   UNL     1       7.066   4.822  15.018  0.00  0.00    +0.000 C 
ATOM     16  O   UNL     1       7.681   4.688  16.314  0.00  0.00    +0.000 OA
ENDBRANCH   5   8
ENDBRANCH   3   5
BRANCH   1  18
ATOM     17  C   UNL     1       1.479   9.210  22.405  0.00  0.00    +0.000 C 
ATOM     18  C   UNL     1       1.648   8.980  20.906  0.00  0.00    +0.000 C 
BRANCH  18  19
ATOM     19  N   UNL     1       0.603   9.645  20.131  0.00  0.00    +0.000 N 
ATOM     20  C   UNL     1       0.480   9.524  18.772  0.00  0.00    +0.000 C 
ATOM     21  O   UNL     1       1.203   8.937  17.989  0.00  0.00    +0.000 OA
ATOM     22  C   UNL     1      -0.721  10.264  18.390  0.00  0.00    +0.000 A 
ATOM     23  C   UNL     1      -1.287  10.484  17.150  0.00  0.00    +0.000 A 
ATOM     24  C   UNL     1      -2.473  11.226  17.111  0.00  0.00    +0.000 A 
ATOM     25  C   UNL     1      -3.062  11.714  18.297  0.00  0.00    +0.000 A 
ATOM     26  C   UNL     1      -2.460  11.492  19.539  0.00  0.00    +0.000 A 
ATOM     27  C   UNL     1      -1.280  10.774  19.546  0.00  0.00    +0.000 A 
ATOM     28  C   UNL     1      -0.398  10.426  20.656  0.00  0.00    +0.000 C 
ATOM     29  O   UNL     1      -0.565  10.832  21.790  0.00  0.00    +0.000 OA
ENDBRANCH  18  19
ENDBRANCH   1  18
TORSDOF 4
ENDMDL
MODEL 9
REMARK VINA RESULT:      -8.0      2.643      9.026
REMARK  Name = 
REMARK  7 active torsions:
REMARK  status: ('A' for Active; 'I' for Inactive)
REMARK    1  A    between atoms: C_1  and  C_2
REMARK    2  A    between atoms: C_2  and  C_3
REMARK    3  A    between atoms: C_2  and  N_18
REMARK    4  A    between atoms: N_5  and  C_6
REMARK    5  A    between atoms: C_6  and  C_7
REMARK    6  A    between atoms: C_6  and  C_8
REMARK    7  A    between atoms: C_6  and  C_9
REMARK                            x       y       z     vdW  Elec       q    Type
REMARK                         _______ _______ _______ _____ _____    ______ ____
ROOT
ATOM      1  C   UNL     1       1.571   8.804  18.743  0.00  0.00    +0.000 C 
ATOM      2  O   UNL     1       1.153   8.588  19.880  0.00  0.00    +0.000 OA
ATOM      3  N   UNL     1       2.322   7.866  18.049  0.00  0.00    +0.000 N 
ATOM      4  H   UNL     1       2.772   8.144  17.188  0.00  0.00    +0.000 HD
ENDROOT
BRANCH   3   5
ATOM      5  C   UNL     1       2.658   6.528  18.601  0.00  0.00    +0.000 C 
ATOM      6  C   UNL     1       2.576   6.599  20.143  0.00  0.00    +0.000 C 
ATOM      7  C   UNL     1       1.679   5.449  18.080  0.00  0.00    +0.000 C 
BRANCH   5   8
ATOM      8  C   UNL     1       4.063   6.070  18.121  0.00  0.00    +0.000 A 
ATOM      9  C   UNL     1       4.964   5.406  19.002  0.00  0.00    +0.000 A 
ATOM     10  C   UNL     1       6.184   4.878  18.561  0.00  0.00    +0.000 A 
ATOM     11  C   UNL     1       6.500   5.022  17.233  0.00  0.00    +0.000 A 
ATOM     12  C   UNL     1       5.650   5.654  16.360  0.00  0.00    +0.000 A 
ATOM     13  C   UNL     1       4.434   6.171  16.763  0.00  0.00    +0.000 A 
ATOM     14  O   UNL     1       6.142   5.673  15.090  0.00  0.00    +0.000 OA
ATOM     15  C   UNL     1       7.408   5.004  15.278  0.00  0.00    +0.000 C 
ATOM     16  O   UNL     1       7.627   4.559  16.631  0.00  0.00    +0.000 OA
ENDBRANCH   5   8
ENDBRANCH   3   5
BRANCH   1  18
ATOM     17  C   UNL     1       2.389  11.157  18.117  0.00  0.00    +0.000 C 
ATOM     18  C   UNL     1       1.271  10.126  18.004  0.00  0.00    +0.000 C 
BRANCH  18  19
ATOM     19  N   UNL     1      -0.003  10.646  18.496  0.00  0.00    +0.000 N 
ATOM     20  C   UNL     1      -0.113  11.451  19.600  0.00  0.00    +0.000 C 
ATOM     21  O   UNL     1       0.755  11.810  20.373  0.00  0.00    +0.000 OA
ATOM     22  C   UNL     1      -1.522  11.820  19.713  0.00  0.00    +0.000 A 
ATOM     23  C   UNL     1      -2.179  12.590  20.651  0.00  0.00    +0.000 A 
ATOM     24  C   UNL     1      -3.554  12.784  20.471  0.00  0.00    +0.000 A 
ATOM     25  C   UNL     1      -4.226  12.221  19.366  0.00  0.00    +0.000 A 
ATOM     26  C   UNL     1      -3.542  11.431  18.438  0.00  0.00    +0.000 A 
ATOM     27  C   UNL     1      -2.191  11.240  18.651  0.00  0.00    +0.000 A 
ATOM     28  C   UNL     1      -1.225  10.439  17.905  0.00  0.00    +0.000 C 
ATOM     29  O   UNL     1      -1.536   9.716  16.977  0.00  0.00    +0.000 OA
ENDBRANCH  18  19
ENDBRANCH   1  18
TORSDOF 4
ENDMDL
