MODEL 1
REMARK VINA RESULT:      -9.8      0.000      0.000
REMARK  Name = 
REMARK  4 active torsions:
REMARK  status: ('A' for Active; 'I' for Inactive)
REMARK    1  A    between atoms: C_6  and  N_7
REMARK    2  A    between atoms: C_8  and  C_10
REMARK    3  A    between atoms: C_14  and  C_15
REMARK    4  A    between atoms: N_18  and  C_19
REMARK                            x       y       z     vdW  Elec       q    Type
REMARK                         _______ _______ _______ _____ _____    ______ ____
ROOT
ATOM      1  C   UNL     1       1.751   4.021  19.313  0.00  0.00    +0.000 C 
ATOM      2  C   UNL     1       1.774   2.648  19.954  0.00  0.00    +0.000 C 
ATOM      3  C   UNL     1       1.673   2.940  21.435  0.00  0.00    +0.000 C 
ATOM      4  O   UNL     1       2.128   4.276  21.649  0.00  0.00    +0.000 OA
ATOM      5  C   UNL     1       2.441   4.877  20.375  0.00  0.00    +0.000 C 
ENDROOT
BRANCH   5   6
ATOM      6  C   UNL     1       2.003   6.298  20.328  0.00  0.00    +0.000 A 
ATOM      7  C   UNL     1       2.395   7.309  19.433  0.00  0.00    +0.000 A 
ATOM      8  N   UNL     1       1.780   8.470  19.664  0.00  0.00    +0.000 NA
ATOM      9  N   UNL     1       1.009   8.243  20.766  0.00  0.00    +0.000 N 
ATOM     10  C   UNL     1       1.105   6.932  21.159  0.00  0.00    +0.000 A 
BRANCH   9  11
ATOM     11  C   UNL     1       0.232   9.282  21.338  0.00  0.00    +0.000 A 
ATOM     12  C   UNL     1       0.032   9.312  22.727  0.00  0.00    +0.000 A 
ATOM     13  C   UNL     1      -0.722  10.336  23.310  0.00  0.00    +0.000 A 
ATOM     14  C   UNL     1      -1.287  11.332  22.516  0.00  0.00    +0.000 A 
ATOM     15  C   UNL     1      -1.098  11.302  21.136  0.00  0.00    +0.000 A 
ATOM     16  C   UNL     1      -0.345  10.285  20.554  0.00  0.00    +0.000 A 
ATOM     17  F   UNL     1      -0.214  10.321  19.222  0.00  0.00    +0.000 F 
ENDBRANCH   9  11
ENDBRANCH   5   6
BRANCH   1  19
ATOM     18  N   UNL     1       3.727   4.837  18.125  0.00  0.00    +0.000 N 
ATOM     19  C   UNL     1       2.579   4.062  18.048  0.00  0.00    +0.000 C 
ATOM     20  O   UNL     1       2.212   3.442  17.055  0.00  0.00    +0.000 OA
ATOM     21  H   UNL     1       3.817   5.489  18.894  0.00  0.00    +0.000 HD
BRANCH  18  27
ATOM     22  O   UNL     1       7.475   4.205  11.950  0.00  0.00    +0.000 OA
ATOM     23  C   UNL     1       6.975   4.387  13.046  0.00  0.00    +0.000 C 
ATOM     24  C   UNL     1       5.592   3.918  13.510  0.00  0.00    +0.000 C 
ATOM     25  C   UNL     1       5.551   4.426  14.918  0.00  0.00    +0.000 A 
ATOM     26  C   UNL     1       4.544   4.312  15.858  0.00  0.00    +0.000 A 
ATOM     27  C   UNL     1       4.726   4.895  17.120  0.00  0.00    +0.000 A 
ATOM     28  C   UNL     1       5.945   5.543  17.416  0.00  0.00    +0.000 A 
ATOM     29  C   UNL     1       6.961   5.657  16.451  0.00  0.00    +0.000 A 
ATOM     30  C   UNL     1       6.732   5.091  15.216  0.00  0.00    +0.000 A 
ATOM     31  N   UNL     1       7.565   5.067  14.109  0.00  0.00    +0.000 N 
ATOM     32  H   UNL     1       8.485   5.473  14.047  0.00  0.00    +0.000 HD
ENDBRANCH  18  27
ENDBRANCH   1  19
TORSDOF 4
ENDMDL
MODEL 2
REMARK VINA RESULT:      -9.8      2.984      8.217
REMARK  Name = 
REMARK  4 active torsions:
REMARK  status: ('A' for Active; 'I' for Inactive)
REMARK    1  A    between atoms: C_6  and  N_7
REMARK    2  A    between atoms: C_8  and  C_10
REMARK    3  A    between atoms: C_14  and  C_15
REMARK    4  A    between atoms: N_18  and  C_19
REMARK                            x       y       z     vdW  Elec       q    Type
REMARK                         _______ _______ _______ _____ _____    ______ ____
ROOT
ATOM      1  C   UNL     1       2.624   4.211  20.824  0.00  0.00    +0.000 C 
ATOM      2  C   UNL     1       1.867   3.286  21.756  0.00  0.00    +0.000 C 
ATOM      3  C   UNL     1       2.350   1.907  21.363  0.00  0.00    +0.000 C 
ATOM      4  O   UNL     1       2.842   1.981  20.025  0.00  0.00    +0.000 OA
ATOM      5  C   UNL     1       2.770   3.349  19.571  0.00  0.00    +0.000 C 
ENDROOT
BRANCH   5   6
ATOM      6  C   UNL     1       3.969   3.714  18.769  0.00  0.00    +0.000 A 
ATOM      7  C   UNL     1       5.234   4.129  19.221  0.00  0.00    +0.000 A 
ATOM      8  N   UNL     1       6.091   4.349  18.223  0.00  0.00    +0.000 NA
ATOM      9  N   UNL     1       5.367   4.133  17.088  0.00  0.00    +0.000 N 
ATOM     10  C   UNL     1       4.098   3.716  17.398  0.00  0.00    +0.000 A 
BRANCH   9  11
ATOM     11  C   UNL     1       5.948   4.318  15.807  0.00  0.00    +0.000 A 
ATOM     12  C   UNL     1       5.495   3.548  14.724  0.00  0.00    +0.000 A 
ATOM     13  C   UNL     1       6.048   3.726  13.451  0.00  0.00    +0.000 A 
ATOM     14  C   UNL     1       7.057   4.666  13.248  0.00  0.00    +0.000 A 
ATOM     15  C   UNL     1       7.515   5.427  14.321  0.00  0.00    +0.000 A 
ATOM     16  C   UNL     1       6.964   5.253  15.589  0.00  0.00    +0.000 A 
ATOM     17  F   UNL     1       7.460   6.017  16.570  0.00  0.00    +0.000 F 
ENDBRANCH   9  11
ENDBRANCH   5   6
BRANCH   1  19
ATOM     18  N   UNL     1       2.556   6.576  20.201  0.00  0.00    +0.000 N 
ATOM     19  C   UNL     1       1.811   5.438  20.473  0.00  0.00    +0.000 C 
ATOM     20  O   UNL     1       0.586   5.377  20.454  0.00  0.00    +0.000 OA
ATOM     21  H   UNL     1       3.531   6.589  20.471  0.00  0.00    +0.000 HD
BRANCH  18  27
ATOM     22  O   UNL     1      -0.830  12.948  19.481  0.00  0.00    +0.000 OA
ATOM     23  C   UNL     1      -0.222  11.892  19.447  0.00  0.00    +0.000 C 
ATOM     24  C   UNL     1      -0.058  10.892  20.596  0.00  0.00    +0.000 C 
ATOM     25  C   UNL     1       0.765   9.818  19.955  0.00  0.00    +0.000 A 
ATOM     26  C   UNL     1       1.240   8.640  20.500  0.00  0.00    +0.000 A 
ATOM     27  C   UNL     1       2.017   7.789  19.701  0.00  0.00    +0.000 A 
ATOM     28  C   UNL     1       2.259   8.131  18.353  0.00  0.00    +0.000 A 
ATOM     29  C   UNL     1       1.775   9.334  17.811  0.00  0.00    +0.000 A 
ATOM     30  C   UNL     1       1.035  10.153  18.635  0.00  0.00    +0.000 A 
ATOM     31  N   UNL     1       0.454  11.376  18.343  0.00  0.00    +0.000 N 
ATOM     32  H   UNL     1       0.491  11.857  17.458  0.00  0.00    +0.000 HD
ENDBRANCH  18  27
ENDBRANCH   1  19
TORSDOF 4
ENDMDL
MODEL 3
REMARK VINA RESULT:      -9.6      2.861      8.860
REMARK  Name = 
REMARK  4 active torsions:
REMARK  status: ('A' for Active; 'I' for Inactive)
REMARK    1  A    between atoms: C_6  and  N_7
REMARK    2  A    between atoms: C_8  and  C_10
REMARK    3  A    between atoms: C_14  and  C_15
REMARK    4  A    between atoms: N_18  and  C_19
REMARK                            x       y       z     vdW  Elec       q    Type
REMARK                         _______ _______ _______ _____ _____    ______ ____
ROOT
ATOM      1  C   UNL     1       3.225   4.348  20.062  0.00  0.00    +0.000 C 
ATOM      2  C   UNL     1       2.985   3.241  21.068  0.00  0.00    +0.000 C 
ATOM      3  C   UNL     1       3.500   2.002  20.369  0.00  0.00    +0.000 C 
ATOM      4  O   UNL     1       3.480   2.253  18.964  0.00  0.00    +0.000 OA
ATOM      5  C   UNL     1       3.053   3.612  18.734  0.00  0.00    +0.000 C 
ENDROOT
BRANCH   5   6
ATOM      6  C   UNL     1       3.831   4.241  17.633  0.00  0.00    +0.000 A 
ATOM      7  C   UNL     1       4.143   5.599  17.443  0.00  0.00    +0.000 A 
ATOM      8  N   UNL     1       4.887   5.809  16.356  0.00  0.00    +0.000 NA
ATOM      9  N   UNL     1       5.023   4.580  15.782  0.00  0.00    +0.000 N 
ATOM     10  C   UNL     1       4.422   3.619  16.556  0.00  0.00    +0.000 A 
BRANCH   9  11
ATOM     11  C   UNL     1       5.728   4.418  14.563  0.00  0.00    +0.000 A 
ATOM     12  C   UNL     1       5.158   3.659  13.529  0.00  0.00    +0.000 A 
ATOM     13  C   UNL     1       5.835   3.499  12.314  0.00  0.00    +0.000 A 
ATOM     14  C   UNL     1       7.084   4.088  12.123  0.00  0.00    +0.000 A 
ATOM     15  C   UNL     1       7.657   4.835  13.149  0.00  0.00    +0.000 A 
ATOM     16  C   UNL     1       6.983   4.999  14.358  0.00  0.00    +0.000 A 
ATOM     17  F   UNL     1       7.602   5.725  15.297  0.00  0.00    +0.000 F 
ENDBRANCH   9  11
ENDBRANCH   5   6
BRANCH   1  19
ATOM     18  N   UNL     1       2.656   6.725  20.172  0.00  0.00    +0.000 N 
ATOM     19  C   UNL     1       2.168   5.427  20.155  0.00  0.00    +0.000 C 
ATOM     20  O   UNL     1       0.982   5.120  20.216  0.00  0.00    +0.000 OA
ATOM     21  H   UNL     1       3.642   6.866  20.355  0.00  0.00    +0.000 HD
BRANCH  18  27
ATOM     22  O   UNL     1      -1.689  12.326  21.697  0.00  0.00    +0.000 OA
ATOM     23  C   UNL     1      -0.959  11.439  21.289  0.00  0.00    +0.000 C 
ATOM     24  C   UNL     1      -0.396  10.270  22.104  0.00  0.00    +0.000 C 
ATOM     25  C   UNL     1       0.407   9.536  21.075  0.00  0.00    +0.000 A 
ATOM     26  C   UNL     1       1.158   8.384  21.213  0.00  0.00    +0.000 A 
ATOM     27  C   UNL     1       1.848   7.889  20.098  0.00  0.00    +0.000 A 
ATOM     28  C   UNL     1       1.727   8.549  18.856  0.00  0.00    +0.000 A 
ATOM     29  C   UNL     1       0.964   9.723  18.729  0.00  0.00    +0.000 A 
ATOM     30  C   UNL     1       0.320  10.189  19.853  0.00  0.00    +0.000 A 
ATOM     31  N   UNL     1      -0.483  11.310  19.987  0.00  0.00    +0.000 N 
ATOM     32  H   UNL     1      -0.717  11.966  19.258  0.00  0.00    +0.000 HD
ENDBRANCH  18  27
ENDBRANCH   1  19
TORSDOF 4
ENDMDL
MODEL 4
REMARK VINA RESULT:      -9.6      0.889      1.250
REMARK  Name = 
REMARK  4 active torsions:
REMARK  status: ('A' for Active; 'I' for Inactive)
REMARK    1  A    between atoms: C_6  and  N_7
REMARK    2  A    between atoms: C_8  and  C_10
REMARK    3  A    between atoms: C_14  and  C_15
REMARK    4  A    between atoms: N_18  and  C_19
REMARK                            x       y       z     vdW  Elec       q    Type
REMARK                         _______ _______ _______ _____ _____    ______ ____
ROOT
ATOM      1  C   UNL     1       1.779   4.368  19.314  0.00  0.00    +0.000 C 
ATOM      2  C   UNL     1       1.877   3.032  20.022  0.00  0.00    +0.000 C 
ATOM      3  C   UNL     1       1.785   3.394  21.488  0.00  0.00    +0.000 C 
ATOM      4  O   UNL     1       2.181   4.759  21.626  0.00  0.00    +0.000 OA
ATOM      5  C   UNL     1       2.445   5.308  20.318  0.00  0.00    +0.000 C 
ENDROOT
BRANCH   5   6
ATOM      6  C   UNL     1       1.940   6.703  20.208  0.00  0.00    +0.000 A 
ATOM      7  C   UNL     1       2.230   7.667  19.226  0.00  0.00    +0.000 A 
ATOM      8  N   UNL     1       1.577   8.814  19.421  0.00  0.00    +0.000 NA
ATOM      9  N   UNL     1       0.887   8.630  20.582  0.00  0.00    +0.000 N 
ATOM     10  C   UNL     1       1.067   7.353  21.052  0.00  0.00    +0.000 A 
BRANCH   9  11
ATOM     11  C   UNL     1       0.099   9.672  21.135  0.00  0.00    +0.000 A 
ATOM     12  C   UNL     1      -0.520  10.598  20.282  0.00  0.00    +0.000 A 
ATOM     13  C   UNL     1      -1.311  11.625  20.810  0.00  0.00    +0.000 A 
ATOM     14  C   UNL     1      -1.484  11.740  22.188  0.00  0.00    +0.000 A 
ATOM     15  C   UNL     1      -0.865  10.828  23.039  0.00  0.00    +0.000 A 
ATOM     16  C   UNL     1      -0.081   9.803  22.516  0.00  0.00    +0.000 A 
ATOM     17  F   UNL     1       0.486   8.970  23.397  0.00  0.00    +0.000 F 
ENDBRANCH   9  11
ENDBRANCH   5   6
BRANCH   1  19
ATOM     18  N   UNL     1       3.801   5.044  18.114  0.00  0.00    +0.000 N 
ATOM     19  C   UNL     1       2.584   4.382  18.033  0.00  0.00    +0.000 C 
ATOM     20  O   UNL     1       2.144   3.840  17.025  0.00  0.00    +0.000 OA
ATOM     21  H   UNL     1       3.966   5.653  18.906  0.00  0.00    +0.000 HD
BRANCH  18  27
ATOM     22  O   UNL     1       7.442   4.094  11.916  0.00  0.00    +0.000 OA
ATOM     23  C   UNL     1       6.961   4.332  13.010  0.00  0.00    +0.000 C 
ATOM     24  C   UNL     1       5.586   3.890  13.521  0.00  0.00    +0.000 C 
ATOM     25  C   UNL     1       5.569   4.469  14.902  0.00  0.00    +0.000 A 
ATOM     26  C   UNL     1       4.578   4.405  15.863  0.00  0.00    +0.000 A 
ATOM     27  C   UNL     1       4.783   5.049  17.091  0.00  0.00    +0.000 A 
ATOM     28  C   UNL     1       6.008   5.708  17.333  0.00  0.00    +0.000 A 
ATOM     29  C   UNL     1       7.007   5.771  16.347  0.00  0.00    +0.000 A 
ATOM     30  C   UNL     1       6.757   5.144  15.146  0.00  0.00    +0.000 A 
ATOM     31  N   UNL     1       7.570   5.063  14.027  0.00  0.00    +0.000 N 
ATOM     32  H   UNL     1       8.490   5.463  13.929  0.00  0.00    +0.000 HD
ENDBRANCH  18  27
ENDBRANCH   1  19
TORSDOF 4
ENDMDL
MODEL 5
REMARK VINA RESULT:      -9.4      3.006      8.648
REMARK  Name = 
REMARK  4 active torsions:
REMARK  status: ('A' for Active; 'I' for Inactive)
REMARK    1  A    between atoms: C_6  and  N_7
REMARK    2  A    between atoms: C_8  and  C_10
REMARK    3  A    between atoms: C_14  and  C_15
REMARK    4  A    between atoms: N_18  and  C_19
REMARK                            x       y       z     vdW  Elec       q    Type
REMARK                         _______ _______ _______ _____ _____    ______ ____
ROOT
ATOM      1  C   UNL     1       3.319   4.429  19.998  0.00  0.00    +0.000 C 
ATOM      2  C   UNL     1       3.159   3.350  21.051  0.00  0.00    +0.000 C 
ATOM      3  C   UNL     1       3.759   2.123  20.401  0.00  0.00    +0.000 C 
ATOM      4  O   UNL     1       3.720   2.313  18.987  0.00  0.00    +0.000 OA
ATOM      5  C   UNL     1       3.198   3.628  18.702  0.00  0.00    +0.000 C 
ENDROOT
BRANCH   5   6
ATOM      6  C   UNL     1       3.928   4.264  17.573  0.00  0.00    +0.000 A 
ATOM      7  C   UNL     1       4.152   5.631  17.332  0.00  0.00    +0.000 A 
ATOM      8  N   UNL     1       4.875   5.848  16.232  0.00  0.00    +0.000 NA
ATOM      9  N   UNL     1       5.085   4.610  15.702  0.00  0.00    +0.000 N 
ATOM     10  C   UNL     1       4.552   3.641  16.514  0.00  0.00    +0.000 A 
BRANCH   9  11
ATOM     11  C   UNL     1       5.793   4.448  14.483  0.00  0.00    +0.000 A 
ATOM     12  C   UNL     1       5.217   3.703  13.442  0.00  0.00    +0.000 A 
ATOM     13  C   UNL     1       5.895   3.544  12.229  0.00  0.00    +0.000 A 
ATOM     14  C   UNL     1       7.151   4.119  12.046  0.00  0.00    +0.000 A 
ATOM     15  C   UNL     1       7.731   4.853  13.078  0.00  0.00    +0.000 A 
ATOM     16  C   UNL     1       7.055   5.015  14.286  0.00  0.00    +0.000 A 
ATOM     17  F   UNL     1       7.679   5.728  15.232  0.00  0.00    +0.000 F 
ENDBRANCH   9  11
ENDBRANCH   5   6
BRANCH   1  19
ATOM     18  N   UNL     1       2.568   6.725  20.383  0.00  0.00    +0.000 N 
ATOM     19  C   UNL     1       2.188   5.433  20.051  0.00  0.00    +0.000 C 
ATOM     20  O   UNL     1       1.038   5.075  19.817  0.00  0.00    +0.000 OA
ATOM     21  H   UNL     1       3.486   6.869  20.785  0.00  0.00    +0.000 HD
BRANCH  18  27
ATOM     22  O   UNL     1      -1.198  12.570  18.324  0.00  0.00    +0.000 OA
ATOM     23  C   UNL     1      -0.636  11.606  18.814  0.00  0.00    +0.000 C 
ATOM     24  C   UNL     1       0.398  10.705  18.130  0.00  0.00    +0.000 C 
ATOM     25  C   UNL     1       0.716   9.723  19.215  0.00  0.00    +0.000 A 
ATOM     26  C   UNL     1       1.591   8.653  19.195  0.00  0.00    +0.000 A 
ATOM     27  C   UNL     1       1.708   7.852  20.340  0.00  0.00    +0.000 A 
ATOM     28  C   UNL     1       0.966   8.181  21.496  0.00  0.00    +0.000 A 
ATOM     29  C   UNL     1       0.076   9.268  21.503  0.00  0.00    +0.000 A 
ATOM     30  C   UNL     1      -0.026  10.016  20.351  0.00  0.00    +0.000 A 
ATOM     31  N   UNL     1      -0.822  11.123  20.107  0.00  0.00    +0.000 N 
ATOM     32  H   UNL     1      -1.461  11.553  20.758  0.00  0.00    +0.000 HD
ENDBRANCH  18  27
ENDBRANCH   1  19
TORSDOF 4
ENDMDL
MODEL 6
REMARK VINA RESULT:      -9.4      2.954      9.198
REMARK  Name = 
REMARK  4 active torsions:
REMARK  status: ('A' for Active; 'I' for Inactive)
REMARK    1  A    between atoms: C_6  and  N_7
REMARK    2  A    between atoms: C_8  and  C_10
REMARK    3  A    between atoms: C_14  and  C_15
REMARK    4  A    between atoms: N_18  and  C_19
REMARK                            x       y       z     vdW  Elec       q    Type
REMARK                         _______ _______ _______ _____ _____    ______ ____
ROOT
ATOM      1  C   UNL     1       2.914   4.849  20.173  0.00  0.00    +0.000 C 
ATOM      2  C   UNL     1       1.999   4.078  21.104  0.00  0.00    +0.000 C 
ATOM      3  C   UNL     1       2.123   2.648  20.625  0.00  0.00    +0.000 C 
ATOM      4  O   UNL     1       2.560   2.678  19.267  0.00  0.00    +0.000 OA
ATOM      5  C   UNL     1       2.797   4.047  18.877  0.00  0.00    +0.000 C 
ENDROOT
BRANCH   5   6
ATOM      6  C   UNL     1       4.013   4.163  18.028  0.00  0.00    +0.000 A 
ATOM      7  C   UNL     1       5.344   4.378  18.425  0.00  0.00    +0.000 A 
ATOM      8  N   UNL     1       6.192   4.401  17.396  0.00  0.00    +0.000 NA
ATOM      9  N   UNL     1       5.404   4.256  16.292  0.00  0.00    +0.000 N 
ATOM     10  C   UNL     1       4.094   4.078  16.656  0.00  0.00    +0.000 A 
BRANCH   9  11
ATOM     11  C   UNL     1       5.965   4.278  14.989  0.00  0.00    +0.000 A 
ATOM     12  C   UNL     1       5.377   3.511  13.970  0.00  0.00    +0.000 A 
ATOM     13  C   UNL     1       5.909   3.530  12.677  0.00  0.00    +0.000 A 
ATOM     14  C   UNL     1       7.031   4.306  12.389  0.00  0.00    +0.000 A 
ATOM     15  C   UNL     1       7.622   5.063  13.399  0.00  0.00    +0.000 A 
ATOM     16  C   UNL     1       7.092   5.048  14.687  0.00  0.00    +0.000 A 
ATOM     17  F   UNL     1       7.719   5.795  15.603  0.00  0.00    +0.000 F 
ENDBRANCH   9  11
ENDBRANCH   5   6
BRANCH   1  19
ATOM     18  N   UNL     1       1.564   6.753  20.905  0.00  0.00    +0.000 N 
ATOM     19  C   UNL     1       2.402   6.250  19.921  0.00  0.00    +0.000 C 
ATOM     20  O   UNL     1       2.728   6.848  18.901  0.00  0.00    +0.000 OA
ATOM     21  H   UNL     1       1.169   6.108  21.578  0.00  0.00    +0.000 HD
BRANCH  18  27
ATOM     22  O   UNL     1      -1.437  13.038  22.925  0.00  0.00    +0.000 OA
ATOM     23  C   UNL     1      -0.894  12.056  22.448  0.00  0.00    +0.000 C 
ATOM     24  C   UNL     1      -0.781  10.670  23.091  0.00  0.00    +0.000 C 
ATOM     25  C   UNL     1      -0.030   9.906  22.045  0.00  0.00    +0.000 A 
ATOM     26  C   UNL     1       0.377   8.586  22.053  0.00  0.00    +0.000 A 
ATOM     27  C   UNL     1       1.095   8.091  20.955  0.00  0.00    +0.000 A 
ATOM     28  C   UNL     1       1.346   8.937  19.852  0.00  0.00    +0.000 A 
ATOM     29  C   UNL     1       0.931  10.279  19.857  0.00  0.00    +0.000 A 
ATOM     30  C   UNL     1       0.249  10.732  20.965  0.00  0.00    +0.000 A 
ATOM     31  N   UNL     1      -0.259  11.997  21.209  0.00  0.00    +0.000 N 
ATOM     32  H   UNL     1      -0.201  12.792  20.593  0.00  0.00    +0.000 HD
ENDBRANCH  18  27
ENDBRANCH   1  19
TORSDOF 4
ENDMDL
MODEL 7
REMARK VINA RESULT:      -9.3      3.167      8.854
REMARK  Name = 
REMARK  4 active torsions:
REMARK  status: ('A' for Active; 'I' for Inactive)
REMARK    1  A    between atoms: C_6  and  N_7
REMARK    2  A    between atoms: C_8  and  C_10
REMARK    3  A    between atoms: C_14  and  C_15
REMARK    4  A    between atoms: N_18  and  C_19
REMARK                            x       y       z     vdW  Elec       q    Type
REMARK                         _______ _______ _______ _____ _____    ______ ____
ROOT
ATOM      1  C   UNL     1       3.561   4.670  19.574  0.00  0.00    +0.000 C 
ATOM      2  C   UNL     1       2.916   3.844  20.669  0.00  0.00    +0.000 C 
ATOM      3  C   UNL     1       3.505   2.465  20.473  0.00  0.00    +0.000 C 
ATOM      4  O   UNL     1       3.948   2.366  19.119  0.00  0.00    +0.000 OA
ATOM      5  C   UNL     1       3.744   3.635  18.463  0.00  0.00    +0.000 C 
ENDROOT
BRANCH   5   6
ATOM      6  C   UNL     1       4.882   3.965  17.564  0.00  0.00    +0.000 A 
ATOM      7  C   UNL     1       6.187   4.361  17.907  0.00  0.00    +0.000 A 
ATOM      8  N   UNL     1       6.965   4.551  16.841  0.00  0.00    +0.000 NA
ATOM      9  N   UNL     1       6.149   4.334  15.770  0.00  0.00    +0.000 N 
ATOM     10  C   UNL     1       4.901   3.948  16.186  0.00  0.00    +0.000 A 
BRANCH   9  11
ATOM     11  C   UNL     1       6.629   4.491  14.444  0.00  0.00    +0.000 A 
ATOM     12  C   UNL     1       7.641   5.428  14.181  0.00  0.00    +0.000 A 
ATOM     13  C   UNL     1       8.135   5.587  12.882  0.00  0.00    +0.000 A 
ATOM     14  C   UNL     1       7.621   4.822  11.836  0.00  0.00    +0.000 A 
ATOM     15  C   UNL     1       6.611   3.897  12.091  0.00  0.00    +0.000 A 
ATOM     16  C   UNL     1       6.121   3.734  13.385  0.00  0.00    +0.000 A 
ATOM     17  F   UNL     1       5.146   2.831  13.549  0.00  0.00    +0.000 F 
ENDBRANCH   9  11
ENDBRANCH   5   6
BRANCH   1  19
ATOM     18  N   UNL     1       2.625   6.915  19.835  0.00  0.00    +0.000 N 
ATOM     19  C   UNL     1       2.635   5.756  19.073  0.00  0.00    +0.000 C 
ATOM     20  O   UNL     1       1.958   5.569  18.067  0.00  0.00    +0.000 OA
ATOM     21  H   UNL     1       3.030   6.885  20.762  0.00  0.00    +0.000 HD
BRANCH  18  27
ATOM     22  O   UNL     1      -1.521  12.863  19.767  0.00  0.00    +0.000 OA
ATOM     23  C   UNL     1      -0.781  11.905  19.629  0.00  0.00    +0.000 C 
ATOM     24  C   UNL     1      -0.540  10.781  20.642  0.00  0.00    +0.000 C 
ATOM     25  C   UNL     1       0.443   9.916  19.915  0.00  0.00    +0.000 A 
ATOM     26  C   UNL     1       1.041   8.740  20.326  0.00  0.00    +0.000 A 
ATOM     27  C   UNL     1       1.956   8.111  19.470  0.00  0.00    +0.000 A 
ATOM     28  C   UNL     1       2.211   8.667  18.197  0.00  0.00    +0.000 A 
ATOM     29  C   UNL     1       1.600   9.866  17.792  0.00  0.00    +0.000 A 
ATOM     30  C   UNL     1       0.725  10.464  18.671  0.00  0.00    +0.000 A 
ATOM     31  N   UNL     1       0.004  11.636  18.510  0.00  0.00    +0.000 N 
ATOM     32  H   UNL     1       0.017  12.237  17.702  0.00  0.00    +0.000 HD
ENDBRANCH  18  27
ENDBRANCH   1  19
TORSDOF 4
ENDMDL
MODEL 8
REMARK VINA RESULT:      -9.3      3.088      8.735
REMARK  Name = 
REMARK  4 active torsions:
REMARK  status: ('A' for Active; 'I' for Inactive)
REMARK    1  A    between atoms: C_6  and  N_7
REMARK    2  A    between atoms: C_8  and  C_10
REMARK    3  A    between atoms: C_14  and  C_15
REMARK    4  A    between atoms: N_18  and  C_19
REMARK                            x       y       z     vdW  Elec       q    Type
REMARK                         _______ _______ _______ _____ _____    ______ ____
ROOT
ATOM      1  C   UNL     1       3.006   4.883  20.122  0.00  0.00    +0.000 C 
ATOM      2  C   UNL     1       2.175   4.113  21.129  0.00  0.00    +0.000 C 
ATOM      3  C   UNL     1       2.416   2.665  20.762  0.00  0.00    +0.000 C 
ATOM      4  O   UNL     1       2.831   2.623  19.397  0.00  0.00    +0.000 OA
ATOM      5  C   UNL     1       2.942   3.972  18.896  0.00  0.00    +0.000 C 
ENDROOT
BRANCH   5   6
ATOM      6  C   UNL     1       4.131   4.124  18.016  0.00  0.00    +0.000 A 
ATOM      7  C   UNL     1       5.461   4.402  18.377  0.00  0.00    +0.000 A 
ATOM      8  N   UNL     1       6.283   4.442  17.327  0.00  0.00    +0.000 NA
ATOM      9  N   UNL     1       5.476   4.244  16.245  0.00  0.00    +0.000 N 
ATOM     10  C   UNL     1       4.183   4.017  16.643  0.00  0.00    +0.000 A 
BRANCH   9  11
ATOM     11  C   UNL     1       6.004   4.265  14.929  0.00  0.00    +0.000 A 
ATOM     12  C   UNL     1       5.405   3.481  13.930  0.00  0.00    +0.000 A 
ATOM     13  C   UNL     1       5.905   3.500  12.623  0.00  0.00    +0.000 A 
ATOM     14  C   UNL     1       7.006   4.292  12.304  0.00  0.00    +0.000 A 
ATOM     15  C   UNL     1       7.609   5.066  13.293  0.00  0.00    +0.000 A 
ATOM     16  C   UNL     1       7.110   5.052  14.594  0.00  0.00    +0.000 A 
ATOM     17  F   UNL     1       7.746   5.816  15.489  0.00  0.00    +0.000 F 
ENDBRANCH   9  11
ENDBRANCH   5   6
BRANCH   1  19
ATOM     18  N   UNL     1       1.851   6.914  20.848  0.00  0.00    +0.000 N 
ATOM     19  C   UNL     1       2.370   6.210  19.771  0.00  0.00    +0.000 C 
ATOM     20  O   UNL     1       2.335   6.583  18.603  0.00  0.00    +0.000 OA
ATOM     21  H   UNL     1       1.717   6.424  21.723  0.00  0.00    +0.000 HD
BRANCH  18  27
ATOM     22  O   UNL     1      -0.174  13.509  18.617  0.00  0.00    +0.000 OA
ATOM     23  C   UNL     1       0.112  12.445  19.137  0.00  0.00    +0.000 C 
ATOM     24  C   UNL     1       0.800  11.253  18.463  0.00  0.00    +0.000 C 
ATOM     25  C   UNL     1       0.882  10.268  19.589  0.00  0.00    +0.000 A 
ATOM     26  C   UNL     1       1.407   8.990  19.593  0.00  0.00    +0.000 A 
ATOM     27  C   UNL     1       1.352   8.240  20.776  0.00  0.00    +0.000 A 
ATOM     28  C   UNL     1       0.805   8.820  21.941  0.00  0.00    +0.000 A 
ATOM     29  C   UNL     1       0.270  10.119  21.924  0.00  0.00    +0.000 A 
ATOM     30  C   UNL     1       0.322  10.814  20.736  0.00  0.00    +0.000 A 
ATOM     31  N   UNL     1      -0.132  12.094  20.462  0.00  0.00    +0.000 N 
ATOM     32  H   UNL     1      -0.580  12.719  21.114  0.00  0.00    +0.000 HD
ENDBRANCH  18  27
ENDBRANCH   1  19
TORSDOF 4
ENDMDL
MODEL 9
REMARK VINA RESULT:      -9.3      3.941      5.815
REMARK  Name = 
REMARK  4 active torsions:
REMARK  status: ('A' for Active; 'I' for Inactive)
REMARK    1  A    between atoms: C_6  and  N_7
REMARK    2  A    between atoms: C_8  and  C_10
REMARK    3  A    between atoms: C_14  and  C_15
REMARK    4  A    between atoms: N_18  and  C_19
REMARK                            x       y       z     vdW  Elec       q    Type
REMARK                         _______ _______ _______ _____ _____    ______ ____
ROOT
ATOM      1  C   UNL     1       0.148   9.311  20.906  0.00  0.00    +0.000 C 
ATOM      2  C   UNL     1      -0.215   8.597  22.194  0.00  0.00    +0.000 C 
ATOM      3  C   UNL     1      -0.463   9.724  23.172  0.00  0.00    +0.000 C 
ATOM      4  O   UNL     1       0.231  10.877  22.696  0.00  0.00    +0.000 OA
ATOM      5  C   UNL     1       0.844  10.568  21.427  0.00  0.00    +0.000 C 
ENDROOT
BRANCH   5   6
ATOM      6  C   UNL     1       0.731  11.711  20.481  0.00  0.00    +0.000 A 
ATOM      7  C   UNL     1      -0.352  12.064  19.657  0.00  0.00    +0.000 A 
ATOM      8  N   UNL     1      -0.122  13.172  18.951  0.00  0.00    +0.000 NA
ATOM      9  N   UNL     1       1.155  13.530  19.269  0.00  0.00    +0.000 N 
ATOM     10  C   UNL     1       1.672  12.681  20.214  0.00  0.00    +0.000 A 
BRANCH   9  11
ATOM     11  C   UNL     1       1.767  14.658  18.665  0.00  0.00    +0.000 A 
ATOM     12  C   UNL     1       1.120  15.903  18.708  0.00  0.00    +0.000 A 
ATOM     13  C   UNL     1       1.715  17.028  18.128  0.00  0.00    +0.000 A 
ATOM     14  C   UNL     1       2.954  16.922  17.498  0.00  0.00    +0.000 A 
ATOM     15  C   UNL     1       3.597  15.687  17.446  0.00  0.00    +0.000 A 
ATOM     16  C   UNL     1       3.007  14.566  18.026  0.00  0.00    +0.000 A 
ATOM     17  F   UNL     1       3.683  13.414  17.930  0.00  0.00    +0.000 F 
ENDBRANCH   9  11
ENDBRANCH   5   6
BRANCH   1  19
ATOM     18  N   UNL     1       1.524   7.306  20.645  0.00  0.00    +0.000 N 
ATOM     19  C   UNL     1       1.139   8.516  20.086  0.00  0.00    +0.000 C 
ATOM     20  O   UNL     1       1.546   8.958  19.017  0.00  0.00    +0.000 OA
ATOM     21  H   UNL     1       1.322   7.142  21.624  0.00  0.00    +0.000 HD
BRANCH  18  27
ATOM     22  O   UNL     1       5.929   3.810  16.067  0.00  0.00    +0.000 OA
ATOM     23  C   UNL     1       5.180   4.259  16.917  0.00  0.00    +0.000 C 
ATOM     24  C   UNL     1       4.597   5.675  16.969  0.00  0.00    +0.000 C 
ATOM     25  C   UNL     1       3.769   5.622  18.215  0.00  0.00    +0.000 A 
ATOM     26  C   UNL     1       2.996   6.612  18.792  0.00  0.00    +0.000 A 
ATOM     27  C   UNL     1       2.317   6.332  19.986  0.00  0.00    +0.000 A 
ATOM     28  C   UNL     1       2.403   5.039  20.547  0.00  0.00    +0.000 A 
ATOM     29  C   UNL     1       3.196   4.041  19.954  0.00  0.00    +0.000 A 
ATOM     30  C   UNL     1       3.865   4.364  18.794  0.00  0.00    +0.000 A 
ATOM     31  N   UNL     1       4.699   3.567  18.027  0.00  0.00    +0.000 N 
ATOM     32  H   UNL     1       4.945   2.608  18.214  0.00  0.00    +0.000 HD
ENDBRANCH  18  27
ENDBRANCH   1  19
TORSDOF 4
ENDMDL
