MODEL 1
REMARK VINA RESULT:      -8.2      0.000      0.000
REMARK  Name = 
REMARK  3 active torsions:
REMARK  status: ('A' for Active; 'I' for Inactive)
REMARK    1  A    between atoms: C_2  and  C_3
REMARK    2  A    between atoms: C_15  and  C_16
REMARK    3  A    between atoms: C_20  and  C_21
REMARK                            x       y       z     vdW  Elec       q    Type
REMARK                         _______ _______ _______ _____ _____    ______ ____
ROOT
ATOM      1  O   UNL     1       0.966   8.321  21.653  0.00  0.00    +0.000 OA
ATOM      2  C   UNL     1       1.268   8.527  20.474  0.00  0.00    +0.000 C 
ATOM      3  N   UNL     1       2.112   7.663  19.757  0.00  0.00    +0.000 N 
ATOM      4  C   UNL     1       2.699   7.912  18.439  0.00  0.00    +0.000 C 
ATOM      5  C   UNL     1       2.206   6.854  17.458  0.00  0.00    +0.000 C 
ATOM      6  C   UNL     1       2.565   5.439  17.956  0.00  0.00    +0.000 C 
ATOM      7  C   UNL     1       2.072   5.239  19.404  0.00  0.00    +0.000 C 
ATOM      8  C   UNL     1       2.482   6.382  20.339  0.00  0.00    +0.000 C 
ENDROOT
BRANCH   2   9
ATOM      9  C   UNL     1       0.706   9.748  19.812  0.00  0.00    +0.000 A 
ATOM     10  C   UNL     1      -0.293   9.584  18.841  0.00  0.00    +0.000 A 
ATOM     11  C   UNL     1      -0.888  10.720  18.268  0.00  0.00    +0.000 A 
ATOM     12  C   UNL     1      -0.448  11.967  18.723  0.00  0.00    +0.000 A 
ATOM     13  N   UNL     1      -0.846  13.248  18.429  0.00  0.00    +0.000 NA
ATOM     14  C   UNL     1      -0.095  14.021  19.187  0.00  0.00    +0.000 A 
ATOM     15  N   UNL     1       0.776  13.297  19.951  0.00  0.00    +0.000 N 
ATOM     16  C   UNL     1       0.574  11.982  19.660  0.00  0.00    +0.000 A 
ATOM     17  N   UNL     1       1.216  10.944  20.208  0.00  0.00    +0.000 NA
ATOM     18  H   UNL     1       1.436  13.646  20.629  0.00  0.00    +0.000 HD
ENDBRANCH   2   9
BRANCH   6  19
ATOM     19  C   UNL     1       4.044   5.158  17.770  0.00  0.00    +0.000 A 
ATOM     20  N   UNL     1       4.844   5.098  18.846  0.00  0.00    +0.000 NA
ATOM     21  C   UNL     1       6.140   4.833  18.620  0.00  0.00    +0.000 A 
ATOM     22  C   UNL     1       6.667   4.634  17.368  0.00  0.00    +0.000 A 
ATOM     23  C   UNL     1       5.784   4.723  16.308  0.00  0.00    +0.000 A 
ATOM     24  N   UNL     1       4.470   4.980  16.507  0.00  0.00    +0.000 NA
BRANCH  23  25
ATOM     25  C   UNL     1       6.186   4.527  14.899  0.00  0.00    +0.000 A 
ATOM     26  C   UNL     1       7.308   5.200  14.379  0.00  0.00    +0.000 A 
ATOM     27  C   UNL     1       7.709   5.038  13.050  0.00  0.00    +0.000 A 
ATOM     28  C   UNL     1       6.994   4.192  12.208  0.00  0.00    +0.000 A 
ATOM     29  C   UNL     1       5.886   3.507  12.696  0.00  0.00    +0.000 A 
ATOM     30  C   UNL     1       5.488   3.672  14.027  0.00  0.00    +0.000 A 
ENDBRANCH  23  25
ENDBRANCH   6  19
TORSDOF 3
ENDMDL
MODEL 2
REMARK VINA RESULT:      -8.1      4.125     11.147
REMARK  Name = 
REMARK  3 active torsions:
REMARK  status: ('A' for Active; 'I' for Inactive)
REMARK    1  A    between atoms: C_2  and  C_3
REMARK    2  A    between atoms: C_15  and  C_16
REMARK    3  A    between atoms: C_20  and  C_21
REMARK                            x       y       z     vdW  Elec       q    Type
REMARK                         _______ _______ _______ _____ _____    ______ ____
ROOT
ATOM      1  O   UNL     1       1.213  10.930  21.204  0.00  0.00    +0.000 OA
ATOM      2  C   UNL     1       0.621  10.318  20.312  0.00  0.00    +0.000 C 
ATOM      3  N   UNL     1      -0.687  10.649  19.920  0.00  0.00    +0.000 N 
ATOM      4  C   UNL     1      -1.555   9.872  19.032  0.00  0.00    +0.000 C 
ATOM      5  C   UNL     1      -1.895  10.706  17.801  0.00  0.00    +0.000 C 
ATOM      6  C   UNL     1      -2.575  12.028  18.210  0.00  0.00    +0.000 C 
ATOM      7  C   UNL     1      -1.723  12.769  19.261  0.00  0.00    +0.000 C 
ATOM      8  C   UNL     1      -1.295  11.869  20.426  0.00  0.00    +0.000 C 
ENDROOT
BRANCH   2   9
ATOM      9  C   UNL     1       1.341   9.187  19.642  0.00  0.00    +0.000 A 
ATOM     10  C   UNL     1       1.732   9.339  18.304  0.00  0.00    +0.000 A 
ATOM     11  C   UNL     1       2.478   8.322  17.686  0.00  0.00    +0.000 A 
ATOM     12  C   UNL     1       2.804   7.208  18.465  0.00  0.00    +0.000 A 
ATOM     13  N   UNL     1       3.552   6.088  18.204  0.00  0.00    +0.000 NA
ATOM     14  C   UNL     1       3.539   5.397  19.326  0.00  0.00    +0.000 A 
ATOM     15  N   UNL     1       2.807   6.019  20.299  0.00  0.00    +0.000 N 
ATOM     16  C   UNL     1       2.319   7.172  19.764  0.00  0.00    +0.000 A 
ATOM     17  N   UNL     1       1.565   8.078  20.397  0.00  0.00    +0.000 NA
ATOM     18  H   UNL     1       2.663   5.713  21.249  0.00  0.00    +0.000 HD
ENDBRANCH   2   9
BRANCH   6  19
ATOM     19  C   UNL     1      -4.008  11.788  18.645  0.00  0.00    +0.000 A 
ATOM     20  N   UNL     1      -4.804  11.014  17.889  0.00  0.00    +0.000 NA
ATOM     21  C   UNL     1      -6.058  10.827  18.331  0.00  0.00    +0.000 A 
ATOM     22  C   UNL     1      -6.547  11.384  19.487  0.00  0.00    +0.000 A 
ATOM     23  C   UNL     1      -5.672  12.176  20.205  0.00  0.00    +0.000 A 
ATOM     24  N   UNL     1      -4.400  12.376  19.788  0.00  0.00    +0.000 NA
BRANCH  23  25
ATOM     25  C   UNL     1      -6.036  12.842  21.474  0.00  0.00    +0.000 A 
ATOM     26  C   UNL     1      -5.324  13.975  21.914  0.00  0.00    +0.000 A 
ATOM     27  C   UNL     1      -5.643  14.622  23.111  0.00  0.00    +0.000 A 
ATOM     28  C   UNL     1      -6.689  14.150  23.896  0.00  0.00    +0.000 A 
ATOM     29  C   UNL     1      -7.416  13.038  23.484  0.00  0.00    +0.000 A 
ATOM     30  C   UNL     1      -7.094  12.393  22.285  0.00  0.00    +0.000 A 
ENDBRANCH  23  25
ENDBRANCH   6  19
TORSDOF 3
ENDMDL
MODEL 3
REMARK VINA RESULT:      -7.9      0.824      1.325
REMARK  Name = 
REMARK  3 active torsions:
REMARK  status: ('A' for Active; 'I' for Inactive)
REMARK    1  A    between atoms: C_2  and  C_3
REMARK    2  A    between atoms: C_15  and  C_16
REMARK    3  A    between atoms: C_20  and  C_21
REMARK                            x       y       z     vdW  Elec       q    Type
REMARK                         _______ _______ _______ _____ _____    ______ ____
ROOT
ATOM      1  O   UNL     1       1.018   7.832  21.848  0.00  0.00    +0.000 OA
ATOM      2  C   UNL     1       1.325   8.189  20.708  0.00  0.00    +0.000 C 
ATOM      3  N   UNL     1       2.187   7.434  19.895  0.00  0.00    +0.000 N 
ATOM      4  C   UNL     1       2.779   7.856  18.624  0.00  0.00    +0.000 C 
ATOM      5  C   UNL     1       2.310   6.922  17.513  0.00  0.00    +0.000 C 
ATOM      6  C   UNL     1       2.687   5.461  17.834  0.00  0.00    +0.000 C 
ATOM      7  C   UNL     1       2.187   5.073  19.241  0.00  0.00    +0.000 C 
ATOM      8  C   UNL     1       2.572   6.096  20.316  0.00  0.00    +0.000 C 
ENDROOT
BRANCH   2   9
ATOM      9  C   UNL     1       0.748   9.475  20.198  0.00  0.00    +0.000 A 
ATOM     10  C   UNL     1       1.185  10.679  20.768  0.00  0.00    +0.000 A 
ATOM     11  C   UNL     1       0.715  11.897  20.249  0.00  0.00    +0.000 A 
ATOM     12  C   UNL     1      -0.164  11.829  19.163  0.00  0.00    +0.000 A 
ATOM     13  N   UNL     1      -0.753  12.800  18.393  0.00  0.00    +0.000 NA
ATOM     14  C   UNL     1      -1.457  12.143  17.493  0.00  0.00    +0.000 A 
ATOM     15  N   UNL     1      -1.355  10.789  17.655  0.00  0.00    +0.000 N 
ATOM     16  C   UNL     1      -0.542  10.569  18.725  0.00  0.00    +0.000 A 
ATOM     17  N   UNL     1      -0.174   9.375  19.203  0.00  0.00    +0.000 NA
ATOM     18  H   UNL     1      -1.774  10.069  17.086  0.00  0.00    +0.000 HD
ENDBRANCH   2   9
BRANCH   6  19
ATOM     19  C   UNL     1       4.171   5.228  17.626  0.00  0.00    +0.000 A 
ATOM     20  N   UNL     1       4.993   5.231  18.688  0.00  0.00    +0.000 NA
ATOM     21  C   UNL     1       6.294   5.006  18.445  0.00  0.00    +0.000 A 
ATOM     22  C   UNL     1       6.804   4.785  17.189  0.00  0.00    +0.000 A 
ATOM     23  C   UNL     1       5.898   4.807  16.145  0.00  0.00    +0.000 A 
ATOM     24  N   UNL     1       4.580   5.024  16.362  0.00  0.00    +0.000 NA
BRANCH  23  25
ATOM     25  C   UNL     1       6.280   4.580  14.735  0.00  0.00    +0.000 A 
ATOM     26  C   UNL     1       7.393   5.244  14.183  0.00  0.00    +0.000 A 
ATOM     27  C   UNL     1       7.774   5.053  12.852  0.00  0.00    +0.000 A 
ATOM     28  C   UNL     1       7.050   4.184  12.041  0.00  0.00    +0.000 A 
ATOM     29  C   UNL     1       5.952   3.508  12.561  0.00  0.00    +0.000 A 
ATOM     30  C   UNL     1       5.572   3.702  13.894  0.00  0.00    +0.000 A 
ENDBRANCH  23  25
ENDBRANCH   6  19
TORSDOF 3
ENDMDL
MODEL 4
REMARK VINA RESULT:      -7.8      3.711      6.056
REMARK  Name = 
REMARK  3 active torsions:
REMARK  status: ('A' for Active; 'I' for Inactive)
REMARK    1  A    between atoms: C_2  and  C_3
REMARK    2  A    between atoms: C_15  and  C_16
REMARK    3  A    between atoms: C_20  and  C_21
REMARK                            x       y       z     vdW  Elec       q    Type
REMARK                         _______ _______ _______ _____ _____    ______ ____
ROOT
ATOM      1  O   UNL     1      -0.967  13.588  18.527  0.00  0.00    +0.000 OA
ATOM      2  C   UNL     1      -1.387  12.470  18.839  0.00  0.00    +0.000 C 
ATOM      3  N   UNL     1      -0.536  11.359  18.960  0.00  0.00    +0.000 N 
ATOM      4  C   UNL     1      -0.943   9.962  19.116  0.00  0.00    +0.000 C 
ATOM      5  C   UNL     1      -0.414   9.427  20.444  0.00  0.00    +0.000 C 
ATOM      6  C   UNL     1       1.120   9.561  20.513  0.00  0.00    +0.000 C 
ATOM      7  C   UNL     1       1.549  11.008  20.197  0.00  0.00    +0.000 C 
ATOM      8  C   UNL     1       0.905  11.558  18.919  0.00  0.00    +0.000 C 
ENDROOT
BRANCH   2   9
ATOM      9  C   UNL     1      -2.856  12.320  19.089  0.00  0.00    +0.000 A 
ATOM     10  C   UNL     1      -3.374  12.739  20.323  0.00  0.00    +0.000 A 
ATOM     11  C   UNL     1      -4.759  12.680  20.544  0.00  0.00    +0.000 A 
ATOM     12  C   UNL     1      -5.553  12.212  19.491  0.00  0.00    +0.000 A 
ATOM     13  N   UNL     1      -6.912  12.084  19.349  0.00  0.00    +0.000 NA
ATOM     14  C   UNL     1      -7.085  11.619  18.128  0.00  0.00    +0.000 A 
ATOM     15  N   UNL     1      -5.897  11.432  17.479  0.00  0.00    +0.000 N 
ATOM     16  C   UNL     1      -4.905  11.795  18.339  0.00  0.00    +0.000 A 
ATOM     17  N   UNL     1      -3.592  11.778  18.081  0.00  0.00    +0.000 NA
ATOM     18  H   UNL     1      -5.757  11.112  16.533  0.00  0.00    +0.000 HD
ENDBRANCH   2   9
BRANCH   6  19
ATOM     19  C   UNL     1       1.793   8.519  19.639  0.00  0.00    +0.000 A 
ATOM     20  N   UNL     1       2.306   8.886  18.453  0.00  0.00    +0.000 NA
ATOM     21  C   UNL     1       2.900   7.924  17.729  0.00  0.00    +0.000 A 
ATOM     22  C   UNL     1       2.997   6.617  18.139  0.00  0.00    +0.000 A 
ATOM     23  C   UNL     1       2.437   6.314  19.365  0.00  0.00    +0.000 A 
ATOM     24  N   UNL     1       1.838   7.264  20.120  0.00  0.00    +0.000 NA
BRANCH  23  25
ATOM     25  C   UNL     1       2.462   4.958  19.955  0.00  0.00    +0.000 A 
ATOM     26  C   UNL     1       3.545   4.093  19.707  0.00  0.00    +0.000 A 
ATOM     27  C   UNL     1       3.593   2.805  20.247  0.00  0.00    +0.000 A 
ATOM     28  C   UNL     1       2.555   2.353  21.055  0.00  0.00    +0.000 A 
ATOM     29  C   UNL     1       1.476   3.188  21.325  0.00  0.00    +0.000 A 
ATOM     30  C   UNL     1       1.431   4.477  20.782  0.00  0.00    +0.000 A 
ENDBRANCH  23  25
ENDBRANCH   6  19
TORSDOF 3
ENDMDL
MODEL 5
REMARK VINA RESULT:      -7.7      3.874      6.170
REMARK  Name = 
REMARK  3 active torsions:
REMARK  status: ('A' for Active; 'I' for Inactive)
REMARK    1  A    between atoms: C_2  and  C_3
REMARK    2  A    between atoms: C_15  and  C_16
REMARK    3  A    between atoms: C_20  and  C_21
REMARK                            x       y       z     vdW  Elec       q    Type
REMARK                         _______ _______ _______ _____ _____    ______ ____
ROOT
ATOM      1  O   UNL     1      -1.262  13.955  19.472  0.00  0.00    +0.000 OA
ATOM      2  C   UNL     1      -1.664  12.811  19.699  0.00  0.00    +0.000 C 
ATOM      3  N   UNL     1      -0.810  11.696  19.655  0.00  0.00    +0.000 N 
ATOM      4  C   UNL     1      -1.210  10.289  19.700  0.00  0.00    +0.000 C 
ATOM      5  C   UNL     1      -0.598   9.629  20.932  0.00  0.00    +0.000 C 
ATOM      6  C   UNL     1       0.938   9.760  20.913  0.00  0.00    +0.000 C 
ATOM      7  C   UNL     1       1.350  11.232  20.713  0.00  0.00    +0.000 C 
ATOM      8  C   UNL     1       0.625  11.903  19.540  0.00  0.00    +0.000 C 
ENDROOT
BRANCH   2   9
ATOM      9  C   UNL     1      -3.115  12.632  20.029  0.00  0.00    +0.000 A 
ATOM     10  C   UNL     1      -3.978  12.164  19.028  0.00  0.00    +0.000 A 
ATOM     11  C   UNL     1      -5.324  11.914  19.341  0.00  0.00    +0.000 A 
ATOM     12  C   UNL     1      -5.722  12.137  20.663  0.00  0.00    +0.000 A 
ATOM     13  N   UNL     1      -6.916  11.943  21.311  0.00  0.00    +0.000 NA
ATOM     14  C   UNL     1      -6.690  12.299  22.560  0.00  0.00    +0.000 A 
ATOM     15  N   UNL     1      -5.403  12.723  22.745  0.00  0.00    +0.000 N 
ATOM     16  C   UNL     1      -4.772  12.638  21.541  0.00  0.00    +0.000 A 
ATOM     17  N   UNL     1      -3.492  12.943  21.298  0.00  0.00    +0.000 NA
ATOM     18  H   UNL     1      -4.973  13.022  23.606  0.00  0.00    +0.000 HD
ENDBRANCH   2   9
BRANCH   6  19
ATOM     19  C   UNL     1       1.550   8.811  19.899  0.00  0.00    +0.000 A 
ATOM     20  N   UNL     1       1.905   9.277  18.692  0.00  0.00    +0.000 NA
ATOM     21  C   UNL     1       2.453   8.395  17.841  0.00  0.00    +0.000 A 
ATOM     22  C   UNL     1       2.652   7.070  18.146  0.00  0.00    +0.000 A 
ATOM     23  C   UNL     1       2.251   6.663  19.404  0.00  0.00    +0.000 A 
ATOM     24  N   UNL     1       1.704   7.532  20.285  0.00  0.00    +0.000 NA
BRANCH  23  25
ATOM     25  C   UNL     1       2.402   5.275  19.893  0.00  0.00    +0.000 A 
ATOM     26  C   UNL     1       3.533   4.514  19.538  0.00  0.00    +0.000 A 
ATOM     27  C   UNL     1       3.700   3.199  19.982  0.00  0.00    +0.000 A 
ATOM     28  C   UNL     1       2.735   2.615  20.797  0.00  0.00    +0.000 A 
ATOM     29  C   UNL     1       1.612   3.344  21.170  0.00  0.00    +0.000 A 
ATOM     30  C   UNL     1       1.448   4.661  20.725  0.00  0.00    +0.000 A 
ENDBRANCH  23  25
ENDBRANCH   6  19
TORSDOF 3
ENDMDL
MODEL 6
REMARK VINA RESULT:      -7.7      4.000     11.096
REMARK  Name = 
REMARK  3 active torsions:
REMARK  status: ('A' for Active; 'I' for Inactive)
REMARK    1  A    between atoms: C_2  and  C_3
REMARK    2  A    between atoms: C_15  and  C_16
REMARK    3  A    between atoms: C_20  and  C_21
REMARK                            x       y       z     vdW  Elec       q    Type
REMARK                         _______ _______ _______ _____ _____    ______ ____
ROOT
ATOM      1  O   UNL     1       1.199   9.411  21.971  0.00  0.00    +0.000 OA
ATOM      2  C   UNL     1       0.790   9.345  20.809  0.00  0.00    +0.000 C 
ATOM      3  N   UNL     1      -0.362  10.026  20.382  0.00  0.00    +0.000 N 
ATOM      4  C   UNL     1      -1.050   9.858  19.101  0.00  0.00    +0.000 C 
ATOM      5  C   UNL     1      -1.032  11.180  18.340  0.00  0.00    +0.000 C 
ATOM      6  C   UNL     1      -1.692  12.297  19.173  0.00  0.00    +0.000 C 
ATOM      7  C   UNL     1      -1.060  12.366  20.578  0.00  0.00    +0.000 C 
ATOM      8  C   UNL     1      -0.983  10.999  21.267  0.00  0.00    +0.000 C 
ENDROOT
BRANCH   2   9
ATOM      9  C   UNL     1       1.565   8.502  19.842  0.00  0.00    +0.000 A 
ATOM     10  C   UNL     1       1.851   9.027  18.574  0.00  0.00    +0.000 A 
ATOM     11  C   UNL     1       2.644   8.284  17.684  0.00  0.00    +0.000 A 
ATOM     12  C   UNL     1       3.121   7.049  18.136  0.00  0.00    +0.000 A 
ATOM     13  N   UNL     1       3.950   6.117  17.564  0.00  0.00    +0.000 NA
ATOM     14  C   UNL     1       4.074   5.168  18.470  0.00  0.00    +0.000 A 
ATOM     15  N   UNL     1       3.354   5.443  19.599  0.00  0.00    +0.000 N 
ATOM     16  C   UNL     1       2.728   6.636  19.400  0.00  0.00    +0.000 A 
ATOM     17  N   UNL     1       1.938   7.268  20.275  0.00  0.00    +0.000 NA
ATOM     18  H   UNL     1       3.301   4.893  20.443  0.00  0.00    +0.000 HD
ENDBRANCH   2   9
BRANCH   6  19
ATOM     19  C   UNL     1      -3.201  12.139  19.188  0.00  0.00    +0.000 A 
ATOM     20  N   UNL     1      -3.824  11.657  18.101  0.00  0.00    +0.000 NA
ATOM     21  C   UNL     1      -5.158  11.527  18.178  0.00  0.00    +0.000 A 
ATOM     22  C   UNL     1      -5.891  11.866  19.290  0.00  0.00    +0.000 A 
ATOM     23  C   UNL     1      -5.181  12.365  20.365  0.00  0.00    +0.000 A 
ATOM     24  N   UNL     1      -3.835  12.499  20.319  0.00  0.00    +0.000 NA
BRANCH  23  25
ATOM     25  C   UNL     1      -5.815  12.769  21.638  0.00  0.00    +0.000 A 
ATOM     26  C   UNL     1      -7.140  12.388  21.926  0.00  0.00    +0.000 A 
ATOM     27  C   UNL     1      -7.766  12.759  23.119  0.00  0.00    +0.000 A 
ATOM     28  C   UNL     1      -7.075  13.519  24.057  0.00  0.00    +0.000 A 
ATOM     29  C   UNL     1      -5.763  13.904  23.805  0.00  0.00    +0.000 A 
ATOM     30  C   UNL     1      -5.139  13.530  22.609  0.00  0.00    +0.000 A 
ENDBRANCH  23  25
ENDBRANCH   6  19
TORSDOF 3
ENDMDL
MODEL 7
REMARK VINA RESULT:      -7.6      3.844      6.383
REMARK  Name = 
REMARK  3 active torsions:
REMARK  status: ('A' for Active; 'I' for Inactive)
REMARK    1  A    between atoms: C_2  and  C_3
REMARK    2  A    between atoms: C_15  and  C_16
REMARK    3  A    between atoms: C_20  and  C_21
REMARK                            x       y       z     vdW  Elec       q    Type
REMARK                         _______ _______ _______ _____ _____    ______ ____
ROOT
ATOM      1  O   UNL     1      -1.476  14.294  19.840  0.00  0.00    +0.000 OA
ATOM      2  C   UNL     1      -1.839  13.136  20.063  0.00  0.00    +0.000 C 
ATOM      3  N   UNL     1      -0.971  12.040  19.920  0.00  0.00    +0.000 N 
ATOM      4  C   UNL     1      -1.342  10.624  19.953  0.00  0.00    +0.000 C 
ATOM      5  C   UNL     1      -0.625   9.941  21.114  0.00  0.00    +0.000 C 
ATOM      6  C   UNL     1       0.902  10.103  20.981  0.00  0.00    +0.000 C 
ATOM      7  C   UNL     1       1.272  11.589  20.795  0.00  0.00    +0.000 C 
ATOM      8  C   UNL     1       0.447  12.278  19.702  0.00  0.00    +0.000 C 
ENDROOT
BRANCH   2   9
ATOM      9  C   UNL     1      -3.256  12.919  20.498  0.00  0.00    +0.000 A 
ATOM     10  C   UNL     1      -4.196  12.506  19.542  0.00  0.00    +0.000 A 
ATOM     11  C   UNL     1      -5.510  12.220  19.947  0.00  0.00    +0.000 A 
ATOM     12  C   UNL     1      -5.799  12.353  21.309  0.00  0.00    +0.000 A 
ATOM     13  N   UNL     1      -6.935  12.103  22.038  0.00  0.00    +0.000 NA
ATOM     14  C   UNL     1      -6.609  12.381  23.285  0.00  0.00    +0.000 A 
ATOM     15  N   UNL     1      -5.314  12.807  23.391  0.00  0.00    +0.000 N 
ATOM     16  C   UNL     1      -4.784  12.807  22.137  0.00  0.00    +0.000 A 
ATOM     17  N   UNL     1      -3.530  13.143  21.811  0.00  0.00    +0.000 NA
ATOM     18  H   UNL     1      -4.817  13.055  24.232  0.00  0.00    +0.000 HD
ENDBRANCH   2   9
BRANCH   6  19
ATOM     19  C   UNL     1       1.450   9.196  19.895  0.00  0.00    +0.000 A 
ATOM     20  N   UNL     1       1.669   9.696  18.668  0.00  0.00    +0.000 NA
ATOM     21  C   UNL     1       2.167   8.850  17.752  0.00  0.00    +0.000 A 
ATOM     22  C   UNL     1       2.446   7.530  18.011  0.00  0.00    +0.000 A 
ATOM     23  C   UNL     1       2.184   7.086  19.293  0.00  0.00    +0.000 A 
ATOM     24  N   UNL     1       1.690   7.918  20.239  0.00  0.00    +0.000 NA
BRANCH  23  25
ATOM     25  C   UNL     1       2.436   5.699  19.737  0.00  0.00    +0.000 A 
ATOM     26  C   UNL     1       1.621   5.108  20.723  0.00  0.00    +0.000 A 
ATOM     27  C   UNL     1       1.837   3.800  21.165  0.00  0.00    +0.000 A 
ATOM     28  C   UNL     1       2.877   3.049  20.627  0.00  0.00    +0.000 A 
ATOM     29  C   UNL     1       3.694   3.603  19.647  0.00  0.00    +0.000 A 
ATOM     30  C   UNL     1       3.474   4.913  19.206  0.00  0.00    +0.000 A 
ENDBRANCH  23  25
ENDBRANCH   6  19
TORSDOF 3
ENDMDL
MODEL 8
REMARK VINA RESULT:      -7.6      3.557     10.445
REMARK  Name = 
REMARK  3 active torsions:
REMARK  status: ('A' for Active; 'I' for Inactive)
REMARK    1  A    between atoms: C_2  and  C_3
REMARK    2  A    between atoms: C_15  and  C_16
REMARK    3  A    between atoms: C_20  and  C_21
REMARK                            x       y       z     vdW  Elec       q    Type
REMARK                         _______ _______ _______ _____ _____    ______ ____
ROOT
ATOM      1  O   UNL     1       3.160   7.527  17.291  0.00  0.00    +0.000 OA
ATOM      2  C   UNL     1       2.671   7.456  18.421  0.00  0.00    +0.000 C 
ATOM      3  N   UNL     1       1.990   8.535  19.010  0.00  0.00    +0.000 N 
ATOM      4  C   UNL     1       1.557   8.636  20.405  0.00  0.00    +0.000 C 
ATOM      5  C   UNL     1       0.038   8.767  20.454  0.00  0.00    +0.000 C 
ATOM      6  C   UNL     1      -0.430   9.994  19.646  0.00  0.00    +0.000 C 
ATOM      7  C   UNL     1       0.157   9.955  18.220  0.00  0.00    +0.000 C 
ATOM      8  C   UNL     1       1.669   9.700  18.202  0.00  0.00    +0.000 C 
ENDROOT
BRANCH   2   9
ATOM      9  C   UNL     1       2.823   6.167  19.170  0.00  0.00    +0.000 A 
ATOM     10  C   UNL     1       1.834   5.807  20.096  0.00  0.00    +0.000 A 
ATOM     11  C   UNL     1       1.919   4.566  20.747  0.00  0.00    +0.000 A 
ATOM     12  C   UNL     1       3.000   3.744  20.412  0.00  0.00    +0.000 A 
ATOM     13  N   UNL     1       3.348   2.475  20.802  0.00  0.00    +0.000 NA
ATOM     14  C   UNL     1       4.450   2.202  20.133  0.00  0.00    +0.000 A 
ATOM     15  N   UNL     1       4.833   3.242  19.334  0.00  0.00    +0.000 N 
ATOM     16  C   UNL     1       3.925   4.242  19.507  0.00  0.00    +0.000 A 
ATOM     17  N   UNL     1       3.931   5.429  18.890  0.00  0.00    +0.000 NA
ATOM     18  H   UNL     1       5.622   3.277  18.706  0.00  0.00    +0.000 HD
ENDBRANCH   2   9
BRANCH   6  19
ATOM     19  C   UNL     1      -0.131  11.280  20.394  0.00  0.00    +0.000 A 
ATOM     20  N   UNL     1       0.975  11.977  20.091  0.00  0.00    +0.000 NA
ATOM     21  C   UNL     1       1.180  13.113  20.777  0.00  0.00    +0.000 A 
ATOM     22  C   UNL     1       0.330  13.573  21.753  0.00  0.00    +0.000 A 
ATOM     23  C   UNL     1      -0.782  12.797  22.016  0.00  0.00    +0.000 A 
ATOM     24  N   UNL     1      -1.018  11.651  21.335  0.00  0.00    +0.000 NA
BRANCH  23  25
ATOM     25  C   UNL     1      -1.798  13.153  23.029  0.00  0.00    +0.000 A 
ATOM     26  C   UNL     1      -2.910  12.317  23.247  0.00  0.00    +0.000 A 
ATOM     27  C   UNL     1      -3.889  12.631  24.194  0.00  0.00    +0.000 A 
ATOM     28  C   UNL     1      -3.774  13.793  24.951  0.00  0.00    +0.000 A 
ATOM     29  C   UNL     1      -2.683  14.634  24.763  0.00  0.00    +0.000 A 
ATOM     30  C   UNL     1      -1.705  14.317  23.814  0.00  0.00    +0.000 A 
ENDBRANCH  23  25
ENDBRANCH   6  19
TORSDOF 3
ENDMDL
MODEL 9
REMARK VINA RESULT:      -7.5      2.980      4.858
REMARK  Name = 
REMARK  3 active torsions:
REMARK  status: ('A' for Active; 'I' for Inactive)
REMARK    1  A    between atoms: C_2  and  C_3
REMARK    2  A    between atoms: C_15  and  C_16
REMARK    3  A    between atoms: C_20  and  C_21
REMARK                            x       y       z     vdW  Elec       q    Type
REMARK                         _______ _______ _______ _____ _____    ______ ____
ROOT
ATOM      1  O   UNL     1      -1.919  11.667  16.933  0.00  0.00    +0.000 OA
ATOM      2  C   UNL     1      -1.948  11.276  18.103  0.00  0.00    +0.000 C 
ATOM      3  N   UNL     1      -1.007  10.362  18.608  0.00  0.00    +0.000 N 
ATOM      4  C   UNL     1      -1.064   9.676  19.899  0.00  0.00    +0.000 C 
ATOM      5  C   UNL     1       0.150  10.070  20.735  0.00  0.00    +0.000 C 
ATOM      6  C   UNL     1       1.457   9.728  19.992  0.00  0.00    +0.000 C 
ATOM      7  C   UNL     1       1.442  10.331  18.572  0.00  0.00    +0.000 C 
ATOM      8  C   UNL     1       0.154  10.017  17.802  0.00  0.00    +0.000 C 
ENDROOT
BRANCH   2   9
ATOM      9  C   UNL     1      -3.031  11.806  18.992  0.00  0.00    +0.000 A 
ATOM     10  C   UNL     1      -4.366  11.608  18.614  0.00  0.00    +0.000 A 
ATOM     11  C   UNL     1      -5.394  12.027  19.474  0.00  0.00    +0.000 A 
ATOM     12  C   UNL     1      -5.012  12.612  20.686  0.00  0.00    +0.000 A 
ATOM     13  N   UNL     1      -5.737  13.068  21.758  0.00  0.00    +0.000 NA
ATOM     14  C   UNL     1      -4.838  13.485  22.626  0.00  0.00    +0.000 A 
ATOM     15  N   UNL     1      -3.564  13.327  22.158  0.00  0.00    +0.000 N 
ATOM     16  C   UNL     1      -3.655  12.781  20.914  0.00  0.00    +0.000 A 
ATOM     17  N   UNL     1      -2.629  12.452  20.119  0.00  0.00    +0.000 NA
ATOM     18  H   UNL     1      -2.702  13.542  22.636  0.00  0.00    +0.000 HD
ENDBRANCH   2   9
BRANCH   6  19
ATOM     19  C   UNL     1       1.718   8.233  20.018  0.00  0.00    +0.000 A 
ATOM     20  N   UNL     1       1.174   7.487  20.993  0.00  0.00    +0.000 NA
ATOM     21  C   UNL     1       1.430   6.170  20.958  0.00  0.00    +0.000 A 
ATOM     22  C   UNL     1       2.209   5.573  19.997  0.00  0.00    +0.000 A 
ATOM     23  C   UNL     1       2.743   6.408  19.033  0.00  0.00    +0.000 A 
ATOM     24  N   UNL     1       2.495   7.738  19.039  0.00  0.00    +0.000 NA
BRANCH  23  25
ATOM     25  C   UNL     1       3.595   5.926  17.925  0.00  0.00    +0.000 A 
ATOM     26  C   UNL     1       3.686   4.549  17.643  0.00  0.00    +0.000 A 
ATOM     27  C   UNL     1       4.487   4.065  16.605  0.00  0.00    +0.000 A 
ATOM     28  C   UNL     1       5.216   4.953  15.820  0.00  0.00    +0.000 A 
ATOM     29  C   UNL     1       5.140   6.319  16.070  0.00  0.00    +0.000 A 
ATOM     30  C   UNL     1       4.337   6.800  17.110  0.00  0.00    +0.000 A 
ENDBRANCH  23  25
ENDBRANCH   6  19
TORSDOF 3
ENDMDL
