MODEL 1
REMARK VINA RESULT:      -7.8      0.000      0.000
REMARK  Name = 
REMARK  8 active torsions:
REMARK  status: ('A' for Active; 'I' for Inactive)
REMARK    1  A    between atoms: C_1  and  C_2
REMARK    2  A    between atoms: C_2  and  C_3
REMARK    3  A    between atoms: C_7  and  N_8
REMARK    4  A    between atoms: C_13  and  C_14
REMARK    5  A    between atoms: C_14  and  N_15
REMARK    6  A    between atoms: N_15  and  C_16
REMARK    7  A    between atoms: C_17  and  C_18
REMARK    8  A    between atoms: C_22  and  C_23
REMARK                            x       y       z     vdW  Elec       q    Type
REMARK                         _______ _______ _______ _____ _____    ______ ____
ROOT
ATOM      1  N   UNL     1       1.848   7.198  18.156  0.00  0.00    +0.000 N 
ATOM      2  C   UNL     1       1.660   5.751  18.434  0.00  0.00    +0.000 C 
ATOM      3  C   UNL     1       3.065   5.233  18.422  0.00  0.00    +0.000 A 
ATOM      4  C   UNL     1       3.822   6.099  17.629  0.00  0.00    +0.000 A 
ATOM      5  C   UNL     1       5.198   5.989  17.492  0.00  0.00    +0.000 A 
ATOM      6  C   UNL     1       5.839   4.967  18.202  0.00  0.00    +0.000 A 
ATOM      7  C   UNL     1       5.075   4.097  19.021  0.00  0.00    +0.000 A 
ATOM      8  C   UNL     1       3.673   4.214  19.144  0.00  0.00    +0.000 A 
ATOM      9  C   UNL     1       2.997   7.288  17.324  0.00  0.00    +0.000 C 
ATOM     10  O   UNL     1       3.374   8.229  16.649  0.00  0.00    +0.000 OA
ENDROOT
BRANCH   1  15
ATOM     11  C   UNL     1       0.792   9.939  20.301  0.00  0.00    +0.000 A 
ATOM     12  C   UNL     1       0.406   9.128  21.388  0.00  0.00    +0.000 A 
ATOM     13  C   UNL     1       0.922   7.849  21.581  0.00  0.00    +0.000 A 
ATOM     14  C   UNL     1       1.733   7.285  20.610  0.00  0.00    +0.000 A 
ATOM     15  C   UNL     1       1.903   7.959  19.395  0.00  0.00    +0.000 A 
ATOM     16  C   UNL     1       1.604   9.327  19.327  0.00  0.00    +0.000 A 
BRANCH  11  18
ATOM     17  C   UNL     1      -0.725  11.451  18.906  0.00  0.00    +0.000 C 
ATOM     18  C   UNL     1       0.214  11.420  20.115  0.00  0.00    +0.000 C 
ATOM     19  C   UNL     1      -0.349  12.117  21.382  0.00  0.00    +0.000 C 
ATOM     20  O   UNL     1       0.799  12.994  21.461  0.00  0.00    +0.000 OA
ATOM     21  C   UNL     1       1.211  12.604  20.131  0.00  0.00    +0.000 C 
ENDBRANCH  11  18
ENDBRANCH   1  15
BRANCH   8  22
ATOM     22  C   UNL     1       2.944   3.314  20.108  0.00  0.00    +0.000 C 
ATOM     23  F   UNL     1       2.364   3.965  21.153  0.00  0.00    +0.000 F 
ATOM     24  F   UNL     1       1.940   2.620  19.504  0.00  0.00    +0.000 F 
ATOM     25  F   UNL     1       3.763   2.379  20.665  0.00  0.00    +0.000 F 
ENDBRANCH   8  22
BRANCH   6  26
ATOM     26  C   UNL     1       7.347   4.834  18.160  0.00  0.00    +0.000 C 
BRANCH  26  27
ATOM     27  N   UNL     1       7.756   4.311  16.877  0.00  0.00    +0.000 N 
ATOM     28  H   UNL     1       8.549   3.675  16.865  0.00  0.00    +0.000 HD
BRANCH  27  29
ATOM     29  C   UNL     1       7.279   4.699  15.657  0.00  0.00    +0.000 C 
ATOM     30  C   UNL     1       6.593   3.921  14.810  0.00  0.00    +0.000 C 
BRANCH  30  31
ATOM     31  C   UNL     1       6.075   4.322  13.500  0.00  0.00    +0.000 C 
ATOM     32  C   UNL     1       5.310   3.306  12.698  0.00  0.00    +0.000 C 
ATOM     33  C   UNL     1       6.680   3.718  12.262  0.00  0.00    +0.000 C 
ENDBRANCH  30  31
ENDBRANCH  27  29
ENDBRANCH  26  27
ENDBRANCH   6  26
TORSDOF 7
ENDMDL
MODEL 2
REMARK VINA RESULT:      -7.8      2.973      4.240
REMARK  Name = 
REMARK  8 active torsions:
REMARK  status: ('A' for Active; 'I' for Inactive)
REMARK    1  A    between atoms: C_1  and  C_2
REMARK    2  A    between atoms: C_2  and  C_3
REMARK    3  A    between atoms: C_7  and  N_8
REMARK    4  A    between atoms: C_13  and  C_14
REMARK    5  A    between atoms: C_14  and  N_15
REMARK    6  A    between atoms: N_15  and  C_16
REMARK    7  A    between atoms: C_17  and  C_18
REMARK    8  A    between atoms: C_22  and  C_23
REMARK                            x       y       z     vdW  Elec       q    Type
REMARK                         _______ _______ _______ _____ _____    ______ ____
ROOT
ATOM      1  N   UNL     1       3.628   5.092  18.731  0.00  0.00    +0.000 N 
ATOM      2  C   UNL     1       5.014   5.555  18.999  0.00  0.00    +0.000 C 
ATOM      3  C   UNL     1       5.680   5.373  17.670  0.00  0.00    +0.000 A 
ATOM      4  C   UNL     1       4.979   4.378  16.985  0.00  0.00    +0.000 A 
ATOM      5  C   UNL     1       5.249   4.034  15.669  0.00  0.00    +0.000 A 
ATOM      6  C   UNL     1       6.264   4.739  15.012  0.00  0.00    +0.000 A 
ATOM      7  C   UNL     1       6.966   5.761  15.700  0.00  0.00    +0.000 A 
ATOM      8  C   UNL     1       6.687   6.096  17.043  0.00  0.00    +0.000 A 
ATOM      9  C   UNL     1       3.741   4.081  17.739  0.00  0.00    +0.000 C 
ATOM     10  O   UNL     1       2.914   3.255  17.399  0.00  0.00    +0.000 OA
ENDROOT
BRANCH   1  15
ATOM     11  C   UNL     1       1.693   8.043  19.613  0.00  0.00    +0.000 A 
ATOM     12  C   UNL     1       2.354   8.916  18.724  0.00  0.00    +0.000 A 
ATOM     13  C   UNL     1       3.019   8.459  17.590  0.00  0.00    +0.000 A 
ATOM     14  C   UNL     1       3.167   7.097  17.386  0.00  0.00    +0.000 A 
ATOM     15  C   UNL     1       2.765   6.215  18.395  0.00  0.00    +0.000 A 
ATOM     16  C   UNL     1       1.878   6.667  19.383  0.00  0.00    +0.000 A 
BRANCH  11  18
ATOM     17  C   UNL     1      -0.162   7.573  21.306  0.00  0.00    +0.000 C 
ATOM     18  C   UNL     1       0.904   8.591  20.893  0.00  0.00    +0.000 C 
ATOM     19  C   UNL     1       1.763   9.132  22.066  0.00  0.00    +0.000 C 
ATOM     20  O   UNL     1       1.410  10.499  21.750  0.00  0.00    +0.000 OA
ATOM     21  C   UNL     1       0.366  10.042  20.859  0.00  0.00    +0.000 C 
ENDBRANCH  11  18
ENDBRANCH   1  15
BRANCH   8  22
ATOM     22  C   UNL     1       7.409   7.257  17.675  0.00  0.00    +0.000 C 
ATOM     23  F   UNL     1       6.603   8.301  18.012  0.00  0.00    +0.000 F 
ATOM     24  F   UNL     1       8.049   6.902  18.822  0.00  0.00    +0.000 F 
ATOM     25  F   UNL     1       8.366   7.779  16.858  0.00  0.00    +0.000 F 
ENDBRANCH   8  22
BRANCH   6  26
ATOM     26  C   UNL     1       6.562   4.469  13.551  0.00  0.00    +0.000 C 
BRANCH  26  27
ATOM     27  N   UNL     1       6.130   3.136  13.203  0.00  0.00    +0.000 N 
ATOM     28  H   UNL     1       6.641   2.358  13.613  0.00  0.00    +0.000 HD
BRANCH  27  29
ATOM     29  C   UNL     1       5.195   2.809  12.261  0.00  0.00    +0.000 C 
ATOM     30  C   UNL     1       4.339   3.665  11.690  0.00  0.00    +0.000 C 
BRANCH  30  31
ATOM     31  C   UNL     1       3.332   3.332  10.679  0.00  0.00    +0.000 C 
ATOM     32  C   UNL     1       3.720   3.434   9.230  0.00  0.00    +0.000 C 
ATOM     33  C   UNL     1       2.773   4.430   9.818  0.00  0.00    +0.000 C 
ENDBRANCH  30  31
ENDBRANCH  27  29
ENDBRANCH  26  27
ENDBRANCH   6  26
TORSDOF 7
ENDMDL
MODEL 3
REMARK VINA RESULT:      -7.8      4.399      7.831
REMARK  Name = 
REMARK  8 active torsions:
REMARK  status: ('A' for Active; 'I' for Inactive)
REMARK    1  A    between atoms: C_1  and  C_2
REMARK    2  A    between atoms: C_2  and  C_3
REMARK    3  A    between atoms: C_7  and  N_8
REMARK    4  A    between atoms: C_13  and  C_14
REMARK    5  A    between atoms: C_14  and  N_15
REMARK    6  A    between atoms: N_15  and  C_16
REMARK    7  A    between atoms: C_17  and  C_18
REMARK    8  A    between atoms: C_22  and  C_23
REMARK                            x       y       z     vdW  Elec       q    Type
REMARK                         _______ _______ _______ _____ _____    ______ ____
ROOT
ATOM      1  N   UNL     1      -2.263  13.522  22.054  0.00  0.00    +0.000 N 
ATOM      2  C   UNL     1      -0.842  13.861  21.783  0.00  0.00    +0.000 C 
ATOM      3  C   UNL     1      -0.191  12.514  21.732  0.00  0.00    +0.000 A 
ATOM      4  C   UNL     1      -0.976  11.642  22.491  0.00  0.00    +0.000 A 
ATOM      5  C   UNL     1      -0.734  10.278  22.565  0.00  0.00    +0.000 A 
ATOM      6  C   UNL     1       0.342   9.772  21.827  0.00  0.00    +0.000 A 
ATOM      7  C   UNL     1       1.130  10.652  21.042  0.00  0.00    +0.000 A 
ATOM      8  C   UNL     1       0.878  12.040  20.982  0.00  0.00    +0.000 A 
ATOM      9  C   UNL     1      -2.237  12.334  22.833  0.00  0.00    +0.000 C 
ATOM     10  O   UNL     1      -3.134  11.838  23.492  0.00  0.00    +0.000 OA
ENDROOT
BRANCH   1  15
ATOM     11  C   UNL     1      -3.207  11.885  18.946  0.00  0.00    +0.000 A 
ATOM     12  C   UNL     1      -4.588  11.840  19.224  0.00  0.00    +0.000 A 
ATOM     13  C   UNL     1      -5.197  12.719  20.116  0.00  0.00    +0.000 A 
ATOM     14  C   UNL     1      -4.415  13.580  20.868  0.00  0.00    +0.000 A 
ATOM     15  C   UNL     1      -3.022  13.450  20.814  0.00  0.00    +0.000 A 
ATOM     16  C   UNL     1      -2.442  12.761  19.740  0.00  0.00    +0.000 A 
BRANCH  11  18
ATOM     17  C   UNL     1      -1.098  10.578  18.332  0.00  0.00    +0.000 C 
ATOM     18  C   UNL     1      -2.531  10.888  17.892  0.00  0.00    +0.000 C 
ATOM     19  C   UNL     1      -3.358   9.643  17.476  0.00  0.00    +0.000 C 
ATOM     20  O   UNL     1      -3.635  10.209  16.174  0.00  0.00    +0.000 OA
ATOM     21  C   UNL     1      -2.635  11.232  16.386  0.00  0.00    +0.000 C 
ENDBRANCH  11  18
ENDBRANCH   1  15
BRANCH   8  22
ATOM     22  C   UNL     1       1.698  12.894  20.052  0.00  0.00    +0.000 C 
ATOM     23  F   UNL     1       0.974  13.798  19.336  0.00  0.00    +0.000 F 
ATOM     24  F   UNL     1       2.639  13.621  20.716  0.00  0.00    +0.000 F 
ATOM     25  F   UNL     1       2.378  12.155  19.131  0.00  0.00    +0.000 F 
ENDBRANCH   8  22
BRANCH   6  26
ATOM     26  C   UNL     1       0.619   8.282  21.800  0.00  0.00    +0.000 C 
BRANCH  26  27
ATOM     27  N   UNL     1       1.853   8.028  21.093  0.00  0.00    +0.000 N 
ATOM     28  H   UNL     1       2.714   8.346  21.529  0.00  0.00    +0.000 HD
BRANCH  27  29
ATOM     29  C   UNL     1       1.970   7.534  19.824  0.00  0.00    +0.000 C 
ATOM     30  C   UNL     1       2.425   6.316  19.506  0.00  0.00    +0.000 C 
BRANCH  30  31
ATOM     31  C   UNL     1       2.557   5.772  18.152  0.00  0.00    +0.000 C 
ATOM     32  C   UNL     1       1.790   4.525  17.811  0.00  0.00    +0.000 C 
ATOM     33  C   UNL     1       3.277   4.466  17.959  0.00  0.00    +0.000 C 
ENDBRANCH  30  31
ENDBRANCH  27  29
ENDBRANCH  26  27
ENDBRANCH   6  26
TORSDOF 7
ENDMDL
MODEL 4
REMARK VINA RESULT:      -7.8      3.742      9.219
REMARK  Name = 
REMARK  8 active torsions:
REMARK  status: ('A' for Active; 'I' for Inactive)
REMARK    1  A    between atoms: C_1  and  C_2
REMARK    2  A    between atoms: C_2  and  C_3
REMARK    3  A    between atoms: C_7  and  N_8
REMARK    4  A    between atoms: C_13  and  C_14
REMARK    5  A    between atoms: C_14  and  N_15
REMARK    6  A    between atoms: N_15  and  C_16
REMARK    7  A    between atoms: C_17  and  C_18
REMARK    8  A    between atoms: C_22  and  C_23
REMARK                            x       y       z     vdW  Elec       q    Type
REMARK                         _______ _______ _______ _____ _____    ______ ____
ROOT
ATOM      1  N   UNL     1       2.495   7.948  19.342  0.00  0.00    +0.000 N 
ATOM      2  C   UNL     1       2.098   8.747  20.529  0.00  0.00    +0.000 C 
ATOM      3  C   UNL     1       0.888   9.479  20.038  0.00  0.00    +0.000 A 
ATOM      4  C   UNL     1       0.992   9.574  18.648  0.00  0.00    +0.000 A 
ATOM      5  C   UNL     1      -0.016  10.090  17.848  0.00  0.00    +0.000 A 
ATOM      6  C   UNL     1      -1.190  10.514  18.482  0.00  0.00    +0.000 A 
ATOM      7  C   UNL     1      -1.306  10.403  19.891  0.00  0.00    +0.000 A 
ATOM      8  C   UNL     1      -0.268   9.885  20.695  0.00  0.00    +0.000 A 
ATOM      9  C   UNL     1       2.117   8.720  18.210  0.00  0.00    +0.000 C 
ATOM     10  O   UNL     1       2.466   8.588  17.050  0.00  0.00    +0.000 OA
ENDROOT
BRANCH   1  15
ATOM     11  C   UNL     1       2.710   4.340  18.936  0.00  0.00    +0.000 A 
ATOM     12  C   UNL     1       2.360   4.027  20.266  0.00  0.00    +0.000 A 
ATOM     13  C   UNL     1       1.631   4.901  21.068  0.00  0.00    +0.000 A 
ATOM     14  C   UNL     1       1.354   6.179  20.611  0.00  0.00    +0.000 A 
ATOM     15  C   UNL     1       1.932   6.607  19.410  0.00  0.00    +0.000 A 
ATOM     16  C   UNL     1       2.426   5.651  18.512  0.00  0.00    +0.000 A 
BRANCH  11  18
ATOM     17  C   UNL     1       4.212   4.069  16.886  0.00  0.00    +0.000 C 
ATOM     18  C   UNL     1       3.518   3.307  18.017  0.00  0.00    +0.000 C 
ATOM     19  C   UNL     1       4.423   2.280  18.748  0.00  0.00    +0.000 C 
ATOM     20  O   UNL     1       3.498   1.203  18.468  0.00  0.00    +0.000 OA
ATOM     21  C   UNL     1       2.786   2.035  17.524  0.00  0.00    +0.000 C 
ENDBRANCH  11  18
ENDBRANCH   1  15
BRANCH   8  22
ATOM     22  C   UNL     1      -0.502   9.709  22.172  0.00  0.00    +0.000 C 
ATOM     23  F   UNL     1       0.608   9.884  22.941  0.00  0.00    +0.000 F 
ATOM     24  F   UNL     1      -1.425  10.585  22.655  0.00  0.00    +0.000 F 
ATOM     25  F   UNL     1      -0.970   8.466  22.479  0.00  0.00    +0.000 F 
ENDBRANCH   8  22
BRANCH   6  26
ATOM     26  C   UNL     1      -2.363  11.017  17.665  0.00  0.00    +0.000 C 
BRANCH  26  27
ATOM     27  N   UNL     1      -3.143  11.945  18.450  0.00  0.00    +0.000 N 
ATOM     28  H   UNL     1      -2.643  12.706  18.904  0.00  0.00    +0.000 HD
BRANCH  27  29
ATOM     29  C   UNL     1      -4.466  11.822  18.769  0.00  0.00    +0.000 C 
ATOM     30  C   UNL     1      -5.303  10.909  18.262  0.00  0.00    +0.000 C 
BRANCH  30  31
ATOM     31  C   UNL     1      -6.723  10.764  18.593  0.00  0.00    +0.000 C 
ATOM     32  C   UNL     1      -7.142  10.960  20.023  0.00  0.00    +0.000 C 
ATOM     33  C   UNL     1      -7.160   9.590  19.424  0.00  0.00    +0.000 C 
ENDBRANCH  30  31
ENDBRANCH  27  29
ENDBRANCH  26  27
ENDBRANCH   6  26
TORSDOF 7
ENDMDL
MODEL 5
REMARK VINA RESULT:      -7.7      2.515      3.622
REMARK  Name = 
REMARK  8 active torsions:
REMARK  status: ('A' for Active; 'I' for Inactive)
REMARK    1  A    between atoms: C_1  and  C_2
REMARK    2  A    between atoms: C_2  and  C_3
REMARK    3  A    between atoms: C_7  and  N_8
REMARK    4  A    between atoms: C_13  and  C_14
REMARK    5  A    between atoms: C_14  and  N_15
REMARK    6  A    between atoms: N_15  and  C_16
REMARK    7  A    between atoms: C_17  and  C_18
REMARK    8  A    between atoms: C_22  and  C_23
REMARK                            x       y       z     vdW  Elec       q    Type
REMARK                         _______ _______ _______ _____ _____    ______ ____
ROOT
ATOM      1  N   UNL     1       1.908   7.237  18.205  0.00  0.00    +0.000 N 
ATOM      2  C   UNL     1       1.979   5.759  18.342  0.00  0.00    +0.000 C 
ATOM      3  C   UNL     1       3.454   5.500  18.299  0.00  0.00    +0.000 A 
ATOM      4  C   UNL     1       4.043   6.557  17.601  0.00  0.00    +0.000 A 
ATOM      5  C   UNL     1       5.416   6.705  17.472  0.00  0.00    +0.000 A 
ATOM      6  C   UNL     1       6.230   5.748  18.089  0.00  0.00    +0.000 A 
ATOM      7  C   UNL     1       5.635   4.683  18.812  0.00  0.00    +0.000 A 
ATOM      8  C   UNL     1       4.235   4.539  18.929  0.00  0.00    +0.000 A 
ATOM      9  C   UNL     1       3.019   7.606  17.400  0.00  0.00    +0.000 C 
ATOM     10  O   UNL     1       3.222   8.659  16.822  0.00  0.00    +0.000 OA
ENDROOT
BRANCH   1  15
ATOM     11  C   UNL     1       0.518   9.666  20.528  0.00  0.00    +0.000 A 
ATOM     12  C   UNL     1       0.139   8.725  21.507  0.00  0.00    +0.000 A 
ATOM     13  C   UNL     1       0.744   7.475  21.611  0.00  0.00    +0.000 A 
ATOM     14  C   UNL     1       1.650   7.071  20.644  0.00  0.00    +0.000 A 
ATOM     15  C   UNL     1       1.833   7.874  19.512  0.00  0.00    +0.000 A 
ATOM     16  C   UNL     1       1.430   9.216  19.554  0.00  0.00    +0.000 A 
BRANCH  11  18
ATOM     17  C   UNL     1      -0.939  11.234  19.132  0.00  0.00    +0.000 C 
ATOM     18  C   UNL     1      -0.165  11.111  20.447  0.00  0.00    +0.000 C 
ATOM     19  C   UNL     1      -0.947  11.588  21.699  0.00  0.00    +0.000 C 
ATOM     20  O   UNL     1       0.095  12.530  22.045  0.00  0.00    +0.000 OA
ATOM     21  C   UNL     1       0.709  12.354  20.747  0.00  0.00    +0.000 C 
ENDBRANCH  11  18
ENDBRANCH   1  15
BRANCH   8  22
ATOM     22  C   UNL     1       3.680   3.438  19.793  0.00  0.00    +0.000 C 
ATOM     23  F   UNL     1       2.803   2.614  19.157  0.00  0.00    +0.000 F 
ATOM     24  F   UNL     1       4.658   2.626  20.282  0.00  0.00    +0.000 F 
ATOM     25  F   UNL     1       3.014   3.917  20.880  0.00  0.00    +0.000 F 
ENDBRANCH   8  22
BRANCH   6  26
ATOM     26  C   UNL     1       7.738   5.888  18.055  0.00  0.00    +0.000 C 
BRANCH  26  27
ATOM     27  N   UNL     1       8.131   7.101  18.733  0.00  0.00    +0.000 N 
ATOM     28  H   UNL     1       8.209   7.064  19.747  0.00  0.00    +0.000 HD
BRANCH  27  29
ATOM     29  C   UNL     1       8.268   8.337  18.167  0.00  0.00    +0.000 C 
ATOM     30  C   UNL     1       8.873   9.387  18.735  0.00  0.00    +0.000 C 
BRANCH  30  31
ATOM     31  C   UNL     1       9.028  10.717  18.141  0.00  0.00    +0.000 C 
ATOM     32  C   UNL     1      10.391  11.351  18.165  0.00  0.00    +0.000 C 
ATOM     33  C   UNL     1       9.305  11.889  19.042  0.00  0.00    +0.000 C 
ENDBRANCH  30  31
ENDBRANCH  27  29
ENDBRANCH  26  27
ENDBRANCH   6  26
TORSDOF 7
ENDMDL
MODEL 6
REMARK VINA RESULT:      -7.7      4.017      6.901
REMARK  Name = 
REMARK  8 active torsions:
REMARK  status: ('A' for Active; 'I' for Inactive)
REMARK    1  A    between atoms: C_1  and  C_2
REMARK    2  A    between atoms: C_2  and  C_3
REMARK    3  A    between atoms: C_7  and  N_8
REMARK    4  A    between atoms: C_13  and  C_14
REMARK    5  A    between atoms: C_14  and  N_15
REMARK    6  A    between atoms: N_15  and  C_16
REMARK    7  A    between atoms: C_17  and  C_18
REMARK    8  A    between atoms: C_22  and  C_23
REMARK                            x       y       z     vdW  Elec       q    Type
REMARK                         _______ _______ _______ _____ _____    ______ ____
ROOT
ATOM      1  N   UNL     1       0.095  13.634  20.439  0.00  0.00    +0.000 N 
ATOM      2  C   UNL     1      -0.942  13.332  19.419  0.00  0.00    +0.000 C 
ATOM      3  C   UNL     1      -0.430  12.068  18.801  0.00  0.00    +0.000 A 
ATOM      4  C   UNL     1       0.955  12.044  18.984  0.00  0.00    +0.000 A 
ATOM      5  C   UNL     1       1.744  10.958  18.638  0.00  0.00    +0.000 A 
ATOM      6  C   UNL     1       1.101   9.839  18.097  0.00  0.00    +0.000 A 
ATOM      7  C   UNL     1      -0.307   9.853  17.925  0.00  0.00    +0.000 A 
ATOM      8  C   UNL     1      -1.098  10.970  18.273  0.00  0.00    +0.000 A 
ATOM      9  C   UNL     1       1.317  13.141  19.908  0.00  0.00    +0.000 C 
ATOM     10  O   UNL     1       2.455  13.385  20.268  0.00  0.00    +0.000 OA
ENDROOT
BRANCH   1  15
ATOM     11  C   UNL     1      -2.359  12.914  23.025  0.00  0.00    +0.000 A 
ATOM     12  C   UNL     1      -2.103  11.528  23.082  0.00  0.00    +0.000 A 
ATOM     13  C   UNL     1      -0.890  10.980  22.674  0.00  0.00    +0.000 A 
ATOM     14  C   UNL     1       0.054  11.786  22.060  0.00  0.00    +0.000 A 
ATOM     15  C   UNL     1      -0.290  13.105  21.740  0.00  0.00    +0.000 A 
ATOM     16  C   UNL     1      -1.385  13.700  22.381  0.00  0.00    +0.000 A 
BRANCH  11  18
ATOM     17  C   UNL     1      -3.506  14.934  24.092  0.00  0.00    +0.000 C 
ATOM     18  C   UNL     1      -3.747  13.530  23.531  0.00  0.00    +0.000 C 
ATOM     19  C   UNL     1      -4.955  13.425  22.563  0.00  0.00    +0.000 C 
ATOM     20  O   UNL     1      -5.567  12.392  23.369  0.00  0.00    +0.000 OA
ATOM     21  C   UNL     1      -4.644  12.663  24.449  0.00  0.00    +0.000 C 
ENDBRANCH  11  18
ENDBRANCH   1  15
BRANCH   8  22
ATOM     22  C   UNL     1      -2.596  10.874  18.151  0.00  0.00    +0.000 C 
ATOM     23  F   UNL     1      -3.278  11.369  19.220  0.00  0.00    +0.000 F 
ATOM     24  F   UNL     1      -3.068  11.551  17.069  0.00  0.00    +0.000 F 
ATOM     25  F   UNL     1      -3.023   9.589  18.004  0.00  0.00    +0.000 F 
ENDBRANCH   8  22
BRANCH   6  26
ATOM     26  C   UNL     1       1.889   8.587  17.767  0.00  0.00    +0.000 C 
BRANCH  26  27
ATOM     27  N   UNL     1       2.223   7.886  18.985  0.00  0.00    +0.000 N 
ATOM     28  H   UNL     1       2.264   8.433  19.841  0.00  0.00    +0.000 HD
BRANCH  27  29
ATOM     29  C   UNL     1       2.636   6.587  19.083  0.00  0.00    +0.000 C 
ATOM     30  C   UNL     1       2.690   5.713  18.071  0.00  0.00    +0.000 C 
BRANCH  30  31
ATOM     31  C   UNL     1       3.130   4.319  18.159  0.00  0.00    +0.000 C 
ATOM     32  C   UNL     1       4.604   4.046  18.279  0.00  0.00    +0.000 C 
ATOM     33  C   UNL     1       3.888   3.720  17.006  0.00  0.00    +0.000 C 
ENDBRANCH  30  31
ENDBRANCH  27  29
ENDBRANCH  26  27
ENDBRANCH   6  26
TORSDOF 7
ENDMDL
MODEL 7
REMARK VINA RESULT:      -7.7      0.692      1.038
REMARK  Name = 
REMARK  8 active torsions:
REMARK  status: ('A' for Active; 'I' for Inactive)
REMARK    1  A    between atoms: C_1  and  C_2
REMARK    2  A    between atoms: C_2  and  C_3
REMARK    3  A    between atoms: C_7  and  N_8
REMARK    4  A    between atoms: C_13  and  C_14
REMARK    5  A    between atoms: C_14  and  N_15
REMARK    6  A    between atoms: N_15  and  C_16
REMARK    7  A    between atoms: C_17  and  C_18
REMARK    8  A    between atoms: C_22  and  C_23
REMARK                            x       y       z     vdW  Elec       q    Type
REMARK                         _______ _______ _______ _____ _____    ______ ____
ROOT
ATOM      1  N   UNL     1       1.801   7.409  18.189  0.00  0.00    +0.000 N 
ATOM      2  C   UNL     1       1.621   5.953  18.422  0.00  0.00    +0.000 C 
ATOM      3  C   UNL     1       3.030   5.447  18.414  0.00  0.00    +0.000 A 
ATOM      4  C   UNL     1       3.790   6.341  17.655  0.00  0.00    +0.000 A 
ATOM      5  C   UNL     1       5.168   6.246  17.533  0.00  0.00    +0.000 A 
ATOM      6  C   UNL     1       5.808   5.208  18.221  0.00  0.00    +0.000 A 
ATOM      7  C   UNL     1       5.041   4.309  19.005  0.00  0.00    +0.000 A 
ATOM      8  C   UNL     1       3.638   4.412  19.114  0.00  0.00    +0.000 A 
ATOM      9  C   UNL     1       2.959   7.532  17.374  0.00  0.00    +0.000 C 
ATOM     10  O   UNL     1       3.337   8.495  16.731  0.00  0.00    +0.000 OA
ENDROOT
BRANCH   1  15
ATOM     11  C   UNL     1       0.531   9.921  20.493  0.00  0.00    +0.000 A 
ATOM     12  C   UNL     1       0.327   9.034  21.570  0.00  0.00    +0.000 A 
ATOM     13  C   UNL     1       1.017   7.831  21.684  0.00  0.00    +0.000 A 
ATOM     14  C   UNL     1       1.832   7.409  20.646  0.00  0.00    +0.000 A 
ATOM     15  C   UNL     1       1.834   8.135  19.450  0.00  0.00    +0.000 A 
ATOM     16  C   UNL     1       1.353   9.452  19.450  0.00  0.00    +0.000 A 
BRANCH  11  18
ATOM     17  C   UNL     1      -0.667  11.761  21.800  0.00  0.00    +0.000 C 
ATOM     18  C   UNL     1      -0.247  11.316  20.397  0.00  0.00    +0.000 C 
ATOM     19  C   UNL     1       0.413  12.429  19.541  0.00  0.00    +0.000 C 
ATOM     20  O   UNL     1      -0.563  12.258  18.487  0.00  0.00    +0.000 OA
ATOM     21  C   UNL     1      -1.388  11.450  19.359  0.00  0.00    +0.000 C 
ENDBRANCH  11  18
ENDBRANCH   1  15
BRANCH   8  22
ATOM     22  C   UNL     1       2.904   3.479  20.041  0.00  0.00    +0.000 C 
ATOM     23  F   UNL     1       2.358   4.086  21.131  0.00  0.00    +0.000 F 
ATOM     24  F   UNL     1       1.873   2.843  19.421  0.00  0.00    +0.000 F 
ATOM     25  F   UNL     1       3.709   2.496  20.532  0.00  0.00    +0.000 F 
ENDBRANCH   8  22
BRANCH   6  26
ATOM     26  C   UNL     1       7.318   5.089  18.195  0.00  0.00    +0.000 C 
BRANCH  26  27
ATOM     27  N   UNL     1       7.734   4.425  16.981  0.00  0.00    +0.000 N 
ATOM     28  H   UNL     1       8.454   3.711  17.064  0.00  0.00    +0.000 HD
BRANCH  27  29
ATOM     29  C   UNL     1       7.365   4.759  15.709  0.00  0.00    +0.000 C 
ATOM     30  C   UNL     1       6.581   4.024  14.911  0.00  0.00    +0.000 C 
BRANCH  30  31
ATOM     31  C   UNL     1       6.176   4.369  13.547  0.00  0.00    +0.000 C 
ATOM     32  C   UNL     1       5.811   3.251  12.610  0.00  0.00    +0.000 C 
ATOM     33  C   UNL     1       7.085   4.008  12.404  0.00  0.00    +0.000 C 
ENDBRANCH  30  31
ENDBRANCH  27  29
ENDBRANCH  26  27
ENDBRANCH   6  26
TORSDOF 7
ENDMDL
MODEL 8
REMARK VINA RESULT:      -7.7      6.518     10.326
REMARK  Name = 
REMARK  8 active torsions:
REMARK  status: ('A' for Active; 'I' for Inactive)
REMARK    1  A    between atoms: C_1  and  C_2
REMARK    2  A    between atoms: C_2  and  C_3
REMARK    3  A    between atoms: C_7  and  N_8
REMARK    4  A    between atoms: C_13  and  C_14
REMARK    5  A    between atoms: C_14  and  N_15
REMARK    6  A    between atoms: N_15  and  C_16
REMARK    7  A    between atoms: C_17  and  C_18
REMARK    8  A    between atoms: C_22  and  C_23
REMARK                            x       y       z     vdW  Elec       q    Type
REMARK                         _______ _______ _______ _____ _____    ______ ____
ROOT
ATOM      1  N   UNL     1      -0.426  11.141  18.405  0.00  0.00    +0.000 N 
ATOM      2  C   UNL     1       0.311  10.391  19.455  0.00  0.00    +0.000 C 
ATOM      3  C   UNL     1      -0.096  11.103  20.708  0.00  0.00    +0.000 A 
ATOM      4  C   UNL     1      -0.455  12.405  20.350  0.00  0.00    +0.000 A 
ATOM      5  C   UNL     1      -0.998  13.312  21.248  0.00  0.00    +0.000 A 
ATOM      6  C   UNL     1      -1.201  12.878  22.563  0.00  0.00    +0.000 A 
ATOM      7  C   UNL     1      -0.853  11.551  22.925  0.00  0.00    +0.000 A 
ATOM      8  C   UNL     1      -0.292  10.640  22.003  0.00  0.00    +0.000 A 
ATOM      9  C   UNL     1      -0.516  12.479  18.874  0.00  0.00    +0.000 C 
ATOM     10  O   UNL     1      -0.802  13.485  18.250  0.00  0.00    +0.000 OA
ENDROOT
BRANCH   1  15
ATOM     11  C   UNL     1      -4.024  11.185  17.875  0.00  0.00    +0.000 A 
ATOM     12  C   UNL     1      -3.983  10.629  16.580  0.00  0.00    +0.000 A 
ATOM     13  C   UNL     1      -2.917   9.850  16.139  0.00  0.00    +0.000 A 
ATOM     14  C   UNL     1      -1.789   9.721  16.932  0.00  0.00    +0.000 A 
ATOM     15  C   UNL     1      -1.691  10.491  18.098  0.00  0.00    +0.000 A 
ATOM     16  C   UNL     1      -2.854  11.048  18.647  0.00  0.00    +0.000 A 
BRANCH  11  18
ATOM     17  C   UNL     1      -5.846  12.845  17.200  0.00  0.00    +0.000 C 
ATOM     18  C   UNL     1      -5.274  12.050  18.377  0.00  0.00    +0.000 C 
ATOM     19  C   UNL     1      -6.339  11.312  19.230  0.00  0.00    +0.000 C 
ATOM     20  O   UNL     1      -5.894  11.976  20.436  0.00  0.00    +0.000 OA
ATOM     21  C   UNL     1      -5.108  12.906  19.656  0.00  0.00    +0.000 C 
ENDBRANCH  11  18
ENDBRANCH   1  15
BRANCH   8  22
ATOM     22  C   UNL     1      -0.039   9.220  22.437  0.00  0.00    +0.000 C 
ATOM     23  F   UNL     1      -0.317   8.976  23.747  0.00  0.00    +0.000 F 
ATOM     24  F   UNL     1      -0.783   8.326  21.731  0.00  0.00    +0.000 F 
ATOM     25  F   UNL     1       1.260   8.848  22.260  0.00  0.00    +0.000 F 
ENDBRANCH   8  22
BRANCH   6  26
ATOM     26  C   UNL     1      -1.860  13.789  23.578  0.00  0.00    +0.000 C 
BRANCH  26  27
ATOM     27  N   UNL     1      -3.204  14.104  23.151  0.00  0.00    +0.000 N 
ATOM     28  H   UNL     1      -3.305  14.684  22.322  0.00  0.00    +0.000 HD
BRANCH  27  29
ATOM     29  C   UNL     1      -4.355  13.824  23.832  0.00  0.00    +0.000 C 
ATOM     30  C   UNL     1      -5.322  12.999  23.412  0.00  0.00    +0.000 C 
BRANCH  30  31
ATOM     31  C   UNL     1      -6.561  12.688  24.129  0.00  0.00    +0.000 C 
ATOM     32  C   UNL     1      -7.716  12.132  23.344  0.00  0.00    +0.000 C 
ATOM     33  C   UNL     1      -7.781  13.530  23.874  0.00  0.00    +0.000 C 
ENDBRANCH  30  31
ENDBRANCH  27  29
ENDBRANCH  26  27
ENDBRANCH   6  26
TORSDOF 7
ENDMDL
MODEL 9
REMARK VINA RESULT:      -7.7      4.096      6.902
REMARK  Name = 
REMARK  8 active torsions:
REMARK  status: ('A' for Active; 'I' for Inactive)
REMARK    1  A    between atoms: C_1  and  C_2
REMARK    2  A    between atoms: C_2  and  C_3
REMARK    3  A    between atoms: C_7  and  N_8
REMARK    4  A    between atoms: C_13  and  C_14
REMARK    5  A    between atoms: C_14  and  N_15
REMARK    6  A    between atoms: N_15  and  C_16
REMARK    7  A    between atoms: C_17  and  C_18
REMARK    8  A    between atoms: C_22  and  C_23
REMARK                            x       y       z     vdW  Elec       q    Type
REMARK                         _______ _______ _______ _____ _____    ______ ____
ROOT
ATOM      1  N   UNL     1       0.133  13.616  20.419  0.00  0.00    +0.000 N 
ATOM      2  C   UNL     1      -0.915  13.317  19.410  0.00  0.00    +0.000 C 
ATOM      3  C   UNL     1      -0.409  12.058  18.778  0.00  0.00    +0.000 A 
ATOM      4  C   UNL     1       0.979  12.036  18.944  0.00  0.00    +0.000 A 
ATOM      5  C   UNL     1       1.766  10.953  18.583  0.00  0.00    +0.000 A 
ATOM      6  C   UNL     1       1.119   9.836  18.044  0.00  0.00    +0.000 A 
ATOM      7  C   UNL     1      -0.291   9.848  17.889  0.00  0.00    +0.000 A 
ATOM      8  C   UNL     1      -1.080  10.961  18.253  0.00  0.00    +0.000 A 
ATOM      9  C   UNL     1       1.350  13.128  19.870  0.00  0.00    +0.000 C 
ATOM     10  O   UNL     1       2.492  13.373  20.217  0.00  0.00    +0.000 OA
ENDROOT
BRANCH   1  15
ATOM     11  C   UNL     1      -2.262  12.981  23.081  0.00  0.00    +0.000 A 
ATOM     12  C   UNL     1      -2.089  11.582  23.097  0.00  0.00    +0.000 A 
ATOM     13  C   UNL     1      -0.928  10.971  22.629  0.00  0.00    +0.000 A 
ATOM     14  C   UNL     1       0.039  11.734  21.998  0.00  0.00    +0.000 A 
ATOM     15  C   UNL     1      -0.234  13.079  21.721  0.00  0.00    +0.000 A 
ATOM     16  C   UNL     1      -1.266  13.723  22.418  0.00  0.00    +0.000 A 
BRANCH  11  18
ATOM     17  C   UNL     1      -4.321  12.677  24.565  0.00  0.00    +0.000 C 
ATOM     18  C   UNL     1      -3.590  13.668  23.655  0.00  0.00    +0.000 C 
ATOM     19  C   UNL     1      -3.441  15.094  24.247  0.00  0.00    +0.000 C 
ATOM     20  O   UNL     1      -4.099  15.685  23.102  0.00  0.00    +0.000 OA
ATOM     21  C   UNL     1      -4.537  14.380  22.658  0.00  0.00    +0.000 C 
ENDBRANCH  11  18
ENDBRANCH   1  15
BRANCH   8  22
ATOM     22  C   UNL     1      -2.579  10.862  18.149  0.00  0.00    +0.000 C 
ATOM     23  F   UNL     1      -3.046   9.598  17.963  0.00  0.00    +0.000 F 
ATOM     24  F   UNL     1      -3.203  11.324  19.267  0.00  0.00    +0.000 F 
ATOM     25  F   UNL     1      -3.076  11.595  17.113  0.00  0.00    +0.000 F 
ENDBRANCH   8  22
BRANCH   6  26
ATOM     26  C   UNL     1       1.906   8.588  17.698  0.00  0.00    +0.000 C 
BRANCH  26  27
ATOM     27  N   UNL     1       2.292   7.903  18.909  0.00  0.00    +0.000 N 
ATOM     28  H   UNL     1       2.345   8.456  19.761  0.00  0.00    +0.000 HD
BRANCH  27  29
ATOM     29  C   UNL     1       2.736   6.614  19.002  0.00  0.00    +0.000 C 
ATOM     30  C   UNL     1       2.252   5.575  18.311  0.00  0.00    +0.000 C 
BRANCH  30  31
ATOM     31  C   UNL     1       2.718   4.189  18.399  0.00  0.00    +0.000 C 
ATOM     32  C   UNL     1       3.916   3.790  17.583  0.00  0.00    +0.000 C 
ATOM     33  C   UNL     1       2.559   3.290  17.204  0.00  0.00    +0.000 C 
ENDBRANCH  30  31
ENDBRANCH  27  29
ENDBRANCH  26  27
ENDBRANCH   6  26
TORSDOF 7
ENDMDL
