MODEL 1
REMARK VINA RESULT:      -9.9      0.000      0.000
REMARK  Name = 
REMARK  4 active torsions:
REMARK  status: ('A' for Active; 'I' for Inactive)
REMARK    1  A    between atoms: C_1  and  C_2
REMARK    2  A    between atoms: C_5  and  C_6
REMARK    3  A    between atoms: C_9  and  C_10
REMARK    4  A    between atoms: C_10  and  N_11
REMARK                            x       y       z     vdW  Elec       q    Type
REMARK                         _______ _______ _______ _____ _____    ______ ____
ROOT
ATOM      1  C   UNL     1       7.739   5.070  18.456  0.00  0.00    +0.000 C 
ENDROOT
BRANCH   1   2
ATOM      2  N   UNL     1       6.488   4.451  18.062  0.00  0.00    +0.000 NA
ATOM      3  C   UNL     1       6.140   4.297  16.654  0.00  0.00    +0.000 C 
ATOM      4  C   UNL     1       4.602   4.535  16.572  0.00  0.00    +0.000 C 
ATOM      5  C   UNL     1       4.174   4.193  18.001  0.00  0.00    +0.000 C 
ATOM      6  C   UNL     1       5.300   4.885  18.780  0.00  0.00    +0.000 C 
ATOM      7  O   UNL     1       4.236   2.722  18.041  0.00  0.00    +0.000 OA
ATOM      8  C   UNL     1       2.903   2.236  17.780  0.00  0.00    +0.000 C 
ATOM      9  C   UNL     1       2.125   3.201  18.600  0.00  0.00    +0.000 A 
ATOM     10  C   UNL     1       1.064   2.906  19.442  0.00  0.00    +0.000 A 
ATOM     11  C   UNL     1       0.775   3.811  20.461  0.00  0.00    +0.000 A 
ATOM     12  C   UNL     1       1.494   5.011  20.567  0.00  0.00    +0.000 A 
ATOM     13  C   UNL     1       2.498   5.331  19.644  0.00  0.00    +0.000 A 
ATOM     14  C   UNL     1       2.836   4.398  18.667  0.00  0.00    +0.000 A 
ENDBRANCH   1   2
BRANCH   1  18
ATOM     15  C   UNL     1       8.222   8.617  18.148  0.00  0.00    +0.000 A 
ATOM     16  N   UNL     1       7.516   8.369  17.031  0.00  0.00    +0.000 NA
ATOM     17  O   UNL     1       7.300   6.996  17.075  0.00  0.00    +0.000 OA
ATOM     18  C   UNL     1       7.897   6.535  18.211  0.00  0.00    +0.000 A 
ATOM     19  N   UNL     1       8.484   7.488  18.907  0.00  0.00    +0.000 NA
BRANCH  15  24
ATOM     20  C   UNL     1      10.308  13.859  19.389  0.00  0.00    +0.000 C 
ATOM     21  C   UNL     1       9.712  12.519  19.089  0.00  0.00    +0.000 A 
ATOM     22  C   UNL     1       8.962  12.313  17.932  0.00  0.00    +0.000 A 
ATOM     23  C   UNL     1       8.459  11.041  17.640  0.00  0.00    +0.000 A 
ATOM     24  C   UNL     1       8.698   9.950  18.495  0.00  0.00    +0.000 A 
ATOM     25  C   UNL     1       9.427  10.173  19.671  0.00  0.00    +0.000 A 
ATOM     26  C   UNL     1       9.930  11.447  19.970  0.00  0.00    +0.000 A 
ENDBRANCH  15  24
ENDBRANCH   1  18
TORSDOF 3
ENDMDL
MODEL 2
REMARK VINA RESULT:      -9.7      1.297      1.493
REMARK  Name = 
REMARK  4 active torsions:
REMARK  status: ('A' for Active; 'I' for Inactive)
REMARK    1  A    between atoms: C_1  and  C_2
REMARK    2  A    between atoms: C_5  and  C_6
REMARK    3  A    between atoms: C_9  and  C_10
REMARK    4  A    between atoms: C_10  and  N_11
REMARK                            x       y       z     vdW  Elec       q    Type
REMARK                         _______ _______ _______ _____ _____    ______ ____
ROOT
ATOM      1  C   UNL     1       6.094   6.823  16.778  0.00  0.00    +0.000 C 
ENDROOT
BRANCH   1   2
ATOM      2  N   UNL     1       5.676   5.545  17.321  0.00  0.00    +0.000 NA
ATOM      3  C   UNL     1       5.839   4.316  16.554  0.00  0.00    +0.000 C 
ATOM      4  C   UNL     1       4.586   3.448  16.876  0.00  0.00    +0.000 C 
ATOM      5  C   UNL     1       4.176   4.017  18.236  0.00  0.00    +0.000 C 
ATOM      6  C   UNL     1       4.369   5.513  17.960  0.00  0.00    +0.000 C 
ATOM      7  O   UNL     1       5.166   3.448  19.165  0.00  0.00    +0.000 OA
ATOM      8  C   UNL     1       4.572   2.268  19.747  0.00  0.00    +0.000 C 
ATOM      9  C   UNL     1       3.196   2.777  19.982  0.00  0.00    +0.000 A 
ATOM     10  C   UNL     1       2.427   2.591  21.120  0.00  0.00    +0.000 A 
ATOM     11  C   UNL     1       1.400   3.501  21.364  0.00  0.00    +0.000 A 
ATOM     12  C   UNL     1       1.120   4.517  20.439  0.00  0.00    +0.000 A 
ATOM     13  C   UNL     1       1.849   4.625  19.247  0.00  0.00    +0.000 A 
ATOM     14  C   UNL     1       2.920   3.762  19.033  0.00  0.00    +0.000 A 
ENDBRANCH   1   2
BRANCH   1  18
ATOM     15  C   UNL     1       8.477   8.940  18.437  0.00  0.00    +0.000 A 
ATOM     16  N   UNL     1       8.729   7.766  19.042  0.00  0.00    +0.000 NA
ATOM     17  O   UNL     1       7.825   6.889  18.454  0.00  0.00    +0.000 OA
ATOM     18  C   UNL     1       7.103   7.609  17.549  0.00  0.00    +0.000 A 
ATOM     19  N   UNL     1       7.458   8.879  17.500  0.00  0.00    +0.000 NA
BRANCH  15  24
ATOM     20  C   UNL     1      11.503  13.680  19.758  0.00  0.00    +0.000 C 
ATOM     21  C   UNL     1      10.668  12.488  19.406  0.00  0.00    +0.000 A 
ATOM     22  C   UNL     1      10.442  12.143  18.074  0.00  0.00    +0.000 A 
ATOM     23  C   UNL     1       9.707  10.994  17.763  0.00  0.00    +0.000 A 
ATOM     24  C   UNL     1       9.187  10.167  18.774  0.00  0.00    +0.000 A 
ATOM     25  C   UNL     1       9.394  10.537  20.109  0.00  0.00    +0.000 A 
ATOM     26  C   UNL     1      10.127  11.690  20.427  0.00  0.00    +0.000 A 
ENDBRANCH  15  24
ENDBRANCH   1  18
TORSDOF 3
ENDMDL
MODEL 3
REMARK VINA RESULT:      -9.6      1.090      1.425
REMARK  Name = 
REMARK  4 active torsions:
REMARK  status: ('A' for Active; 'I' for Inactive)
REMARK    1  A    between atoms: C_1  and  C_2
REMARK    2  A    between atoms: C_5  and  C_6
REMARK    3  A    between atoms: C_9  and  C_10
REMARK    4  A    between atoms: C_10  and  N_11
REMARK                            x       y       z     vdW  Elec       q    Type
REMARK                         _______ _______ _______ _____ _____    ______ ____
ROOT
ATOM      1  C   UNL     1       7.353   5.664  18.180  0.00  0.00    +0.000 C 
ENDROOT
BRANCH   1   2
ATOM      2  N   UNL     1       5.966   5.353  17.893  0.00  0.00    +0.000 NA
ATOM      3  C   UNL     1       5.209   6.134  16.923  0.00  0.00    +0.000 C 
ATOM      4  C   UNL     1       3.764   6.235  17.497  0.00  0.00    +0.000 C 
ATOM      5  C   UNL     1       3.720   5.003  18.403  0.00  0.00    +0.000 C 
ATOM      6  C   UNL     1       5.110   5.104  19.044  0.00  0.00    +0.000 C 
ATOM      7  O   UNL     1       3.577   3.881  17.461  0.00  0.00    +0.000 OA
ATOM      8  C   UNL     1       2.169   3.575  17.378  0.00  0.00    +0.000 C 
ATOM      9  C   UNL     1       1.809   3.693  18.815  0.00  0.00    +0.000 A 
ATOM     10  C   UNL     1       1.003   2.828  19.540  0.00  0.00    +0.000 A 
ATOM     11  C   UNL     1       1.154   2.811  20.925  0.00  0.00    +0.000 A 
ATOM     12  C   UNL     1       2.039   3.700  21.552  0.00  0.00    +0.000 A 
ATOM     13  C   UNL     1       2.771   4.633  20.804  0.00  0.00    +0.000 A 
ATOM     14  C   UNL     1       2.674   4.605  19.416  0.00  0.00    +0.000 A 
ENDBRANCH   1   2
BRANCH   1  18
ATOM     15  C   UNL     1       8.482   9.071  18.330  0.00  0.00    +0.000 A 
ATOM     16  N   UNL     1       7.653   9.134  17.273  0.00  0.00    +0.000 NA
ATOM     17  O   UNL     1       7.182   7.833  17.144  0.00  0.00    +0.000 OA
ATOM     18  C   UNL     1       7.769   7.097  18.130  0.00  0.00    +0.000 A 
ATOM     19  N   UNL     1       8.583   7.807  18.887  0.00  0.00    +0.000 NA
BRANCH  15  24
ATOM     20  C   UNL     1      11.250  13.773  20.229  0.00  0.00    +0.000 C 
ATOM     21  C   UNL     1      10.582  12.520  19.752  0.00  0.00    +0.000 A 
ATOM     22  C   UNL     1       9.955  11.658  20.652  0.00  0.00    +0.000 A 
ATOM     23  C   UNL     1       9.288  10.522  20.183  0.00  0.00    +0.000 A 
ATOM     24  C   UNL     1       9.232  10.225  18.809  0.00  0.00    +0.000 A 
ATOM     25  C   UNL     1       9.891  11.080  17.916  0.00  0.00    +0.000 A 
ATOM     26  C   UNL     1      10.564  12.219  18.380  0.00  0.00    +0.000 A 
ENDBRANCH  15  24
ENDBRANCH   1  18
TORSDOF 3
ENDMDL
MODEL 4
REMARK VINA RESULT:      -9.0      1.354      1.878
REMARK  Name = 
REMARK  4 active torsions:
REMARK  status: ('A' for Active; 'I' for Inactive)
REMARK    1  A    between atoms: C_1  and  C_2
REMARK    2  A    between atoms: C_5  and  C_6
REMARK    3  A    between atoms: C_9  and  C_10
REMARK    4  A    between atoms: C_10  and  N_11
REMARK                            x       y       z     vdW  Elec       q    Type
REMARK                         _______ _______ _______ _____ _____    ______ ____
ROOT
ATOM      1  C   UNL     1       6.800   5.687  17.112  0.00  0.00    +0.000 C 
ENDROOT
BRANCH   1   2
ATOM      2  N   UNL     1       5.359   5.583  17.239  0.00  0.00    +0.000 NA
ATOM      3  C   UNL     1       4.486   6.652  16.769  0.00  0.00    +0.000 C 
ATOM      4  C   UNL     1       3.316   6.725  17.795  0.00  0.00    +0.000 C 
ATOM      5  C   UNL     1       3.343   5.308  18.372  0.00  0.00    +0.000 C 
ATOM      6  C   UNL     1       4.857   5.118  18.523  0.00  0.00    +0.000 C 
ATOM      7  O   UNL     1       2.741   4.487  17.308  0.00  0.00    +0.000 OA
ATOM      8  C   UNL     1       1.342   4.336  17.630  0.00  0.00    +0.000 C 
ATOM      9  C   UNL     1       1.452   4.105  19.094  0.00  0.00    +0.000 A 
ATOM     10  C   UNL     1       0.769   3.155  19.836  0.00  0.00    +0.000 A 
ATOM     11  C   UNL     1       1.321   2.764  21.055  0.00  0.00    +0.000 A 
ATOM     12  C   UNL     1       2.487   3.379  21.533  0.00  0.00    +0.000 A 
ATOM     13  C   UNL     1       3.106   4.408  20.809  0.00  0.00    +0.000 A 
ATOM     14  C   UNL     1       2.596   4.752  19.560  0.00  0.00    +0.000 A 
ENDBRANCH   1   2
BRANCH   1  18
ATOM     15  C   UNL     1       8.329   8.757  18.183  0.00  0.00    +0.000 A 
ATOM     16  N   UNL     1       8.725   7.931  19.166  0.00  0.00    +0.000 NA
ATOM     17  O   UNL     1       8.154   6.711  18.823  0.00  0.00    +0.000 OA
ATOM     18  C   UNL     1       7.460   6.907  17.666  0.00  0.00    +0.000 A 
ATOM     19  N   UNL     1       7.528   8.150  17.229  0.00  0.00    +0.000 NA
BRANCH  15  24
ATOM     20  C   UNL     1       9.601  14.392  18.285  0.00  0.00    +0.000 C 
ATOM     21  C   UNL     1       9.315  12.923  18.214  0.00  0.00    +0.000 A 
ATOM     22  C   UNL     1      10.112  12.007  18.899  0.00  0.00    +0.000 A 
ATOM     23  C   UNL     1       9.798  10.644  18.868  0.00  0.00    +0.000 A 
ATOM     24  C   UNL     1       8.681  10.171  18.156  0.00  0.00    +0.000 A 
ATOM     25  C   UNL     1       7.903  11.095  17.446  0.00  0.00    +0.000 A 
ATOM     26  C   UNL     1       8.216  12.463  17.471  0.00  0.00    +0.000 A 
ENDBRANCH  15  24
ENDBRANCH   1  18
TORSDOF 3
ENDMDL
MODEL 5
REMARK VINA RESULT:      -9.0      0.425      1.029
REMARK  Name = 
REMARK  4 active torsions:
REMARK  status: ('A' for Active; 'I' for Inactive)
REMARK    1  A    between atoms: C_1  and  C_2
REMARK    2  A    between atoms: C_5  and  C_6
REMARK    3  A    between atoms: C_9  and  C_10
REMARK    4  A    between atoms: C_10  and  N_11
REMARK                            x       y       z     vdW  Elec       q    Type
REMARK                         _______ _______ _______ _____ _____    ______ ____
ROOT
ATOM      1  C   UNL     1       7.656   4.670  18.126  0.00  0.00    +0.000 C 
ENDROOT
BRANCH   1   2
ATOM      2  N   UNL     1       6.351   4.093  17.863  0.00  0.00    +0.000 NA
ATOM      3  C   UNL     1       5.903   3.845  16.499  0.00  0.00    +0.000 C 
ATOM      4  C   UNL     1       4.378   4.163  16.490  0.00  0.00    +0.000 C 
ATOM      5  C   UNL     1       4.028   3.965  17.966  0.00  0.00    +0.000 C 
ATOM      6  C   UNL     1       5.237   4.653  18.613  0.00  0.00    +0.000 C 
ATOM      7  O   UNL     1       4.015   2.502  18.129  0.00  0.00    +0.000 OA
ATOM      8  C   UNL     1       2.643   2.074  17.993  0.00  0.00    +0.000 C 
ATOM      9  C   UNL     1       1.973   3.147  18.772  0.00  0.00    +0.000 A 
ATOM     10  C   UNL     1       0.955   2.984  19.700  0.00  0.00    +0.000 A 
ATOM     11  C   UNL     1       0.782   3.986  20.653  0.00  0.00    +0.000 A 
ATOM     12  C   UNL     1       1.568   5.146  20.612  0.00  0.00    +0.000 A 
ATOM     13  C   UNL     1       2.525   5.331  19.604  0.00  0.00    +0.000 A 
ATOM     14  C   UNL     1       2.749   4.303  18.693  0.00  0.00    +0.000 A 
ENDBRANCH   1   2
BRANCH   1  18
ATOM     15  C   UNL     1       8.168   8.216  17.865  0.00  0.00    +0.000 A 
ATOM     16  N   UNL     1       7.462   7.988  16.744  0.00  0.00    +0.000 NA
ATOM     17  O   UNL     1       7.234   6.617  16.770  0.00  0.00    +0.000 OA
ATOM     18  C   UNL     1       7.826   6.136  17.900  0.00  0.00    +0.000 A 
ATOM     19  N   UNL     1       8.421   7.075  18.609  0.00  0.00    +0.000 NA
BRANCH  15  24
ATOM     20  C   UNL     1       9.928  13.476  19.482  0.00  0.00    +0.000 C 
ATOM     21  C   UNL     1       9.525  12.105  19.031  0.00  0.00    +0.000 A 
ATOM     22  C   UNL     1       9.995  10.970  19.691  0.00  0.00    +0.000 A 
ATOM     23  C   UNL     1       9.564   9.700  19.292  0.00  0.00    +0.000 A 
ATOM     24  C   UNL     1       8.656   9.540  18.230  0.00  0.00    +0.000 A 
ATOM     25  C   UNL     1       8.214  10.684  17.553  0.00  0.00    +0.000 A 
ATOM     26  C   UNL     1       8.645  11.960  17.947  0.00  0.00    +0.000 A 
ENDBRANCH  15  24
ENDBRANCH   1  18
TORSDOF 3
ENDMDL
MODEL 6
REMARK VINA RESULT:      -8.7      1.386      1.721
REMARK  Name = 
REMARK  4 active torsions:
REMARK  status: ('A' for Active; 'I' for Inactive)
REMARK    1  A    between atoms: C_1  and  C_2
REMARK    2  A    between atoms: C_5  and  C_6
REMARK    3  A    between atoms: C_9  and  C_10
REMARK    4  A    between atoms: C_10  and  N_11
REMARK                            x       y       z     vdW  Elec       q    Type
REMARK                         _______ _______ _______ _____ _____    ______ ____
ROOT
ATOM      1  C   UNL     1       6.583   5.893  16.757  0.00  0.00    +0.000 C 
ENDROOT
BRANCH   1   2
ATOM      2  N   UNL     1       5.163   5.766  17.022  0.00  0.00    +0.000 NA
ATOM      3  C   UNL     1       4.249   6.871  16.754  0.00  0.00    +0.000 C 
ATOM      4  C   UNL     1       3.193   6.833  17.899  0.00  0.00    +0.000 C 
ATOM      5  C   UNL     1       3.274   5.365  18.325  0.00  0.00    +0.000 C 
ATOM      6  C   UNL     1       4.796   5.172  18.299  0.00  0.00    +0.000 C 
ATOM      7  O   UNL     1       2.563   4.650  17.254  0.00  0.00    +0.000 OA
ATOM      8  C   UNL     1       1.205   4.458  17.703  0.00  0.00    +0.000 C 
ATOM      9  C   UNL     1       1.466   4.084  19.117  0.00  0.00    +0.000 A 
ATOM     10  C   UNL     1       0.860   3.059  19.828  0.00  0.00    +0.000 A 
ATOM     11  C   UNL     1       1.536   2.553  20.937  0.00  0.00    +0.000 A 
ATOM     12  C   UNL     1       2.747   3.126  21.350  0.00  0.00    +0.000 A 
ATOM     13  C   UNL     1       3.291   4.226  20.672  0.00  0.00    +0.000 A 
ATOM     14  C   UNL     1       2.654   4.688  19.523  0.00  0.00    +0.000 A 
ENDBRANCH   1   2
BRANCH   1  18
ATOM     15  C   UNL     1       8.407   8.487  18.445  0.00  0.00    +0.000 A 
ATOM     16  N   UNL     1       8.645   7.448  19.264  0.00  0.00    +0.000 NA
ATOM     17  O   UNL     1       7.952   6.397  18.675  0.00  0.00    +0.000 OA
ATOM     18  C   UNL     1       7.353   6.893  17.556  0.00  0.00    +0.000 A 
ATOM     19  N   UNL     1       7.594   8.176  17.368  0.00  0.00    +0.000 NA
BRANCH  15  24
ATOM     20  C   UNL     1      10.690  13.706  19.409  0.00  0.00    +0.000 C 
ATOM     21  C   UNL     1      10.041  12.380  19.158  0.00  0.00    +0.000 A 
ATOM     22  C   UNL     1       9.678  11.996  17.868  0.00  0.00    +0.000 A 
ATOM     23  C   UNL     1       9.125  10.730  17.644  0.00  0.00    +0.000 A 
ATOM     24  C   UNL     1       8.927   9.825  18.702  0.00  0.00    +0.000 A 
ATOM     25  C   UNL     1       9.267  10.231  19.998  0.00  0.00    +0.000 A 
ATOM     26  C   UNL     1       9.819  11.499  20.230  0.00  0.00    +0.000 A 
ENDBRANCH  15  24
ENDBRANCH   1  18
TORSDOF 3
ENDMDL
MODEL 7
REMARK VINA RESULT:      -8.3      1.613      2.208
REMARK  Name = 
REMARK  4 active torsions:
REMARK  status: ('A' for Active; 'I' for Inactive)
REMARK    1  A    between atoms: C_1  and  C_2
REMARK    2  A    between atoms: C_5  and  C_6
REMARK    3  A    between atoms: C_9  and  C_10
REMARK    4  A    between atoms: C_10  and  N_11
REMARK                            x       y       z     vdW  Elec       q    Type
REMARK                         _______ _______ _______ _____ _____    ______ ____
ROOT
ATOM      1  C   UNL     1       7.086   6.250  16.908  0.00  0.00    +0.000 C 
ENDROOT
BRANCH   1   2
ATOM      2  N   UNL     1       5.918   5.686  17.557  0.00  0.00    +0.000 NA
ATOM      3  C   UNL     1       5.302   4.463  17.058  0.00  0.00    +0.000 C 
ATOM      4  C   UNL     1       3.767   4.655  17.248  0.00  0.00    +0.000 C 
ATOM      5  C   UNL     1       3.738   5.688  18.377  0.00  0.00    +0.000 C 
ATOM      6  C   UNL     1       4.858   6.622  17.901  0.00  0.00    +0.000 C 
ATOM      7  O   UNL     1       4.081   4.906  19.576  0.00  0.00    +0.000 OA
ATOM      8  C   UNL     1       2.838   4.533  20.207  0.00  0.00    +0.000 C 
ATOM      9  C   UNL     1       2.095   5.811  20.058  0.00  0.00    +0.000 A 
ATOM     10  C   UNL     1       1.320   6.437  21.022  0.00  0.00    +0.000 A 
ATOM     11  C   UNL     1       1.100   7.806  20.888  0.00  0.00    +0.000 A 
ATOM     12  C   UNL     1       1.587   8.495  19.768  0.00  0.00    +0.000 A 
ATOM     13  C   UNL     1       2.284   7.820  18.756  0.00  0.00    +0.000 A 
ATOM     14  C   UNL     1       2.566   6.467  18.921  0.00  0.00    +0.000 A 
ENDBRANCH   1   2
BRANCH   1  18
ATOM     15  C   UNL     1       8.555   9.288  18.142  0.00  0.00    +0.000 A 
ATOM     16  N   UNL     1       8.887   8.437  19.129  0.00  0.00    +0.000 NA
ATOM     17  O   UNL     1       8.335   7.228  18.723  0.00  0.00    +0.000 OA
ATOM     18  C   UNL     1       7.714   7.454  17.530  0.00  0.00    +0.000 A 
ATOM     19  N   UNL     1       7.813   8.705  17.127  0.00  0.00    +0.000 NA
BRANCH  15  24
ATOM     20  C   UNL     1      10.067  14.862  18.033  0.00  0.00    +0.000 C 
ATOM     21  C   UNL     1       9.638  13.429  18.110  0.00  0.00    +0.000 A 
ATOM     22  C   UNL     1       8.435  13.013  17.539  0.00  0.00    +0.000 A 
ATOM     23  C   UNL     1       8.077  11.661  17.571  0.00  0.00    +0.000 A 
ATOM     24  C   UNL     1       8.911  10.700  18.170  0.00  0.00    +0.000 A 
ATOM     25  C   UNL     1      10.102  11.133  18.768  0.00  0.00    +0.000 A 
ATOM     26  C   UNL     1      10.466  12.487  18.742  0.00  0.00    +0.000 A 
ENDBRANCH  15  24
ENDBRANCH   1  18
TORSDOF 3
ENDMDL
MODEL 8
REMARK VINA RESULT:      -8.3      6.080      8.724
REMARK  Name = 
REMARK  4 active torsions:
REMARK  status: ('A' for Active; 'I' for Inactive)
REMARK    1  A    between atoms: C_1  and  C_2
REMARK    2  A    between atoms: C_5  and  C_6
REMARK    3  A    between atoms: C_9  and  C_10
REMARK    4  A    between atoms: C_10  and  N_11
REMARK                            x       y       z     vdW  Elec       q    Type
REMARK                         _______ _______ _______ _____ _____    ______ ____
ROOT
ATOM      1  C   UNL     1       1.202   8.242  21.196  0.00  0.00    +0.000 C 
ENDROOT
BRANCH   1   2
ATOM      2  N   UNL     1       0.489   9.330  20.556  0.00  0.00    +0.000 NA
ATOM      3  C   UNL     1       1.171  10.236  19.639  0.00  0.00    +0.000 C 
ATOM      4  C   UNL     1       0.552  11.642  19.896  0.00  0.00    +0.000 C 
ATOM      5  C   UNL     1      -0.810  11.261  20.480  0.00  0.00    +0.000 C 
ATOM      6  C   UNL     1      -0.382  10.120  21.412  0.00  0.00    +0.000 C 
ATOM      7  O   UNL     1      -1.582  10.818  19.308  0.00  0.00    +0.000 OA
ATOM      8  C   UNL     1      -2.357  11.949  18.859  0.00  0.00    +0.000 C 
ATOM      9  C   UNL     1      -2.802  12.478  20.174  0.00  0.00    +0.000 A 
ATOM     10  C   UNL     1      -4.075  12.919  20.502  0.00  0.00    +0.000 A 
ATOM     11  C   UNL     1      -4.431  12.925  21.849  0.00  0.00    +0.000 A 
ATOM     12  C   UNL     1      -3.496  12.568  22.831  0.00  0.00    +0.000 A 
ATOM     13  C   UNL     1      -2.184  12.220  22.480  0.00  0.00    +0.000 A 
ATOM     14  C   UNL     1      -1.845  12.146  21.132  0.00  0.00    +0.000 A 
ENDBRANCH   1   2
BRANCH   1  18
ATOM     15  C   UNL     1       2.883   6.061  18.888  0.00  0.00    +0.000 A 
ATOM     16  N   UNL     1       2.346   5.160  19.728  0.00  0.00    +0.000 NA
ATOM     17  O   UNL     1       1.682   5.939  20.668  0.00  0.00    +0.000 OA
ATOM     18  C   UNL     1       1.879   7.242  20.317  0.00  0.00    +0.000 A 
ATOM     19  N   UNL     1       2.617   7.376  19.232  0.00  0.00    +0.000 NA
BRANCH  15  24
ATOM     20  C   UNL     1       6.329   4.502  14.520  0.00  0.00    +0.000 C 
ATOM     21  C   UNL     1       5.387   4.902  15.614  0.00  0.00    +0.000 A 
ATOM     22  C   UNL     1       4.677   3.939  16.331  0.00  0.00    +0.000 A 
ATOM     23  C   UNL     1       3.844   4.325  17.386  0.00  0.00    +0.000 A 
ATOM     24  C   UNL     1       3.706   5.678  17.747  0.00  0.00    +0.000 A 
ATOM     25  C   UNL     1       4.400   6.640  17.002  0.00  0.00    +0.000 A 
ATOM     26  C   UNL     1       5.234   6.259  15.941  0.00  0.00    +0.000 A 
ENDBRANCH  15  24
ENDBRANCH   1  18
TORSDOF 3
ENDMDL
MODEL 9
REMARK VINA RESULT:      -8.3      5.148      7.469
REMARK  Name = 
REMARK  4 active torsions:
REMARK  status: ('A' for Active; 'I' for Inactive)
REMARK    1  A    between atoms: C_1  and  C_2
REMARK    2  A    between atoms: C_5  and  C_6
REMARK    3  A    between atoms: C_9  and  C_10
REMARK    4  A    between atoms: C_10  and  N_11
REMARK                            x       y       z     vdW  Elec       q    Type
REMARK                         _______ _______ _______ _____ _____    ______ ____
ROOT
ATOM      1  C   UNL     1       3.425   8.510  17.496  0.00  0.00    +0.000 C 
ENDROOT
BRANCH   1   2
ATOM      2  N   UNL     1       3.807   7.153  17.833  0.00  0.00    +0.000 NA
ATOM      3  C   UNL     1       4.576   6.338  16.900  0.00  0.00    +0.000 C 
ATOM      4  C   UNL     1       4.024   4.888  17.052  0.00  0.00    +0.000 C 
ATOM      5  C   UNL     1       3.444   4.941  18.467  0.00  0.00    +0.000 C 
ATOM      6  C   UNL     1       2.769   6.318  18.418  0.00  0.00    +0.000 C 
ATOM      7  O   UNL     1       4.632   4.889  19.334  0.00  0.00    +0.000 OA
ATOM      8  C   UNL     1       4.816   3.510  19.717  0.00  0.00    +0.000 C 
ATOM      9  C   UNL     1       3.401   3.139  19.980  0.00  0.00    +0.000 A 
ATOM     10  C   UNL     1       2.923   2.403  21.054  0.00  0.00    +0.000 A 
ATOM     11  C   UNL     1       1.580   2.553  21.395  0.00  0.00    +0.000 A 
ATOM     12  C   UNL     1       0.739   3.364  20.620  0.00  0.00    +0.000 A 
ATOM     13  C   UNL     1       1.223   4.021  19.480  0.00  0.00    +0.000 A 
ATOM     14  C   UNL     1       2.579   3.929  19.177  0.00  0.00    +0.000 A 
ENDBRANCH   1   2
BRANCH   1  18
ATOM     15  C   UNL     1       0.164   9.757  18.345  0.00  0.00    +0.000 A 
ATOM     16  N   UNL     1       0.683   9.575  19.572  0.00  0.00    +0.000 NA
ATOM     17  O   UNL     1       1.956   9.076  19.321  0.00  0.00    +0.000 OA
ATOM     18  C   UNL     1       2.093   8.996  17.967  0.00  0.00    +0.000 A 
ATOM     19  N   UNL     1       1.019   9.397  17.316  0.00  0.00    +0.000 NA
BRANCH  15  24
ATOM     20  C   UNL     1      -5.120  11.865  17.337  0.00  0.00    +0.000 C 
ATOM     21  C   UNL     1      -3.776  11.270  17.627  0.00  0.00    +0.000 A 
ATOM     22  C   UNL     1      -3.246  10.273  16.808  0.00  0.00    +0.000 A 
ATOM     23  C   UNL     1      -1.966   9.767  17.060  0.00  0.00    +0.000 A 
ATOM     24  C   UNL     1      -1.191  10.249  18.131  0.00  0.00    +0.000 A 
ATOM     25  C   UNL     1      -1.745  11.228  18.966  0.00  0.00    +0.000 A 
ATOM     26  C   UNL     1      -3.029  11.736  18.720  0.00  0.00    +0.000 A 
ENDBRANCH  15  24
ENDBRANCH   1  18
TORSDOF 3
ENDMDL
