MODEL 1
REMARK VINA RESULT:      -8.9      0.000      0.000
REMARK  Name = 
REMARK  6 active torsions:
REMARK  status: ('A' for Active; 'I' for Inactive)
REMARK    1  A    between atoms: C_1  and  N_2
REMARK    2  A    between atoms: C_5  and  C_6
REMARK    3  A    between atoms: C_10  and  C_11
REMARK    4  A    between atoms: N_13  and  C_14
REMARK    5  A    between atoms: C_18  and  C_19
REMARK    6  A    between atoms: C_19  and  C_20
REMARK                            x       y       z     vdW  Elec       q    Type
REMARK                         _______ _______ _______ _____ _____    ______ ____
ROOT
ATOM      1  C   UNL     1       2.094   7.860  19.114  0.00  0.00    +0.000 A 
ATOM      2  C   UNL     1       1.699   7.532  20.412  0.00  0.00    +0.000 A 
ATOM      3  C   UNL     1       0.961   8.429  21.188  0.00  0.00    +0.000 A 
ATOM      4  C   UNL     1       0.629   9.682  20.684  0.00  0.00    +0.000 A 
ATOM      5  C   UNL     1       1.059  10.069  19.408  0.00  0.00    +0.000 A 
ATOM      6  C   UNL     1       1.780   9.139  18.625  0.00  0.00    +0.000 A 
ENDROOT
BRANCH   1   9
ATOM      7  C   UNL     1       3.657   5.954  18.649  0.00  0.00    +0.000 C 
ATOM      8  O   UNL     1       3.859   5.670  19.826  0.00  0.00    +0.000 OA
ATOM      9  N   UNL     1       2.795   6.970  18.260  0.00  0.00    +0.000 N 
ATOM     10  H   UNL     1       2.552   7.016  17.285  0.00  0.00    +0.000 HD
BRANCH   7  16
ATOM     11  C   UNL     1       6.155   6.895  17.167  0.00  0.00    +0.000 C 
ATOM     12  N   UNL     1       5.434   5.662  16.933  0.00  0.00    +0.000 N 
ATOM     13  N   UNL     1       5.919   4.833  15.990  0.00  0.00    +0.000 NA
ATOM     14  C   UNL     1       5.089   3.799  16.015  0.00  0.00    +0.000 A 
ATOM     15  C   UNL     1       4.068   3.958  16.972  0.00  0.00    +0.000 A 
ATOM     16  C   UNL     1       4.302   5.187  17.586  0.00  0.00    +0.000 A 
BRANCH  15  17
ATOM     17  C   UNL     1       2.967   2.939  17.216  0.00  0.00    +0.000 C 
ATOM     18  C   UNL     1       1.678   3.592  17.793  0.00  0.00    +0.000 C 
ATOM     19  C   UNL     1       1.541   2.401  18.751  0.00  0.00    +0.000 C 
ATOM     20  C   UNL     1       3.029   2.098  18.521  0.00  0.00    +0.000 C 
ENDBRANCH  15  17
ENDBRANCH   7  16
ENDBRANCH   1   9
BRANCH   5  21
ATOM     21  C   UNL     1       0.662  11.442  18.890  0.00  0.00    +0.000 C 
BRANCH  21  22
ATOM     22  C   UNL     1      -0.803  11.613  18.659  0.00  0.00    +0.000 A 
ATOM     23  N   UNL     1      -1.707  11.996  19.539  0.00  0.00    +0.000 NA
ATOM     24  C   UNL     1      -2.916  11.891  18.896  0.00  0.00    +0.000 A 
ATOM     25  C   UNL     1      -4.212  12.132  19.374  0.00  0.00    +0.000 A 
ATOM     26  C   UNL     1      -5.296  11.876  18.524  0.00  0.00    +0.000 A 
ATOM     27  C   UNL     1      -5.095  11.409  17.226  0.00  0.00    +0.000 A 
ATOM     28  C   UNL     1      -3.806  11.198  16.718  0.00  0.00    +0.000 A 
ATOM     29  C   UNL     1      -2.745  11.452  17.588  0.00  0.00    +0.000 A 
ATOM     30  N   UNL     1      -1.388  11.348  17.443  0.00  0.00    +0.000 N 
ATOM     31  H   UNL     1      -0.899  11.047  16.611  0.00  0.00    +0.000 HD
ENDBRANCH  21  22
ENDBRANCH   5  21
TORSDOF 5
ENDMDL
MODEL 2
REMARK VINA RESULT:      -8.7      0.303      1.119
REMARK  Name = 
REMARK  6 active torsions:
REMARK  status: ('A' for Active; 'I' for Inactive)
REMARK    1  A    between atoms: C_1  and  N_2
REMARK    2  A    between atoms: C_5  and  C_6
REMARK    3  A    between atoms: C_10  and  C_11
REMARK    4  A    between atoms: N_13  and  C_14
REMARK    5  A    between atoms: C_18  and  C_19
REMARK    6  A    between atoms: C_19  and  C_20
REMARK                            x       y       z     vdW  Elec       q    Type
REMARK                         _______ _______ _______ _____ _____    ______ ____
ROOT
ATOM      1  C   UNL     1       1.990   7.939  19.138  0.00  0.00    +0.000 A 
ATOM      2  C   UNL     1       1.707   7.668  20.478  0.00  0.00    +0.000 A 
ATOM      3  C   UNL     1       0.965   8.564  21.252  0.00  0.00    +0.000 A 
ATOM      4  C   UNL     1       0.518   9.760  20.701  0.00  0.00    +0.000 A 
ATOM      5  C   UNL     1       0.833  10.093  19.377  0.00  0.00    +0.000 A 
ATOM      6  C   UNL     1       1.559   9.163  18.600  0.00  0.00    +0.000 A 
ENDROOT
BRANCH   1   9
ATOM      7  C   UNL     1       3.549   6.027  18.683  0.00  0.00    +0.000 C 
ATOM      8  O   UNL     1       3.752   5.750  19.861  0.00  0.00    +0.000 OA
ATOM      9  N   UNL     1       2.689   7.042  18.288  0.00  0.00    +0.000 N 
ATOM     10  H   UNL     1       2.444   7.082  17.314  0.00  0.00    +0.000 HD
BRANCH   7  16
ATOM     11  C   UNL     1       6.048   6.954  17.194  0.00  0.00    +0.000 C 
ATOM     12  N   UNL     1       5.324   5.721  16.967  0.00  0.00    +0.000 N 
ATOM     13  N   UNL     1       5.807   4.885  16.029  0.00  0.00    +0.000 NA
ATOM     14  C   UNL     1       4.974   3.854  16.060  0.00  0.00    +0.000 A 
ATOM     15  C   UNL     1       3.954   4.021  17.017  0.00  0.00    +0.000 A 
ATOM     16  C   UNL     1       4.191   5.252  17.623  0.00  0.00    +0.000 A 
BRANCH  15  17
ATOM     17  C   UNL     1       2.851   3.006  17.268  0.00  0.00    +0.000 C 
ATOM     18  C   UNL     1       1.518   3.681  17.700  0.00  0.00    +0.000 C 
ATOM     19  C   UNL     1       1.329   2.568  18.740  0.00  0.00    +0.000 C 
ATOM     20  C   UNL     1       2.833   2.274  18.637  0.00  0.00    +0.000 C 
ENDBRANCH  15  17
ENDBRANCH   7  16
ENDBRANCH   1   9
BRANCH   5  21
ATOM     21  C   UNL     1       0.312  11.403  18.811  0.00  0.00    +0.000 C 
BRANCH  21  22
ATOM     22  C   UNL     1      -1.166  11.440  18.603  0.00  0.00    +0.000 A 
ATOM     23  N   UNL     1      -1.824  11.093  17.514  0.00  0.00    +0.000 NA
ATOM     24  C   UNL     1      -3.138  11.408  17.760  0.00  0.00    +0.000 A 
ATOM     25  C   UNL     1      -4.262  11.289  16.931  0.00  0.00    +0.000 A 
ATOM     26  C   UNL     1      -5.495  11.758  17.403  0.00  0.00    +0.000 A 
ATOM     27  C   UNL     1      -5.610  12.315  18.676  0.00  0.00    +0.000 A 
ATOM     28  C   UNL     1      -4.505  12.409  19.534  0.00  0.00    +0.000 A 
ATOM     29  C   UNL     1      -3.289  11.943  19.035  0.00  0.00    +0.000 A 
ATOM     30  N   UNL     1      -2.031  11.889  19.572  0.00  0.00    +0.000 N 
ATOM     31  H   UNL     1      -1.764  12.202  20.496  0.00  0.00    +0.000 HD
ENDBRANCH  21  22
ENDBRANCH   5  21
TORSDOF 5
ENDMDL
MODEL 3
REMARK VINA RESULT:      -8.7      1.724      2.735
REMARK  Name = 
REMARK  6 active torsions:
REMARK  status: ('A' for Active; 'I' for Inactive)
REMARK    1  A    between atoms: C_1  and  N_2
REMARK    2  A    between atoms: C_5  and  C_6
REMARK    3  A    between atoms: C_10  and  C_11
REMARK    4  A    between atoms: N_13  and  C_14
REMARK    5  A    between atoms: C_18  and  C_19
REMARK    6  A    between atoms: C_19  and  C_20
REMARK                            x       y       z     vdW  Elec       q    Type
REMARK                         _______ _______ _______ _____ _____    ______ ____
ROOT
ATOM      1  C   UNL     1       1.716   7.934  20.411  0.00  0.00    +0.000 A 
ATOM      2  C   UNL     1       1.233   8.122  21.708  0.00  0.00    +0.000 A 
ATOM      3  C   UNL     1       0.499   9.262  22.043  0.00  0.00    +0.000 A 
ATOM      4  C   UNL     1       0.261  10.247  21.091  0.00  0.00    +0.000 A 
ATOM      5  C   UNL     1       0.781  10.122  19.796  0.00  0.00    +0.000 A 
ATOM      6  C   UNL     1       1.496   8.948  19.464  0.00  0.00    +0.000 A 
ENDROOT
BRANCH   1   9
ATOM      7  C   UNL     1       1.961   5.463  20.060  0.00  0.00    +0.000 C 
ATOM      8  O   UNL     1       0.830   5.172  20.438  0.00  0.00    +0.000 OA
ATOM      9  N   UNL     1       2.417   6.772  19.997  0.00  0.00    +0.000 N 
ATOM     10  H   UNL     1       3.282   6.933  19.510  0.00  0.00    +0.000 HD
BRANCH   7  16
ATOM     11  C   UNL     1       2.514   2.911  21.642  0.00  0.00    +0.000 C 
ATOM     12  N   UNL     1       3.105   3.276  20.372  0.00  0.00    +0.000 N 
ATOM     13  N   UNL     1       3.963   2.400  19.816  0.00  0.00    +0.000 NA
ATOM     14  C   UNL     1       4.315   2.978  18.675  0.00  0.00    +0.000 A 
ATOM     15  C   UNL     1       3.686   4.225  18.492  0.00  0.00    +0.000 A 
ATOM     16  C   UNL     1       2.878   4.418  19.611  0.00  0.00    +0.000 A 
BRANCH  15  17
ATOM     17  C   UNL     1       3.907   5.117  17.283  0.00  0.00    +0.000 C 
ATOM     18  C   UNL     1       4.918   4.500  16.273  0.00  0.00    +0.000 C 
ATOM     19  C   UNL     1       5.539   5.892  16.093  0.00  0.00    +0.000 C 
ATOM     20  C   UNL     1       4.897   6.306  17.425  0.00  0.00    +0.000 C 
ENDBRANCH  15  17
ENDBRANCH   7  16
ENDBRANCH   1   9
BRANCH   5  21
ATOM     21  C   UNL     1       0.485  11.214  18.782  0.00  0.00    +0.000 C 
BRANCH  21  22
ATOM     22  C   UNL     1      -0.968  11.464  18.553  0.00  0.00    +0.000 A 
ATOM     23  N   UNL     1      -1.843  11.925  19.425  0.00  0.00    +0.000 NA
ATOM     24  C   UNL     1      -3.060  11.873  18.791  0.00  0.00    +0.000 A 
ATOM     25  C   UNL     1      -4.337  12.203  19.267  0.00  0.00    +0.000 A 
ATOM     26  C   UNL     1      -5.440  11.986  18.430  0.00  0.00    +0.000 A 
ATOM     27  C   UNL     1      -5.274  11.470  17.145  0.00  0.00    +0.000 A 
ATOM     28  C   UNL     1      -4.002  11.169  16.638  0.00  0.00    +0.000 A 
ATOM     29  C   UNL     1      -2.924  11.386  17.496  0.00  0.00    +0.000 A 
ATOM     30  N   UNL     1      -1.576  11.198  17.348  0.00  0.00    +0.000 N 
ATOM     31  H   UNL     1      -1.110  10.845  16.523  0.00  0.00    +0.000 HD
ENDBRANCH  21  22
ENDBRANCH   5  21
TORSDOF 5
ENDMDL
MODEL 4
REMARK VINA RESULT:      -8.6      3.224      5.655
REMARK  Name = 
REMARK  6 active torsions:
REMARK  status: ('A' for Active; 'I' for Inactive)
REMARK    1  A    between atoms: C_1  and  N_2
REMARK    2  A    between atoms: C_5  and  C_6
REMARK    3  A    between atoms: C_10  and  C_11
REMARK    4  A    between atoms: N_13  and  C_14
REMARK    5  A    between atoms: C_18  and  C_19
REMARK    6  A    between atoms: C_19  and  C_20
REMARK                            x       y       z     vdW  Elec       q    Type
REMARK                         _______ _______ _______ _____ _____    ______ ____
ROOT
ATOM      1  C   UNL     1       3.807   3.052  18.074  0.00  0.00    +0.000 A 
ATOM      2  C   UNL     1       3.203   1.796  18.138  0.00  0.00    +0.000 A 
ATOM      3  C   UNL     1       2.226   1.516  19.096  0.00  0.00    +0.000 A 
ATOM      4  C   UNL     1       1.858   2.483  20.025  0.00  0.00    +0.000 A 
ATOM      5  C   UNL     1       2.486   3.735  20.030  0.00  0.00    +0.000 A 
ATOM      6  C   UNL     1       3.451   4.013  19.036  0.00  0.00    +0.000 A 
ENDROOT
BRANCH   1   9
ATOM      7  C   UNL     1       4.827   4.616  16.399  0.00  0.00    +0.000 C 
ATOM      8  O   UNL     1       4.069   5.553  16.627  0.00  0.00    +0.000 OA
ATOM      9  N   UNL     1       4.763   3.413  17.089  0.00  0.00    +0.000 N 
ATOM     10  H   UNL     1       5.529   2.773  16.967  0.00  0.00    +0.000 HD
BRANCH   7  16
ATOM     11  C   UNL     1       7.333   6.315  16.796  0.00  0.00    +0.000 C 
ATOM     12  N   UNL     1       7.000   5.543  15.618  0.00  0.00    +0.000 N 
ATOM     13  N   UNL     1       7.887   5.549  14.605  0.00  0.00    +0.000 NA
ATOM     14  C   UNL     1       7.339   4.754  13.696  0.00  0.00    +0.000 A 
ATOM     15  C   UNL     1       6.100   4.234  14.119  0.00  0.00    +0.000 A 
ATOM     16  C   UNL     1       5.880   4.749  15.395  0.00  0.00    +0.000 A 
BRANCH  15  17
ATOM     17  C   UNL     1       5.240   3.303  13.280  0.00  0.00    +0.000 C 
ATOM     18  C   UNL     1       6.050   2.621  12.140  0.00  0.00    +0.000 C 
ATOM     19  C   UNL     1       4.859   2.851  11.200  0.00  0.00    +0.000 C 
ATOM     20  C   UNL     1       4.357   3.932  12.168  0.00  0.00    +0.000 C 
ENDBRANCH  15  17
ENDBRANCH   7  16
ENDBRANCH   1   9
BRANCH   5  21
ATOM     21  C   UNL     1       2.044   4.768  21.053  0.00  0.00    +0.000 C 
BRANCH  21  22
ATOM     22  C   UNL     1       1.946   6.160  20.521  0.00  0.00    +0.000 A 
ATOM     23  N   UNL     1       1.310   7.177  21.069  0.00  0.00    +0.000 NA
ATOM     24  C   UNL     1       1.407   8.204  20.162  0.00  0.00    +0.000 A 
ATOM     25  C   UNL     1       0.876   9.500  20.212  0.00  0.00    +0.000 A 
ATOM     26  C   UNL     1       1.060  10.342  19.107  0.00  0.00    +0.000 A 
ATOM     27  C   UNL     1       1.769   9.910  17.987  0.00  0.00    +0.000 A 
ATOM     28  C   UNL     1       2.339   8.631  17.933  0.00  0.00    +0.000 A 
ATOM     29  C   UNL     1       2.132   7.811  19.043  0.00  0.00    +0.000 A 
ATOM     30  N   UNL     1       2.520   6.529  19.328  0.00  0.00    +0.000 N 
ATOM     31  H   UNL     1       3.066   5.925  18.729  0.00  0.00    +0.000 HD
ENDBRANCH  21  22
ENDBRANCH   5  21
TORSDOF 5
ENDMDL
MODEL 5
REMARK VINA RESULT:      -8.5      1.278      2.661
REMARK  Name = 
REMARK  6 active torsions:
REMARK  status: ('A' for Active; 'I' for Inactive)
REMARK    1  A    between atoms: C_1  and  N_2
REMARK    2  A    between atoms: C_5  and  C_6
REMARK    3  A    between atoms: C_10  and  C_11
REMARK    4  A    between atoms: N_13  and  C_14
REMARK    5  A    between atoms: C_18  and  C_19
REMARK    6  A    between atoms: C_19  and  C_20
REMARK                            x       y       z     vdW  Elec       q    Type
REMARK                         _______ _______ _______ _____ _____    ______ ____
ROOT
ATOM      1  C   UNL     1       1.757   8.056  19.828  0.00  0.00    +0.000 A 
ATOM      2  C   UNL     1       1.434   8.029  21.186  0.00  0.00    +0.000 A 
ATOM      3  C   UNL     1       0.777   9.104  21.790  0.00  0.00    +0.000 A 
ATOM      4  C   UNL     1       0.456  10.235  21.048  0.00  0.00    +0.000 A 
ATOM      5  C   UNL     1       0.817  10.322  19.697  0.00  0.00    +0.000 A 
ATOM      6  C   UNL     1       1.455   9.215  19.094  0.00  0.00    +0.000 A 
ENDROOT
BRANCH   1   9
ATOM      7  C   UNL     1       2.568   5.690  19.638  0.00  0.00    +0.000 C 
ATOM      8  O   UNL     1       2.154   5.329  20.735  0.00  0.00    +0.000 OA
ATOM      9  N   UNL     1       2.372   6.973  19.147  0.00  0.00    +0.000 N 
ATOM     10  H   UNL     1       2.582   7.129  18.176  0.00  0.00    +0.000 HD
BRANCH   7  16
ATOM     11  C   UNL     1       1.258   3.196  18.462  0.00  0.00    +0.000 C 
ATOM     12  N   UNL     1       2.629   3.618  18.264  0.00  0.00    +0.000 N 
ATOM     13  N   UNL     1       3.399   2.856  17.465  0.00  0.00    +0.000 NA
ATOM     14  C   UNL     1       4.566   3.487  17.449  0.00  0.00    +0.000 A 
ATOM     15  C   UNL     1       4.551   4.655  18.237  0.00  0.00    +0.000 A 
ATOM     16  C   UNL     1       3.266   4.746  18.768  0.00  0.00    +0.000 A 
BRANCH  15  17
ATOM     17  C   UNL     1       5.748   5.573  18.416  0.00  0.00    +0.000 C 
ATOM     18  C   UNL     1       5.785   6.707  17.351  0.00  0.00    +0.000 C 
ATOM     19  C   UNL     1       7.300   6.496  17.225  0.00  0.00    +0.000 C 
ATOM     20  C   UNL     1       7.116   5.104  17.849  0.00  0.00    +0.000 C 
ENDBRANCH  15  17
ENDBRANCH   7  16
ENDBRANCH   1   9
BRANCH   5  21
ATOM     21  C   UNL     1       0.434  11.570  18.919  0.00  0.00    +0.000 C 
BRANCH  21  22
ATOM     22  C   UNL     1      -1.031  11.716  18.670  0.00  0.00    +0.000 A 
ATOM     23  N   UNL     1      -1.946  12.123  19.527  0.00  0.00    +0.000 NA
ATOM     24  C   UNL     1      -3.149  11.979  18.878  0.00  0.00    +0.000 A 
ATOM     25  C   UNL     1      -4.451  12.224  19.336  0.00  0.00    +0.000 A 
ATOM     26  C   UNL     1      -5.526  11.922  18.488  0.00  0.00    +0.000 A 
ATOM     27  C   UNL     1      -5.308  11.406  17.211  0.00  0.00    +0.000 A 
ATOM     28  C   UNL     1      -4.012  11.190  16.722  0.00  0.00    +0.000 A 
ATOM     29  C   UNL     1      -2.962  11.491  17.590  0.00  0.00    +0.000 A 
ATOM     30  N   UNL     1      -1.603  11.395  17.461  0.00  0.00    +0.000 N 
ATOM     31  H   UNL     1      -1.103  11.068  16.645  0.00  0.00    +0.000 HD
ENDBRANCH  21  22
ENDBRANCH   5  21
TORSDOF 5
ENDMDL
MODEL 6
REMARK VINA RESULT:      -8.5      2.475      4.063
REMARK  Name = 
REMARK  6 active torsions:
REMARK  status: ('A' for Active; 'I' for Inactive)
REMARK    1  A    between atoms: C_1  and  N_2
REMARK    2  A    between atoms: C_5  and  C_6
REMARK    3  A    between atoms: C_10  and  C_11
REMARK    4  A    between atoms: N_13  and  C_14
REMARK    5  A    between atoms: C_18  and  C_19
REMARK    6  A    between atoms: C_19  and  C_20
REMARK                            x       y       z     vdW  Elec       q    Type
REMARK                         _______ _______ _______ _____ _____    ______ ____
ROOT
ATOM      1  C   UNL     1       2.208   7.837  19.015  0.00  0.00    +0.000 A 
ATOM      2  C   UNL     1       1.817   7.525  20.318  0.00  0.00    +0.000 A 
ATOM      3  C   UNL     1       1.034   8.408  21.065  0.00  0.00    +0.000 A 
ATOM      4  C   UNL     1       0.652   9.632  20.526  0.00  0.00    +0.000 A 
ATOM      5  C   UNL     1       1.074  10.005  19.243  0.00  0.00    +0.000 A 
ATOM      6  C   UNL     1       1.842   9.088  18.490  0.00  0.00    +0.000 A 
ENDROOT
BRANCH   1   9
ATOM      7  C   UNL     1       3.814   5.953  18.611  0.00  0.00    +0.000 C 
ATOM      8  O   UNL     1       3.974   5.672  19.795  0.00  0.00    +0.000 OA
ATOM      9  N   UNL     1       2.954   6.957  18.188  0.00  0.00    +0.000 N 
ATOM     10  H   UNL     1       2.748   6.999  17.205  0.00  0.00    +0.000 HD
BRANCH   7  16
ATOM     11  C   UNL     1       6.345   6.936  17.216  0.00  0.00    +0.000 C 
ATOM     12  N   UNL     1       5.656   5.689  16.960  0.00  0.00    +0.000 N 
ATOM     13  N   UNL     1       6.190   4.867  16.038  0.00  0.00    +0.000 NA
ATOM     14  C   UNL     1       5.378   3.818  16.037  0.00  0.00    +0.000 A 
ATOM     15  C   UNL     1       4.321   3.960  16.957  0.00  0.00    +0.000 A 
ATOM     16  C   UNL     1       4.510   5.195  17.574  0.00  0.00    +0.000 A 
BRANCH  15  17
ATOM     17  C   UNL     1       3.232   2.922  17.165  0.00  0.00    +0.000 C 
ATOM     18  C   UNL     1       1.861   3.569  17.515  0.00  0.00    +0.000 C 
ATOM     19  C   UNL     1       1.644   2.467  18.561  0.00  0.00    +0.000 C 
ATOM     20  C   UNL     1       3.158   2.210  18.543  0.00  0.00    +0.000 C 
ENDBRANCH  15  17
ENDBRANCH   7  16
ENDBRANCH   1   9
BRANCH   5  21
ATOM     21  C   UNL     1       0.622  11.345  18.687  0.00  0.00    +0.000 C 
BRANCH  21  22
ATOM     22  C   UNL     1       1.620  12.444  18.840  0.00  0.00    +0.000 A 
ATOM     23  N   UNL     1       2.050  12.975  19.968  0.00  0.00    +0.000 NA
ATOM     24  C   UNL     1       2.863  14.019  19.597  0.00  0.00    +0.000 A 
ATOM     25  C   UNL     1       3.551  14.948  20.390  0.00  0.00    +0.000 A 
ATOM     26  C   UNL     1       4.262  15.974  19.754  0.00  0.00    +0.000 A 
ATOM     27  C   UNL     1       4.303  16.063  18.363  0.00  0.00    +0.000 A 
ATOM     28  C   UNL     1       3.653  15.121  17.553  0.00  0.00    +0.000 A 
ATOM     29  C   UNL     1       2.945  14.116  18.213  0.00  0.00    +0.000 A 
ATOM     30  N   UNL     1       2.199  13.063  17.757  0.00  0.00    +0.000 N 
ATOM     31  H   UNL     1       2.033  12.825  16.789  0.00  0.00    +0.000 HD
ENDBRANCH  21  22
ENDBRANCH   5  21
TORSDOF 5
ENDMDL
MODEL 7
REMARK VINA RESULT:      -8.4      0.980      1.023
REMARK  Name = 
REMARK  6 active torsions:
REMARK  status: ('A' for Active; 'I' for Inactive)
REMARK    1  A    between atoms: C_1  and  N_2
REMARK    2  A    between atoms: C_5  and  C_6
REMARK    3  A    between atoms: C_10  and  C_11
REMARK    4  A    between atoms: N_13  and  C_14
REMARK    5  A    between atoms: C_18  and  C_19
REMARK    6  A    between atoms: C_19  and  C_20
REMARK                            x       y       z     vdW  Elec       q    Type
REMARK                         _______ _______ _______ _____ _____    ______ ____
ROOT
ATOM      1  C   UNL     1       2.132   7.571  19.666  0.00  0.00    +0.000 A 
ATOM      2  C   UNL     1       1.457   7.142  20.810  0.00  0.00    +0.000 A 
ATOM      3  C   UNL     1       0.533   7.968  21.453  0.00  0.00    +0.000 A 
ATOM      4  C   UNL     1       0.289   9.251  20.974  0.00  0.00    +0.000 A 
ATOM      5  C   UNL     1       0.991   9.738  19.864  0.00  0.00    +0.000 A 
ATOM      6  C   UNL     1       1.901   8.879  19.207  0.00  0.00    +0.000 A 
ENDROOT
BRANCH   1   9
ATOM      7  C   UNL     1       2.710   5.754  18.037  0.00  0.00    +0.000 C 
ATOM      8  O   UNL     1       1.553   5.502  17.717  0.00  0.00    +0.000 OA
ATOM      9  N   UNL     1       3.038   6.757  18.938  0.00  0.00    +0.000 N 
ATOM     10  H   UNL     1       4.008   7.014  19.004  0.00  0.00    +0.000 HD
BRANCH   7  16
ATOM     11  C   UNL     1       4.781   7.028  16.191  0.00  0.00    +0.000 C 
ATOM     12  N   UNL     1       4.731   5.638  16.591  0.00  0.00    +0.000 N 
ATOM     13  N   UNL     1       5.702   4.828  16.130  0.00  0.00    +0.000 NA
ATOM     14  C   UNL     1       5.419   3.650  16.670  0.00  0.00    +0.000 A 
ATOM     15  C   UNL     1       4.267   3.697  17.479  0.00  0.00    +0.000 A 
ATOM     16  C   UNL     1       3.817   5.015  17.434  0.00  0.00    +0.000 A 
BRANCH  15  17
ATOM     17  C   UNL     1       3.698   2.496  18.216  0.00  0.00    +0.000 C 
ATOM     18  C   UNL     1       2.236   2.181  17.785  0.00  0.00    +0.000 C 
ATOM     19  C   UNL     1       1.895   1.915  19.258  0.00  0.00    +0.000 C 
ATOM     20  C   UNL     1       3.145   2.716  19.650  0.00  0.00    +0.000 C 
ENDBRANCH  15  17
ENDBRANCH   7  16
ENDBRANCH   1   9
BRANCH   5  21
ATOM     21  C   UNL     1       0.683  11.141  19.365  0.00  0.00    +0.000 C 
BRANCH  21  22
ATOM     22  C   UNL     1      -0.683  11.302  18.785  0.00  0.00    +0.000 A 
ATOM     23  N   UNL     1      -1.768  11.716  19.410  0.00  0.00    +0.000 NA
ATOM     24  C   UNL     1      -2.789  11.588  18.500  0.00  0.00    +0.000 A 
ATOM     25  C   UNL     1      -4.160  11.845  18.646  0.00  0.00    +0.000 A 
ATOM     26  C   UNL     1      -5.012  11.557  17.571  0.00  0.00    +0.000 A 
ATOM     27  C   UNL     1      -4.510  11.043  16.376  0.00  0.00    +0.000 A 
ATOM     28  C   UNL     1      -3.139  10.815  16.199  0.00  0.00    +0.000 A 
ATOM     29  C   UNL     1      -2.315  11.102  17.288  0.00  0.00    +0.000 A 
ATOM     30  N   UNL     1      -0.963  10.992  17.475  0.00  0.00    +0.000 N 
ATOM     31  H   UNL     1      -0.292  10.662  16.795  0.00  0.00    +0.000 HD
ENDBRANCH  21  22
ENDBRANCH   5  21
TORSDOF 5
ENDMDL
MODEL 8
REMARK VINA RESULT:      -8.4      2.751      4.337
REMARK  Name = 
REMARK  6 active torsions:
REMARK  status: ('A' for Active; 'I' for Inactive)
REMARK    1  A    between atoms: C_1  and  N_2
REMARK    2  A    between atoms: C_5  and  C_6
REMARK    3  A    between atoms: C_10  and  C_11
REMARK    4  A    between atoms: N_13  and  C_14
REMARK    5  A    between atoms: C_18  and  C_19
REMARK    6  A    between atoms: C_19  and  C_20
REMARK                            x       y       z     vdW  Elec       q    Type
REMARK                         _______ _______ _______ _____ _____    ______ ____
ROOT
ATOM      1  C   UNL     1       1.677   8.026  20.266  0.00  0.00    +0.000 A 
ATOM      2  C   UNL     1       0.795   7.959  21.346  0.00  0.00    +0.000 A 
ATOM      3  C   UNL     1      -0.184   8.936  21.537  0.00  0.00    +0.000 A 
ATOM      4  C   UNL     1      -0.278  10.013  20.662  0.00  0.00    +0.000 A 
ATOM      5  C   UNL     1       0.628  10.146  19.602  0.00  0.00    +0.000 A 
ATOM      6  C   UNL     1       1.594   9.134  19.405  0.00  0.00    +0.000 A 
ENDROOT
BRANCH   1   9
ATOM      7  C   UNL     1       2.653   6.146  18.923  0.00  0.00    +0.000 C 
ATOM      8  O   UNL     1       1.803   6.172  18.039  0.00  0.00    +0.000 OA
ATOM      9  N   UNL     1       2.654   7.035  19.989  0.00  0.00    +0.000 N 
ATOM     10  H   UNL     1       3.480   7.061  20.564  0.00  0.00    +0.000 HD
BRANCH   7  16
ATOM     11  C   UNL     1       5.246   6.629  17.385  0.00  0.00    +0.000 C 
ATOM     12  N   UNL     1       4.907   5.442  18.141  0.00  0.00    +0.000 N 
ATOM     13  N   UNL     1       5.829   4.462  18.198  0.00  0.00    +0.000 NA
ATOM     14  C   UNL     1       5.265   3.536  18.962  0.00  0.00    +0.000 A 
ATOM     15  C   UNL     1       3.981   3.915  19.399  0.00  0.00    +0.000 A 
ATOM     16  C   UNL     1       3.748   5.180  18.863  0.00  0.00    +0.000 A 
BRANCH  15  17
ATOM     17  C   UNL     1       3.094   3.049  20.278  0.00  0.00    +0.000 C 
ATOM     18  C   UNL     1       1.721   2.746  19.610  0.00  0.00    +0.000 C 
ATOM     19  C   UNL     1       1.046   2.971  20.970  0.00  0.00    +0.000 C 
ATOM     20  C   UNL     1       2.297   3.742  21.417  0.00  0.00    +0.000 C 
ENDBRANCH  15  17
ENDBRANCH   7  16
ENDBRANCH   1   9
BRANCH   5  21
ATOM     21  C   UNL     1       0.480  11.331  18.661  0.00  0.00    +0.000 C 
BRANCH  21  22
ATOM     22  C   UNL     1       1.524  12.385  18.829  0.00  0.00    +0.000 A 
ATOM     23  N   UNL     1       1.982  12.874  19.965  0.00  0.00    +0.000 NA
ATOM     24  C   UNL     1       2.835  13.891  19.610  0.00  0.00    +0.000 A 
ATOM     25  C   UNL     1       3.565  14.775  20.418  0.00  0.00    +0.000 A 
ATOM     26  C   UNL     1       4.314  15.784  19.798  0.00  0.00    +0.000 A 
ATOM     27  C   UNL     1       4.350  15.900  18.409  0.00  0.00    +0.000 A 
ATOM     28  C   UNL     1       3.658  15.003  17.584  0.00  0.00    +0.000 A 
ATOM     29  C   UNL     1       2.913  14.014  18.228  0.00  0.00    +0.000 A 
ATOM     30  N   UNL     1       2.122  13.001  17.756  0.00  0.00    +0.000 N 
ATOM     31  H   UNL     1       1.940  12.791  16.784  0.00  0.00    +0.000 HD
ENDBRANCH  21  22
ENDBRANCH   5  21
TORSDOF 5
ENDMDL
MODEL 9
REMARK VINA RESULT:      -8.4      1.129      1.314
REMARK  Name = 
REMARK  6 active torsions:
REMARK  status: ('A' for Active; 'I' for Inactive)
REMARK    1  A    between atoms: C_1  and  N_2
REMARK    2  A    between atoms: C_5  and  C_6
REMARK    3  A    between atoms: C_10  and  C_11
REMARK    4  A    between atoms: N_13  and  C_14
REMARK    5  A    between atoms: C_18  and  C_19
REMARK    6  A    between atoms: C_19  and  C_20
REMARK                            x       y       z     vdW  Elec       q    Type
REMARK                         _______ _______ _______ _____ _____    ______ ____
ROOT
ATOM      1  C   UNL     1       1.615   8.333  20.127  0.00  0.00    +0.000 A 
ATOM      2  C   UNL     1       1.292   8.391  21.484  0.00  0.00    +0.000 A 
ATOM      3  C   UNL     1       0.580   9.473  22.008  0.00  0.00    +0.000 A 
ATOM      4  C   UNL     1       0.203  10.528  21.184  0.00  0.00    +0.000 A 
ATOM      5  C   UNL     1       0.562  10.533  19.830  0.00  0.00    +0.000 A 
ATOM      6  C   UNL     1       1.256   9.417  19.309  0.00  0.00    +0.000 A 
ENDROOT
BRANCH   1   9
ATOM      7  C   UNL     1       2.736   7.155  18.217  0.00  0.00    +0.000 C 
ATOM      8  O   UNL     1       2.652   8.091  17.429  0.00  0.00    +0.000 OA
ATOM      9  N   UNL     1       2.286   7.235  19.528  0.00  0.00    +0.000 N 
ATOM     10  H   UNL     1       2.555   6.492  20.151  0.00  0.00    +0.000 HD
BRANCH   7  16
ATOM     11  C   UNL     1       5.610   6.964  17.206  0.00  0.00    +0.000 C 
ATOM     12  N   UNL     1       4.677   5.866  17.345  0.00  0.00    +0.000 N 
ATOM     13  N   UNL     1       5.119   4.636  17.023  0.00  0.00    +0.000 NA
ATOM     14  C   UNL     1       4.080   3.849  17.269  0.00  0.00    +0.000 A 
ATOM     15  C   UNL     1       2.968   4.567  17.749  0.00  0.00    +0.000 A 
ATOM     16  C   UNL     1       3.366   5.901  17.808  0.00  0.00    +0.000 A 
BRANCH  15  17
ATOM     17  C   UNL     1       1.635   3.930  18.105  0.00  0.00    +0.000 C 
ATOM     18  C   UNL     1       1.294   4.084  19.616  0.00  0.00    +0.000 C 
ATOM     19  C   UNL     1       0.788   2.635  19.616  0.00  0.00    +0.000 C 
ATOM     20  C   UNL     1       1.600   2.395  18.336  0.00  0.00    +0.000 C 
ENDBRANCH  15  17
ENDBRANCH   7  16
ENDBRANCH   1   9
BRANCH   5  21
ATOM     21  C   UNL     1       0.118  11.698  18.962  0.00  0.00    +0.000 C 
BRANCH  21  22
ATOM     22  C   UNL     1      -1.362  11.819  18.802  0.00  0.00    +0.000 A 
ATOM     23  N   UNL     1      -2.214  12.337  19.664  0.00  0.00    +0.000 NA
ATOM     24  C   UNL     1      -3.460  12.119  19.127  0.00  0.00    +0.000 A 
ATOM     25  C   UNL     1      -4.727  12.427  19.642  0.00  0.00    +0.000 A 
ATOM     26  C   UNL     1      -5.859  12.025  18.920  0.00  0.00    +0.000 A 
ATOM     27  C   UNL     1      -5.732  11.349  17.706  0.00  0.00    +0.000 A 
ATOM     28  C   UNL     1      -4.474  11.066  17.158  0.00  0.00    +0.000 A 
ATOM     29  C   UNL     1      -3.365  11.469  17.902  0.00  0.00    +0.000 A 
ATOM     30  N   UNL     1      -2.018  11.350  17.689  0.00  0.00    +0.000 N 
ATOM     31  H   UNL     1      -1.577  10.919  16.888  0.00  0.00    +0.000 HD
ENDBRANCH  21  22
ENDBRANCH   5  21
TORSDOF 5
ENDMDL
