MODEL 1
REMARK VINA RESULT:      -8.4      0.000      0.000
REMARK  Name = 
REMARK  8 active torsions:
REMARK  status: ('A' for Active; 'I' for Inactive)
REMARK    1  A    between atoms: C_1  and  C_2
REMARK    2  A    between atoms: C_3  and  C_4
REMARK    3  A    between atoms: C_4  and  C_5
REMARK    4  A    between atoms: N_10  and  C_11
REMARK    5  A    between atoms: C_15  and  C_16
REMARK    6  A    between atoms: C_16  and  C_17
REMARK    7  A    between atoms: C_17  and  C_18
REMARK    8  A    between atoms: N_22  and  C_23
REMARK                            x       y       z     vdW  Elec       q    Type
REMARK                         _______ _______ _______ _____ _____    ______ ____
ROOT
ATOM      1  C   UNL     1       6.048   4.576  15.988  0.00  0.00    +0.000 A 
ATOM      2  C   UNL     1       7.124   4.593  16.876  0.00  0.00    +0.000 A 
ATOM      3  C   UNL     1       6.952   5.021  18.190  0.00  0.00    +0.000 A 
ATOM      4  C   UNL     1       5.698   5.440  18.629  0.00  0.00    +0.000 A 
ATOM      5  C   UNL     1       4.575   5.436  17.780  0.00  0.00    +0.000 A 
ATOM      6  C   UNL     1       4.789   4.974  16.464  0.00  0.00    +0.000 A 
ENDROOT
BRANCH   1  11
ATOM      7  C   UNL     1       7.646   4.640  11.233  0.00  0.00    +0.000 C 
ATOM      8  C   UNL     1       6.843   4.221  12.405  0.00  0.00    +0.000 C 
ATOM      9  C   UNL     1       5.807   3.379  12.543  0.00  0.00    +0.000 C 
ATOM     10  C   UNL     1       5.367   3.259  13.972  0.00  0.00    +0.000 C 
ATOM     11  N   UNL     1       6.216   4.224  14.627  0.00  0.00    +0.000 N 
ATOM     12  C   UNL     1       7.111   4.805  13.740  0.00  0.00    +0.000 C 
ATOM     13  O   UNL     1       7.977   5.645  13.930  0.00  0.00    +0.000 OA
BRANCH   9  14
ATOM     14  C   UNL     1       5.068   2.640  11.464  0.00  0.00    +0.000 C 
BRANCH  14  15
ATOM     15  C   UNL     1       3.759   3.256  10.975  0.00  0.00    +0.000 C 
ATOM     16  F   UNL     1       3.453   2.908   9.708  0.00  0.00    +0.000 F 
ATOM     17  F   UNL     1       2.730   2.873  11.765  0.00  0.00    +0.000 F 
ATOM     18  F   UNL     1       3.823   4.607  11.022  0.00  0.00    +0.000 F 
ENDBRANCH  14  15
ENDBRANCH   9  14
ENDBRANCH   1  11
BRANCH   5  19
ATOM     19  C   UNL     1       3.153   5.995  18.260  0.00  0.00    +0.000 C 
ATOM     20  C   UNL     1       2.803   7.435  17.782  0.00  0.00    +0.000 C 
ATOM     21  O   UNL     1       2.216   7.742  19.072  0.00  0.00    +0.000 OA
ATOM     22  C   UNL     1       2.989   6.653  19.658  0.00  0.00    +0.000 C 
BRANCH  19  23
ATOM     23  C   UNL     1       2.031   4.983  17.929  0.00  0.00    +0.000 C 
BRANCH  23  24
ATOM     24  C   UNL     1       1.767   3.974  19.006  0.00  0.00    +0.000 A 
ATOM     25  N   UNL     1       0.977   4.127  20.055  0.00  0.00    +0.000 NA
ATOM     26  N   UNL     1       1.028   2.980  20.812  0.00  0.00    +0.000 NA
ATOM     27  C   UNL     1       1.811   2.131  20.189  0.00  0.00    +0.000 A 
ATOM     28  N   UNL     1       2.297   2.708  19.057  0.00  0.00    +0.000 N 
ATOM     29  C   UNL     1       3.178   2.076  18.112  0.00  0.00    +0.000 C 
ENDBRANCH  23  24
ENDBRANCH  19  23
ENDBRANCH   5  19
TORSDOF 6
ENDMDL
MODEL 2
REMARK VINA RESULT:      -8.3      4.791      8.377
REMARK  Name = 
REMARK  8 active torsions:
REMARK  status: ('A' for Active; 'I' for Inactive)
REMARK    1  A    between atoms: C_1  and  C_2
REMARK    2  A    between atoms: C_3  and  C_4
REMARK    3  A    between atoms: C_4  and  C_5
REMARK    4  A    between atoms: N_10  and  C_11
REMARK    5  A    between atoms: C_15  and  C_16
REMARK    6  A    between atoms: C_16  and  C_17
REMARK    7  A    between atoms: C_17  and  C_18
REMARK    8  A    between atoms: N_22  and  C_23
REMARK                            x       y       z     vdW  Elec       q    Type
REMARK                         _______ _______ _______ _____ _____    ______ ____
ROOT
ATOM      1  C   UNL     1       2.713   5.584  18.514  0.00  0.00    +0.000 A 
ATOM      2  C   UNL     1       2.045   4.370  18.682  0.00  0.00    +0.000 A 
ATOM      3  C   UNL     1       2.525   3.209  18.082  0.00  0.00    +0.000 A 
ATOM      4  C   UNL     1       3.679   3.251  17.303  0.00  0.00    +0.000 A 
ATOM      5  C   UNL     1       4.398   4.445  17.105  0.00  0.00    +0.000 A 
ATOM      6  C   UNL     1       3.890   5.593  17.750  0.00  0.00    +0.000 A 
ENDROOT
BRANCH   1  11
ATOM      7  C   UNL     1       1.391  10.406  18.923  0.00  0.00    +0.000 C 
ATOM      8  C   UNL     1       1.622   9.006  19.348  0.00  0.00    +0.000 C 
ATOM      9  C   UNL     1       1.544   8.393  20.539  0.00  0.00    +0.000 C 
ATOM     10  C   UNL     1       1.836   6.926  20.435  0.00  0.00    +0.000 C 
ATOM     11  N   UNL     1       2.198   6.792  19.046  0.00  0.00    +0.000 N 
ATOM     12  C   UNL     1       2.074   7.994  18.365  0.00  0.00    +0.000 C 
ATOM     13  O   UNL     1       2.280   8.261  17.192  0.00  0.00    +0.000 OA
BRANCH   9  14
ATOM     14  C   UNL     1       1.261   9.011  21.879  0.00  0.00    +0.000 C 
BRANCH  14  15
ATOM     15  C   UNL     1      -0.207   9.232  22.242  0.00  0.00    +0.000 C 
ATOM     16  F   UNL     1      -0.393   9.482  23.555  0.00  0.00    +0.000 F 
ATOM     17  F   UNL     1      -0.714  10.277  21.550  0.00  0.00    +0.000 F 
ATOM     18  F   UNL     1      -0.943   8.141  21.927  0.00  0.00    +0.000 F 
ENDBRANCH  14  15
ENDBRANCH   9  14
ENDBRANCH   1  11
BRANCH   5  19
ATOM     19  C   UNL     1       5.677   4.511  16.143  0.00  0.00    +0.000 C 
ATOM     20  C   UNL     1       5.637   5.620  15.051  0.00  0.00    +0.000 C 
ATOM     21  O   UNL     1       6.227   4.716  14.083  0.00  0.00    +0.000 OA
ATOM     22  C   UNL     1       5.780   3.590  14.897  0.00  0.00    +0.000 C 
BRANCH  19  23
ATOM     23  C   UNL     1       6.980   4.560  16.974  0.00  0.00    +0.000 C 
BRANCH  23  24
ATOM     24  C   UNL     1       7.417   5.940  17.364  0.00  0.00    +0.000 A 
ATOM     25  N   UNL     1       7.518   6.991  16.570  0.00  0.00    +0.000 NA
ATOM     26  N   UNL     1       7.974   8.057  17.309  0.00  0.00    +0.000 NA
ATOM     27  C   UNL     1       8.100   7.650  18.550  0.00  0.00    +0.000 A 
ATOM     28  N   UNL     1       7.766   6.334  18.634  0.00  0.00    +0.000 N 
ATOM     29  C   UNL     1       7.770   5.548  19.838  0.00  0.00    +0.000 C 
ENDBRANCH  23  24
ENDBRANCH  19  23
ENDBRANCH   5  19
TORSDOF 6
ENDMDL
MODEL 3
REMARK VINA RESULT:      -8.3      4.169      7.969
REMARK  Name = 
REMARK  8 active torsions:
REMARK  status: ('A' for Active; 'I' for Inactive)
REMARK    1  A    between atoms: C_1  and  C_2
REMARK    2  A    between atoms: C_3  and  C_4
REMARK    3  A    between atoms: C_4  and  C_5
REMARK    4  A    between atoms: N_10  and  C_11
REMARK    5  A    between atoms: C_15  and  C_16
REMARK    6  A    between atoms: C_16  and  C_17
REMARK    7  A    between atoms: C_17  and  C_18
REMARK    8  A    between atoms: N_22  and  C_23
REMARK                            x       y       z     vdW  Elec       q    Type
REMARK                         _______ _______ _______ _____ _____    ______ ____
ROOT
ATOM      1  C   UNL     1       2.713   5.672  18.248  0.00  0.00    +0.000 A 
ATOM      2  C   UNL     1       1.898   4.540  18.217  0.00  0.00    +0.000 A 
ATOM      3  C   UNL     1       2.301   3.396  17.532  0.00  0.00    +0.000 A 
ATOM      4  C   UNL     1       3.525   3.375  16.868  0.00  0.00    +0.000 A 
ATOM      5  C   UNL     1       4.391   4.484  16.873  0.00  0.00    +0.000 A 
ATOM      6  C   UNL     1       3.954   5.614  17.597  0.00  0.00    +0.000 A 
ENDROOT
BRANCH   1  11
ATOM      7  C   UNL     1       0.903   8.864  21.668  0.00  0.00    +0.000 C 
ATOM      8  C   UNL     1       1.402   8.401  20.354  0.00  0.00    +0.000 C 
ATOM      9  C   UNL     1       1.494   8.996  19.154  0.00  0.00    +0.000 C 
ATOM     10  C   UNL     1       2.125   8.101  18.130  0.00  0.00    +0.000 C 
ATOM     11  N   UNL     1       2.288   6.873  18.868  0.00  0.00    +0.000 N 
ATOM     12  C   UNL     1       1.886   7.010  20.188  0.00  0.00    +0.000 C 
ATOM     13  O   UNL     1       1.886   6.200  21.101  0.00  0.00    +0.000 OA
BRANCH   9  14
ATOM     14  C   UNL     1       1.007  10.363  18.763  0.00  0.00    +0.000 C 
BRANCH  14  15
ATOM     15  C   UNL     1      -0.468  10.491  18.389  0.00  0.00    +0.000 C 
ATOM     16  F   UNL     1      -0.825   9.685  17.368  0.00  0.00    +0.000 F 
ATOM     17  F   UNL     1      -1.253  10.184  19.447  0.00  0.00    +0.000 F 
ATOM     18  F   UNL     1      -0.758  11.761  18.026  0.00  0.00    +0.000 F 
ENDBRANCH  14  15
ENDBRANCH   9  14
ENDBRANCH   1  11
BRANCH   5  19
ATOM     19  C   UNL     1       5.760   4.489  16.040  0.00  0.00    +0.000 C 
ATOM     20  C   UNL     1       5.853   5.559  14.912  0.00  0.00    +0.000 C 
ATOM     21  O   UNL     1       6.514   4.609  14.039  0.00  0.00    +0.000 OA
ATOM     22  C   UNL     1       5.964   3.522  14.842  0.00  0.00    +0.000 C 
BRANCH  19  23
ATOM     23  C   UNL     1       6.975   4.542  16.995  0.00  0.00    +0.000 C 
BRANCH  23  24
ATOM     24  C   UNL     1       7.413   5.926  17.367  0.00  0.00    +0.000 A 
ATOM     25  N   UNL     1       7.478   6.977  16.568  0.00  0.00    +0.000 NA
ATOM     26  N   UNL     1       7.950   8.048  17.288  0.00  0.00    +0.000 NA
ATOM     27  C   UNL     1       8.122   7.645  18.526  0.00  0.00    +0.000 A 
ATOM     28  N   UNL     1       7.802   6.326  18.623  0.00  0.00    +0.000 N 
ATOM     29  C   UNL     1       7.854   5.543  19.828  0.00  0.00    +0.000 C 
ENDBRANCH  23  24
ENDBRANCH  19  23
ENDBRANCH   5  19
TORSDOF 6
ENDMDL
MODEL 4
REMARK VINA RESULT:      -8.2      1.365      1.563
REMARK  Name = 
REMARK  8 active torsions:
REMARK  status: ('A' for Active; 'I' for Inactive)
REMARK    1  A    between atoms: C_1  and  C_2
REMARK    2  A    between atoms: C_3  and  C_4
REMARK    3  A    between atoms: C_4  and  C_5
REMARK    4  A    between atoms: N_10  and  C_11
REMARK    5  A    between atoms: C_15  and  C_16
REMARK    6  A    between atoms: C_16  and  C_17
REMARK    7  A    between atoms: C_17  and  C_18
REMARK    8  A    between atoms: N_22  and  C_23
REMARK                            x       y       z     vdW  Elec       q    Type
REMARK                         _______ _______ _______ _____ _____    ______ ____
ROOT
ATOM      1  C   UNL     1       6.058   4.614  16.256  0.00  0.00    +0.000 A 
ATOM      2  C   UNL     1       7.067   4.575  17.218  0.00  0.00    +0.000 A 
ATOM      3  C   UNL     1       6.814   4.977  18.527  0.00  0.00    +0.000 A 
ATOM      4  C   UNL     1       5.545   5.427  18.886  0.00  0.00    +0.000 A 
ATOM      5  C   UNL     1       4.487   5.481  17.960  0.00  0.00    +0.000 A 
ATOM      6  C   UNL     1       4.781   5.043  16.651  0.00  0.00    +0.000 A 
ENDROOT
BRANCH   1  11
ATOM      7  C   UNL     1       7.802   4.877  11.560  0.00  0.00    +0.000 C 
ATOM      8  C   UNL     1       7.013   4.364  12.703  0.00  0.00    +0.000 C 
ATOM      9  C   UNL     1       6.076   3.409  12.806  0.00  0.00    +0.000 C 
ATOM     10  C   UNL     1       5.604   3.235  14.218  0.00  0.00    +0.000 C 
ATOM     11  N   UNL     1       6.313   4.289  14.902  0.00  0.00    +0.000 N 
ATOM     12  C   UNL     1       7.165   4.972  14.046  0.00  0.00    +0.000 C 
ATOM     13  O   UNL     1       7.921   5.904  14.266  0.00  0.00    +0.000 OA
BRANCH   9  14
ATOM     14  C   UNL     1       5.465   2.593  11.702  0.00  0.00    +0.000 C 
BRANCH  14  15
ATOM     15  C   UNL     1       6.309   1.451  11.137  0.00  0.00    +0.000 C 
ATOM     16  F   UNL     1       6.343   1.437   9.789  0.00  0.00    +0.000 F 
ATOM     17  F   UNL     1       7.585   1.543  11.578  0.00  0.00    +0.000 F 
ATOM     18  F   UNL     1       5.826   0.256  11.546  0.00  0.00    +0.000 F 
ENDBRANCH  14  15
ENDBRANCH   9  14
ENDBRANCH   1  11
BRANCH   5  19
ATOM     19  C   UNL     1       3.053   6.076  18.351  0.00  0.00    +0.000 C 
ATOM     20  C   UNL     1       2.749   7.503  17.808  0.00  0.00    +0.000 C 
ATOM     21  O   UNL     1       2.105   7.863  19.057  0.00  0.00    +0.000 OA
ATOM     22  C   UNL     1       2.833   6.784  19.716  0.00  0.00    +0.000 C 
BRANCH  19  23
ATOM     23  C   UNL     1       1.933   5.069  18.000  0.00  0.00    +0.000 C 
BRANCH  23  24
ATOM     24  C   UNL     1       1.701   4.012  19.038  0.00  0.00    +0.000 A 
ATOM     25  N   UNL     1       0.991   4.134  20.146  0.00  0.00    +0.000 NA
ATOM     26  N   UNL     1       1.046   2.945  20.835  0.00  0.00    +0.000 NA
ATOM     27  C   UNL     1       1.749   2.104  20.114  0.00  0.00    +0.000 A 
ATOM     28  N   UNL     1       2.181   2.726  18.983  0.00  0.00    +0.000 N 
ATOM     29  C   UNL     1       2.969   2.115  17.946  0.00  0.00    +0.000 C 
ENDBRANCH  23  24
ENDBRANCH  19  23
ENDBRANCH   5  19
TORSDOF 6
ENDMDL
MODEL 5
REMARK VINA RESULT:      -8.1      4.810      8.282
REMARK  Name = 
REMARK  8 active torsions:
REMARK  status: ('A' for Active; 'I' for Inactive)
REMARK    1  A    between atoms: C_1  and  C_2
REMARK    2  A    between atoms: C_3  and  C_4
REMARK    3  A    between atoms: C_4  and  C_5
REMARK    4  A    between atoms: N_10  and  C_11
REMARK    5  A    between atoms: C_15  and  C_16
REMARK    6  A    between atoms: C_16  and  C_17
REMARK    7  A    between atoms: C_17  and  C_18
REMARK    8  A    between atoms: N_22  and  C_23
REMARK                            x       y       z     vdW  Elec       q    Type
REMARK                         _______ _______ _______ _____ _____    ______ ____
ROOT
ATOM      1  C   UNL     1       2.830   5.720  18.445  0.00  0.00    +0.000 A 
ATOM      2  C   UNL     1       2.280   4.474  18.751  0.00  0.00    +0.000 A 
ATOM      3  C   UNL     1       2.781   3.315  18.163  0.00  0.00    +0.000 A 
ATOM      4  C   UNL     1       3.839   3.392  17.260  0.00  0.00    +0.000 A 
ATOM      5  C   UNL     1       4.438   4.619  16.921  0.00  0.00    +0.000 A 
ATOM      6  C   UNL     1       3.914   5.765  17.555  0.00  0.00    +0.000 A 
ENDROOT
BRANCH   1  11
ATOM      7  C   UNL     1       1.406  10.515  18.820  0.00  0.00    +0.000 C 
ATOM      8  C   UNL     1       1.659   9.122  19.253  0.00  0.00    +0.000 C 
ATOM      9  C   UNL     1       1.575   8.510  20.444  0.00  0.00    +0.000 C 
ATOM     10  C   UNL     1       1.898   7.049  20.349  0.00  0.00    +0.000 C 
ATOM     11  N   UNL     1       2.284   6.918  18.966  0.00  0.00    +0.000 N 
ATOM     12  C   UNL     1       2.145   8.115  18.279  0.00  0.00    +0.000 C 
ATOM     13  O   UNL     1       2.363   8.383  17.108  0.00  0.00    +0.000 OA
BRANCH   9  14
ATOM     14  C   UNL     1       1.260   9.126  21.778  0.00  0.00    +0.000 C 
BRANCH  14  15
ATOM     15  C   UNL     1      -0.209   9.158  22.195  0.00  0.00    +0.000 C 
ATOM     16  F   UNL     1      -0.377   9.176  23.533  0.00  0.00    +0.000 F 
ATOM     17  F   UNL     1      -0.821  10.253  21.690  0.00  0.00    +0.000 F 
ATOM     18  F   UNL     1      -0.862   8.073  21.717  0.00  0.00    +0.000 F 
ENDBRANCH  14  15
ENDBRANCH   9  14
ENDBRANCH   1  11
BRANCH   5  19
ATOM     19  C   UNL     1       5.598   4.716  15.820  0.00  0.00    +0.000 C 
ATOM     20  C   UNL     1       5.116   4.742  14.340  0.00  0.00    +0.000 C 
ATOM     21  O   UNL     1       6.216   3.883  13.946  0.00  0.00    +0.000 OA
ATOM     22  C   UNL     1       6.336   3.440  15.330  0.00  0.00    +0.000 C 
BRANCH  19  23
ATOM     23  C   UNL     1       6.555   5.888  16.141  0.00  0.00    +0.000 C 
BRANCH  23  24
ATOM     24  C   UNL     1       7.216   5.799  17.484  0.00  0.00    +0.000 A 
ATOM     25  N   UNL     1       7.408   4.705  18.200  0.00  0.00    +0.000 NA
ATOM     26  N   UNL     1       8.026   5.055  19.377  0.00  0.00    +0.000 NA
ATOM     27  C   UNL     1       8.242   6.349  19.340  0.00  0.00    +0.000 A 
ATOM     28  N   UNL     1       7.751   6.858  18.177  0.00  0.00    +0.000 N 
ATOM     29  C   UNL     1       7.818   8.238  17.779  0.00  0.00    +0.000 C 
ENDBRANCH  23  24
ENDBRANCH  19  23
ENDBRANCH   5  19
TORSDOF 6
ENDMDL
MODEL 6
REMARK VINA RESULT:      -8.1      4.308      8.004
REMARK  Name = 
REMARK  8 active torsions:
REMARK  status: ('A' for Active; 'I' for Inactive)
REMARK    1  A    between atoms: C_1  and  C_2
REMARK    2  A    between atoms: C_3  and  C_4
REMARK    3  A    between atoms: C_4  and  C_5
REMARK    4  A    between atoms: N_10  and  C_11
REMARK    5  A    between atoms: C_15  and  C_16
REMARK    6  A    between atoms: C_16  and  C_17
REMARK    7  A    between atoms: C_17  and  C_18
REMARK    8  A    between atoms: N_22  and  C_23
REMARK                            x       y       z     vdW  Elec       q    Type
REMARK                         _______ _______ _______ _____ _____    ______ ____
ROOT
ATOM      1  C   UNL     1       2.669   5.869  18.193  0.00  0.00    +0.000 A 
ATOM      2  C   UNL     1       1.906   4.703  18.260  0.00  0.00    +0.000 A 
ATOM      3  C   UNL     1       2.305   3.555  17.581  0.00  0.00    +0.000 A 
ATOM      4  C   UNL     1       3.475   3.562  16.825  0.00  0.00    +0.000 A 
ATOM      5  C   UNL     1       4.290   4.707  16.728  0.00  0.00    +0.000 A 
ATOM      6  C   UNL     1       3.859   5.841  17.449  0.00  0.00    +0.000 A 
ENDROOT
BRANCH   1  11
ATOM      7  C   UNL     1       0.864   9.075  21.603  0.00  0.00    +0.000 C 
ATOM      8  C   UNL     1       1.355   8.604  20.288  0.00  0.00    +0.000 C 
ATOM      9  C   UNL     1       1.431   9.190  19.083  0.00  0.00    +0.000 C 
ATOM     10  C   UNL     1       2.060   8.293  18.060  0.00  0.00    +0.000 C 
ATOM     11  N   UNL     1       2.240   7.071  18.806  0.00  0.00    +0.000 N 
ATOM     12  C   UNL     1       1.848   7.216  20.129  0.00  0.00    +0.000 C 
ATOM     13  O   UNL     1       1.864   6.413  21.049  0.00  0.00    +0.000 OA
BRANCH   9  14
ATOM     14  C   UNL     1       0.930  10.550  18.685  0.00  0.00    +0.000 C 
BRANCH  14  15
ATOM     15  C   UNL     1      -0.578  10.703  18.494  0.00  0.00    +0.000 C 
ATOM     16  F   UNL     1      -1.270  10.572  19.644  0.00  0.00    +0.000 F 
ATOM     17  F   UNL     1      -0.869  11.918  17.976  0.00  0.00    +0.000 F 
ATOM     18  F   UNL     1      -1.045   9.772  17.630  0.00  0.00    +0.000 F 
ENDBRANCH  14  15
ENDBRANCH   9  14
ENDBRANCH   1  11
BRANCH   5  19
ATOM     19  C   UNL     1       5.589   4.741  15.793  0.00  0.00    +0.000 C 
ATOM     20  C   UNL     1       5.315   4.656  14.263  0.00  0.00    +0.000 C 
ATOM     21  O   UNL     1       6.462   3.786  14.085  0.00  0.00    +0.000 OA
ATOM     22  C   UNL     1       6.392   3.443  15.502  0.00  0.00    +0.000 C 
BRANCH  19  23
ATOM     23  C   UNL     1       6.489   5.945  16.157  0.00  0.00    +0.000 C 
BRANCH  23  24
ATOM     24  C   UNL     1       7.168   5.832  17.489  0.00  0.00    +0.000 A 
ATOM     25  N   UNL     1       7.339   4.730  18.199  0.00  0.00    +0.000 NA
ATOM     26  N   UNL     1       7.985   5.057  19.367  0.00  0.00    +0.000 NA
ATOM     27  C   UNL     1       8.238   6.344  19.331  0.00  0.00    +0.000 A 
ATOM     28  N   UNL     1       7.745   6.872  18.177  0.00  0.00    +0.000 N 
ATOM     29  C   UNL     1       7.845   8.251  17.782  0.00  0.00    +0.000 C 
ENDBRANCH  23  24
ENDBRANCH  19  23
ENDBRANCH   5  19
TORSDOF 6
ENDMDL
MODEL 7
REMARK VINA RESULT:      -7.9      4.747      8.665
REMARK  Name = 
REMARK  8 active torsions:
REMARK  status: ('A' for Active; 'I' for Inactive)
REMARK    1  A    between atoms: C_1  and  C_2
REMARK    2  A    between atoms: C_3  and  C_4
REMARK    3  A    between atoms: C_4  and  C_5
REMARK    4  A    between atoms: N_10  and  C_11
REMARK    5  A    between atoms: C_15  and  C_16
REMARK    6  A    between atoms: C_16  and  C_17
REMARK    7  A    between atoms: C_17  and  C_18
REMARK    8  A    between atoms: N_22  and  C_23
REMARK                            x       y       z     vdW  Elec       q    Type
REMARK                         _______ _______ _______ _____ _____    ______ ____
ROOT
ATOM      1  C   UNL     1       2.670   6.190  18.413  0.00  0.00    +0.000 A 
ATOM      2  C   UNL     1       1.921   5.018  18.308  0.00  0.00    +0.000 A 
ATOM      3  C   UNL     1       2.433   3.907  17.642  0.00  0.00    +0.000 A 
ATOM      4  C   UNL     1       3.703   3.960  17.071  0.00  0.00    +0.000 A 
ATOM      5  C   UNL     1       4.506   5.112  17.153  0.00  0.00    +0.000 A 
ATOM      6  C   UNL     1       3.957   6.207  17.855  0.00  0.00    +0.000 A 
ENDROOT
BRANCH   1  11
ATOM      7  C   UNL     1       1.162  10.932  19.050  0.00  0.00    +0.000 C 
ATOM      8  C   UNL     1       1.483   9.534  19.417  0.00  0.00    +0.000 C 
ATOM      9  C   UNL     1       1.510   8.885  20.591  0.00  0.00    +0.000 C 
ATOM     10  C   UNL     1       1.860   7.437  20.426  0.00  0.00    +0.000 C 
ATOM     11  N   UNL     1       2.137   7.357  19.013  0.00  0.00    +0.000 N 
ATOM     12  C   UNL     1       1.915   8.570  18.377  0.00  0.00    +0.000 C 
ATOM     13  O   UNL     1       2.032   8.878  17.202  0.00  0.00    +0.000 OA
BRANCH   9  14
ATOM     14  C   UNL     1       1.286   9.453  21.965  0.00  0.00    +0.000 C 
BRANCH  14  15
ATOM     15  C   UNL     1      -0.118   9.315  22.551  0.00  0.00    +0.000 C 
ATOM     16  F   UNL     1      -0.116   9.153  23.889  0.00  0.00    +0.000 F 
ATOM     17  F   UNL     1      -0.858  10.412  22.271  0.00  0.00    +0.000 F 
ATOM     18  F   UNL     1      -0.754   8.249  22.012  0.00  0.00    +0.000 F 
ENDBRANCH  14  15
ENDBRANCH   9  14
ENDBRANCH   1  11
BRANCH   5  19
ATOM     19  C   UNL     1       5.930   5.202  16.426  0.00  0.00    +0.000 C 
ATOM     20  C   UNL     1       6.770   3.890  16.433  0.00  0.00    +0.000 C 
ATOM     21  O   UNL     1       7.985   4.645  16.670  0.00  0.00    +0.000 OA
ATOM     22  C   UNL     1       7.174   5.746  17.181  0.00  0.00    +0.000 C 
BRANCH  19  23
ATOM     23  C   UNL     1       5.778   5.787  15.003  0.00  0.00    +0.000 C 
BRANCH  23  24
ATOM     24  C   UNL     1       5.959   4.790  13.898  0.00  0.00    +0.000 A 
ATOM     25  N   UNL     1       5.110   3.841  13.543  0.00  0.00    +0.000 NA
ATOM     26  N   UNL     1       5.660   3.127  12.505  0.00  0.00    +0.000 NA
ATOM     27  C   UNL     1       6.814   3.681  12.213  0.00  0.00    +0.000 A 
ATOM     28  N   UNL     1       7.045   4.722  13.059  0.00  0.00    +0.000 N 
ATOM     29  C   UNL     1       8.203   5.574  13.034  0.00  0.00    +0.000 C 
ENDBRANCH  23  24
ENDBRANCH  19  23
ENDBRANCH   5  19
TORSDOF 6
ENDMDL
MODEL 8
REMARK VINA RESULT:      -7.9      2.339      3.410
REMARK  Name = 
REMARK  8 active torsions:
REMARK  status: ('A' for Active; 'I' for Inactive)
REMARK    1  A    between atoms: C_1  and  C_2
REMARK    2  A    between atoms: C_3  and  C_4
REMARK    3  A    between atoms: C_4  and  C_5
REMARK    4  A    between atoms: N_10  and  C_11
REMARK    5  A    between atoms: C_15  and  C_16
REMARK    6  A    between atoms: C_16  and  C_17
REMARK    7  A    between atoms: C_17  and  C_18
REMARK    8  A    between atoms: N_22  and  C_23
REMARK                            x       y       z     vdW  Elec       q    Type
REMARK                         _______ _______ _______ _____ _____    ______ ____
ROOT
ATOM      1  C   UNL     1       6.118   4.420  16.395  0.00  0.00    +0.000 A 
ATOM      2  C   UNL     1       7.155   4.786  17.254  0.00  0.00    +0.000 A 
ATOM      3  C   UNL     1       6.894   5.106  18.584  0.00  0.00    +0.000 A 
ATOM      4  C   UNL     1       5.589   5.067  19.068  0.00  0.00    +0.000 A 
ATOM      5  C   UNL     1       4.504   4.697  18.251  0.00  0.00    +0.000 A 
ATOM      6  C   UNL     1       4.816   4.359  16.917  0.00  0.00    +0.000 A 
ENDROOT
BRANCH   1  11
ATOM      7  C   UNL     1       7.748   4.963  11.682  0.00  0.00    +0.000 C 
ATOM      8  C   UNL     1       6.995   4.375  12.814  0.00  0.00    +0.000 C 
ATOM      9  C   UNL     1       6.080   3.397  12.887  0.00  0.00    +0.000 C 
ATOM     10  C   UNL     1       5.644   3.140  14.298  0.00  0.00    +0.000 C 
ATOM     11  N   UNL     1       6.348   4.171  15.021  0.00  0.00    +0.000 N 
ATOM     12  C   UNL     1       7.166   4.915  14.184  0.00  0.00    +0.000 C 
ATOM     13  O   UNL     1       7.909   5.850  14.435  0.00  0.00    +0.000 OA
BRANCH   9  14
ATOM     14  C   UNL     1       5.459   2.627  11.756  0.00  0.00    +0.000 C 
BRANCH  14  15
ATOM     15  C   UNL     1       6.286   1.491  11.157  0.00  0.00    +0.000 C 
ATOM     16  F   UNL     1       6.219   1.442   9.811  0.00  0.00    +0.000 F 
ATOM     17  F   UNL     1       7.589   1.623  11.498  0.00  0.00    +0.000 F 
ATOM     18  F   UNL     1       5.864   0.295  11.630  0.00  0.00    +0.000 F 
ENDBRANCH  14  15
ENDBRANCH   9  14
ENDBRANCH   1  11
BRANCH   5  19
ATOM     19  C   UNL     1       2.995   4.732  18.785  0.00  0.00    +0.000 C 
ATOM     20  C   UNL     1       2.467   3.398  19.390  0.00  0.00    +0.000 C 
ATOM     21  O   UNL     1       1.174   3.603  18.766  0.00  0.00    +0.000 OA
ATOM     22  C   UNL     1       1.804   4.510  17.812  0.00  0.00    +0.000 C 
BRANCH  19  23
ATOM     23  C   UNL     1       2.785   5.928  19.742  0.00  0.00    +0.000 C 
BRANCH  23  24
ATOM     24  C   UNL     1       2.442   7.218  19.059  0.00  0.00    +0.000 A 
ATOM     25  N   UNL     1       2.747   7.561  17.820  0.00  0.00    +0.000 NA
ATOM     26  N   UNL     1       2.274   8.831  17.587  0.00  0.00    +0.000 NA
ATOM     27  C   UNL     1       1.648   9.222  18.672  0.00  0.00    +0.000 A 
ATOM     28  N   UNL     1       1.728   8.249  19.619  0.00  0.00    +0.000 N 
ATOM     29  C   UNL     1       1.149   8.316  20.934  0.00  0.00    +0.000 C 
ENDBRANCH  23  24
ENDBRANCH  19  23
ENDBRANCH   5  19
TORSDOF 6
ENDMDL
MODEL 9
REMARK VINA RESULT:      -7.9      4.324      8.121
REMARK  Name = 
REMARK  8 active torsions:
REMARK  status: ('A' for Active; 'I' for Inactive)
REMARK    1  A    between atoms: C_1  and  C_2
REMARK    2  A    between atoms: C_3  and  C_4
REMARK    3  A    between atoms: C_4  and  C_5
REMARK    4  A    between atoms: N_10  and  C_11
REMARK    5  A    between atoms: C_15  and  C_16
REMARK    6  A    between atoms: C_16  and  C_17
REMARK    7  A    between atoms: C_17  and  C_18
REMARK    8  A    between atoms: N_22  and  C_23
REMARK                            x       y       z     vdW  Elec       q    Type
REMARK                         _______ _______ _______ _____ _____    ______ ____
ROOT
ATOM      1  C   UNL     1       2.597   5.953  18.246  0.00  0.00    +0.000 A 
ATOM      2  C   UNL     1       1.784   4.820  18.294  0.00  0.00    +0.000 A 
ATOM      3  C   UNL     1       2.193   3.629  17.698  0.00  0.00    +0.000 A 
ATOM      4  C   UNL     1       3.420   3.561  17.044  0.00  0.00    +0.000 A 
ATOM      5  C   UNL     1       4.285   4.670  16.971  0.00  0.00    +0.000 A 
ATOM      6  C   UNL     1       3.842   5.849  17.607  0.00  0.00    +0.000 A 
ENDROOT
BRANCH   1  11
ATOM      7  C   UNL     1       0.830   9.400  21.434  0.00  0.00    +0.000 C 
ATOM      8  C   UNL     1       1.296   8.832  20.148  0.00  0.00    +0.000 C 
ATOM      9  C   UNL     1       1.337   9.321  18.899  0.00  0.00    +0.000 C 
ATOM     10  C   UNL     1       1.954   8.352  17.936  0.00  0.00    +0.000 C 
ATOM     11  N   UNL     1       2.167   7.195  18.772  0.00  0.00    +0.000 N 
ATOM     12  C   UNL     1       1.804   7.441  20.088  0.00  0.00    +0.000 C 
ATOM     13  O   UNL     1       1.850   6.714  21.068  0.00  0.00    +0.000 OA
BRANCH   9  14
ATOM     14  C   UNL     1       0.810  10.639  18.407  0.00  0.00    +0.000 C 
BRANCH  14  15
ATOM     15  C   UNL     1       1.726  11.851  18.561  0.00  0.00    +0.000 C 
ATOM     16  F   UNL     1       1.198  12.980  18.045  0.00  0.00    +0.000 F 
ATOM     17  F   UNL     1       1.991  12.082  19.867  0.00  0.00    +0.000 F 
ATOM     18  F   UNL     1       2.909  11.635  17.940  0.00  0.00    +0.000 F 
ENDBRANCH  14  15
ENDBRANCH   9  14
ENDBRANCH   1  11
BRANCH   5  19
ATOM     19  C   UNL     1       5.657   4.616  16.147  0.00  0.00    +0.000 C 
ATOM     20  C   UNL     1       5.787   5.652  14.992  0.00  0.00    +0.000 C 
ATOM     21  O   UNL     1       6.427   4.662  14.148  0.00  0.00    +0.000 OA
ATOM     22  C   UNL     1       5.842   3.612  14.977  0.00  0.00    +0.000 C 
BRANCH  19  23
ATOM     23  C   UNL     1       6.869   4.662  17.108  0.00  0.00    +0.000 C 
BRANCH  23  24
ATOM     24  C   UNL     1       7.337   6.044  17.452  0.00  0.00    +0.000 A 
ATOM     25  N   UNL     1       7.289   7.111  16.674  0.00  0.00    +0.000 NA
ATOM     26  N   UNL     1       7.839   8.173  17.352  0.00  0.00    +0.000 NA
ATOM     27  C   UNL     1       8.171   7.747  18.548  0.00  0.00    +0.000 A 
ATOM     28  N   UNL     1       7.879   6.423  18.656  0.00  0.00    +0.000 N 
ATOM     29  C   UNL     1       8.092   5.615  19.827  0.00  0.00    +0.000 C 
ENDBRANCH  23  24
ENDBRANCH  19  23
ENDBRANCH   5  19
TORSDOF 6
ENDMDL
