MODEL 1
REMARK VINA RESULT:      -9.3      0.000      0.000
REMARK  Name = 
REMARK  3 active torsions:
REMARK  status: ('A' for Active; 'I' for Inactive)
REMARK    1  A    between atoms: C_2  and  C_20
REMARK    2  A    between atoms: N_3  and  C_4
REMARK    3  A    between atoms: C_8  and  C_9
REMARK                            x       y       z     vdW  Elec       q    Type
REMARK                         _______ _______ _______ _____ _____    ______ ____
ROOT
ATOM      1  C   UNL     1       1.848   5.759  20.588  0.00  0.00    +0.000 A 
ATOM      2  C   UNL     1       1.119   4.569  20.503  0.00  0.00    +0.000 A 
ATOM      3  C   UNL     1       1.716   3.396  20.051  0.00  0.00    +0.000 A 
ATOM      4  C   UNL     1       3.044   3.412  19.646  0.00  0.00    +0.000 A 
ATOM      5  C   UNL     1       3.767   4.613  19.614  0.00  0.00    +0.000 A 
ATOM      6  C   UNL     1       3.167   5.781  20.114  0.00  0.00    +0.000 A 
ENDROOT
BRANCH   5   7
ATOM      7  C   UNL     1       5.118   4.666  19.054  0.00  0.00    +0.000 A 
ATOM      8  N   UNL     1       6.240   4.673  19.748  0.00  0.00    +0.000 NA
ATOM      9  N   UNL     1       7.295   4.711  18.873  0.00  0.00    +0.000 NA
ATOM     10  C   UNL     1       6.814   4.754  17.649  0.00  0.00    +0.000 A 
ATOM     11  N   UNL     1       5.444   4.779  17.715  0.00  0.00    +0.000 N 
ATOM     12  C   UNL     1       4.511   4.932  16.616  0.00  0.00    +0.000 C 
ATOM     13  C   UNL     1       4.983   5.848  15.496  0.00  0.00    +0.000 C 
ATOM     14  C   UNL     1       5.952   5.175  14.529  0.00  0.00    +0.000 C 
ATOM     15  C   UNL     1       6.968   4.229  15.168  0.00  0.00    +0.000 C 
ATOM     16  C   UNL     1       7.644   4.807  16.407  0.00  0.00    +0.000 C 
ENDBRANCH   5   7
BRANCH   1  19
ATOM     17  O   UNL     1       1.752   8.418  19.357  0.00  0.00    +0.000 OA
ATOM     18  C   UNL     1       1.331   8.185  20.487  0.00  0.00    +0.000 C 
ATOM     19  N   UNL     1       1.307   6.952  21.116  0.00  0.00    +0.000 N 
ATOM     20  H   UNL     1       0.742   6.859  21.952  0.00  0.00    +0.000 HD
BRANCH  18  21
ATOM     21  C   UNL     1       0.765   9.330  21.242  0.00  0.00    +0.000 A 
ATOM     22  C   UNL     1       0.075   9.034  22.433  0.00  0.00    +0.000 A 
ATOM     23  C   UNL     1      -0.632  10.014  23.135  0.00  0.00    +0.000 A 
ATOM     24  C   UNL     1      -0.617  11.290  22.578  0.00  0.00    +0.000 A 
ATOM     25  N   UNL     1      -1.240  12.460  22.909  0.00  0.00    +0.000 N 
ATOM     26  N   UNL     1      -0.905  13.458  22.077  0.00  0.00    +0.000 NA
ATOM     27  N   UNL     1      -0.087  12.955  21.160  0.00  0.00    +0.000 NA
ATOM     28  C   UNL     1       0.090  11.625  21.430  0.00  0.00    +0.000 A 
ATOM     29  C   UNL     1       0.805  10.639  20.736  0.00  0.00    +0.000 A 
ATOM     30  H   UNL     1      -1.909  12.641  23.647  0.00  0.00    +0.000 HD
ENDBRANCH  18  21
ENDBRANCH   1  19
TORSDOF 3
ENDMDL
MODEL 2
REMARK VINA RESULT:      -9.0      0.607      1.291
REMARK  Name = 
REMARK  3 active torsions:
REMARK  status: ('A' for Active; 'I' for Inactive)
REMARK    1  A    between atoms: C_2  and  C_20
REMARK    2  A    between atoms: N_3  and  C_4
REMARK    3  A    between atoms: C_8  and  C_9
REMARK                            x       y       z     vdW  Elec       q    Type
REMARK                         _______ _______ _______ _____ _____    ______ ____
ROOT
ATOM      1  C   UNL     1       2.001   5.837  20.428  0.00  0.00    +0.000 A 
ATOM      2  C   UNL     1       1.387   4.605  20.674  0.00  0.00    +0.000 A 
ATOM      3  C   UNL     1       2.073   3.412  20.471  0.00  0.00    +0.000 A 
ATOM      4  C   UNL     1       3.372   3.440  19.986  0.00  0.00    +0.000 A 
ATOM      5  C   UNL     1       3.975   4.654  19.624  0.00  0.00    +0.000 A 
ATOM      6  C   UNL     1       3.288   5.853  19.875  0.00  0.00    +0.000 A 
ENDROOT
BRANCH   5   7
ATOM      7  C   UNL     1       5.287   4.681  18.977  0.00  0.00    +0.000 A 
ATOM      8  N   UNL     1       6.451   4.704  19.598  0.00  0.00    +0.000 NA
ATOM      9  N   UNL     1       7.448   4.710  18.657  0.00  0.00    +0.000 NA
ATOM     10  C   UNL     1       6.891   4.717  17.465  0.00  0.00    +0.000 A 
ATOM     11  N   UNL     1       5.527   4.752  17.617  0.00  0.00    +0.000 N 
ATOM     12  C   UNL     1       4.527   4.876  16.576  0.00  0.00    +0.000 C 
ATOM     13  C   UNL     1       4.929   5.754  15.400  0.00  0.00    +0.000 C 
ATOM     14  C   UNL     1       5.833   5.046  14.394  0.00  0.00    +0.000 C 
ATOM     15  C   UNL     1       6.884   4.115  14.997  0.00  0.00    +0.000 C 
ATOM     16  C   UNL     1       7.639   4.727  16.172  0.00  0.00    +0.000 C 
ENDBRANCH   5   7
BRANCH   1  19
ATOM     17  O   UNL     1       2.081   8.304  18.846  0.00  0.00    +0.000 OA
ATOM     18  C   UNL     1       1.486   8.210  19.916  0.00  0.00    +0.000 C 
ATOM     19  N   UNL     1       1.372   7.073  20.696  0.00  0.00    +0.000 N 
ATOM     20  H   UNL     1       0.681   7.075  21.438  0.00  0.00    +0.000 HD
BRANCH  18  21
ATOM     21  C   UNL     1       0.797   9.429  20.410  0.00  0.00    +0.000 A 
ATOM     22  C   UNL     1       0.921  10.595  19.632  0.00  0.00    +0.000 A 
ATOM     23  C   UNL     1       0.451  11.832  20.081  0.00  0.00    +0.000 A 
ATOM     24  C   UNL     1      -0.137  11.836  21.344  0.00  0.00    +0.000 A 
ATOM     25  N   UNL     1      -0.624  12.831  22.144  0.00  0.00    +0.000 N 
ATOM     26  N   UNL     1      -1.121  12.350  23.293  0.00  0.00    +0.000 NA
ATOM     27  N   UNL     1      -0.935  11.035  23.290  0.00  0.00    +0.000 NA
ATOM     28  C   UNL     1      -0.314  10.696  22.118  0.00  0.00    +0.000 A 
ATOM     29  C   UNL     1       0.152   9.457  21.656  0.00  0.00    +0.000 A 
ATOM     30  H   UNL     1      -0.625  13.831  21.990  0.00  0.00    +0.000 HD
ENDBRANCH  18  21
ENDBRANCH   1  19
TORSDOF 3
ENDMDL
MODEL 3
REMARK VINA RESULT:      -8.9      5.191      7.496
REMARK  Name = 
REMARK  3 active torsions:
REMARK  status: ('A' for Active; 'I' for Inactive)
REMARK    1  A    between atoms: C_2  and  C_20
REMARK    2  A    between atoms: N_3  and  C_4
REMARK    3  A    between atoms: C_8  and  C_9
REMARK                            x       y       z     vdW  Elec       q    Type
REMARK                         _______ _______ _______ _____ _____    ______ ____
ROOT
ATOM      1  C   UNL     1       6.440   6.787  16.861  0.00  0.00    +0.000 A 
ATOM      2  C   UNL     1       6.351   6.328  15.544  0.00  0.00    +0.000 A 
ATOM      3  C   UNL     1       5.677   5.148  15.243  0.00  0.00    +0.000 A 
ATOM      4  C   UNL     1       5.115   4.397  16.265  0.00  0.00    +0.000 A 
ATOM      5  C   UNL     1       5.285   4.774  17.606  0.00  0.00    +0.000 A 
ATOM      6  C   UNL     1       5.928   5.989  17.892  0.00  0.00    +0.000 A 
ENDROOT
BRANCH   5   7
ATOM      7  C   UNL     1       4.821   3.914  18.695  0.00  0.00    +0.000 A 
ATOM      8  N   UNL     1       5.579   3.114  19.422  0.00  0.00    +0.000 NA
ATOM      9  N   UNL     1       4.788   2.487  20.350  0.00  0.00    +0.000 NA
ATOM     10  C   UNL     1       3.547   2.885  20.171  0.00  0.00    +0.000 A 
ATOM     11  N   UNL     1       3.511   3.747  19.103  0.00  0.00    +0.000 N 
ATOM     12  C   UNL     1       2.340   4.341  18.489  0.00  0.00    +0.000 C 
ATOM     13  C   UNL     1       1.105   3.452  18.467  0.00  0.00    +0.000 C 
ATOM     14  C   UNL     1       0.350   3.427  19.792  0.00  0.00    +0.000 C 
ATOM     15  C   UNL     1       1.223   3.423  21.046  0.00  0.00    +0.000 C 
ATOM     16  C   UNL     1       2.378   2.428  20.982  0.00  0.00    +0.000 C 
ENDBRANCH   5   7
BRANCH   1  19
ATOM     17  O   UNL     1       8.575   7.293  18.805  0.00  0.00    +0.000 OA
ATOM     18  C   UNL     1       8.026   8.184  18.163  0.00  0.00    +0.000 C 
ATOM     19  N   UNL     1       7.043   8.018  17.203  0.00  0.00    +0.000 N 
ATOM     20  H   UNL     1       6.832   8.806  16.602  0.00  0.00    +0.000 HD
BRANCH  18  21
ATOM     21  C   UNL     1       8.481   9.574  18.418  0.00  0.00    +0.000 A 
ATOM     22  C   UNL     1       8.040  10.566  17.523  0.00  0.00    +0.000 A 
ATOM     23  C   UNL     1       8.534  11.872  17.574  0.00  0.00    +0.000 A 
ATOM     24  C   UNL     1       9.490  12.123  18.555  0.00  0.00    +0.000 A 
ATOM     25  N   UNL     1      10.251  13.216  18.860  0.00  0.00    +0.000 N 
ATOM     26  N   UNL     1      11.039  12.997  19.923  0.00  0.00    +0.000 NA
ATOM     27  N   UNL     1      10.841  11.743  20.315  0.00  0.00    +0.000 NA
ATOM     28  C   UNL     1       9.913  11.178  19.482  0.00  0.00    +0.000 A 
ATOM     29  C   UNL     1       9.407   9.872  19.430  0.00  0.00    +0.000 A 
ATOM     30  H   UNL     1      10.308  14.108  18.384  0.00  0.00    +0.000 HD
ENDBRANCH  18  21
ENDBRANCH   1  19
TORSDOF 3
ENDMDL
MODEL 4
REMARK VINA RESULT:      -8.9      3.347      9.070
REMARK  Name = 
REMARK  3 active torsions:
REMARK  status: ('A' for Active; 'I' for Inactive)
REMARK    1  A    between atoms: C_2  and  C_20
REMARK    2  A    between atoms: N_3  and  C_4
REMARK    3  A    between atoms: C_8  and  C_9
REMARK                            x       y       z     vdW  Elec       q    Type
REMARK                         _______ _______ _______ _____ _____    ______ ____
ROOT
ATOM      1  C   UNL     1       1.270   9.558  18.102  0.00  0.00    +0.000 A 
ATOM      2  C   UNL     1      -0.112   9.565  17.893  0.00  0.00    +0.000 A 
ATOM      3  C   UNL     1      -0.891  10.645  18.298  0.00  0.00    +0.000 A 
ATOM      4  C   UNL     1      -0.295  11.716  18.949  0.00  0.00    +0.000 A 
ATOM      5  C   UNL     1       1.069  11.687  19.273  0.00  0.00    +0.000 A 
ATOM      6  C   UNL     1       1.851  10.612  18.819  0.00  0.00    +0.000 A 
ENDROOT
BRANCH   5   7
ATOM      7  C   UNL     1       1.674  12.744  20.084  0.00  0.00    +0.000 A 
ATOM      8  N   UNL     1       1.424  12.976  21.359  0.00  0.00    +0.000 NA
ATOM      9  N   UNL     1       2.192  14.034  21.769  0.00  0.00    +0.000 NA
ATOM     10  C   UNL     1       2.889  14.463  20.738  0.00  0.00    +0.000 A 
ATOM     11  N   UNL     1       2.557  13.711  19.639  0.00  0.00    +0.000 N 
ATOM     12  C   UNL     1       3.002  13.903  18.273  0.00  0.00    +0.000 C 
ATOM     13  C   UNL     1       3.193  15.354  17.858  0.00  0.00    +0.000 C 
ATOM     14  C   UNL     1       4.514  15.952  18.331  0.00  0.00    +0.000 C 
ATOM     15  C   UNL     1       4.961  15.535  19.731  0.00  0.00    +0.000 C 
ATOM     16  C   UNL     1       3.850  15.608  20.773  0.00  0.00    +0.000 C 
ENDBRANCH   5   7
BRANCH   1  19
ATOM     17  O   UNL     1       2.255   7.215  19.564  0.00  0.00    +0.000 OA
ATOM     18  C   UNL     1       2.564   7.461  18.401  0.00  0.00    +0.000 C 
ATOM     19  N   UNL     1       2.109   8.521  17.637  0.00  0.00    +0.000 N 
ATOM     20  H   UNL     1       2.271   8.487  16.637  0.00  0.00    +0.000 HD
BRANCH  18  21
ATOM     21  C   UNL     1       3.494   6.512  17.739  0.00  0.00    +0.000 A 
ATOM     22  C   UNL     1       3.154   5.147  17.781  0.00  0.00    +0.000 A 
ATOM     23  C   UNL     1       4.033   4.157  17.333  0.00  0.00    +0.000 A 
ATOM     24  C   UNL     1       5.261   4.607  16.854  0.00  0.00    +0.000 A 
ATOM     25  N   UNL     1       6.386   3.963  16.421  0.00  0.00    +0.000 N 
ATOM     26  N   UNL     1       7.336   4.826  16.029  0.00  0.00    +0.000 NA
ATOM     27  N   UNL     1       6.870   6.053  16.233  0.00  0.00    +0.000 NA
ATOM     28  C   UNL     1       5.609   5.948  16.758  0.00  0.00    +0.000 A 
ATOM     29  C   UNL     1       4.719   6.936  17.201  0.00  0.00    +0.000 A 
ATOM     30  H   UNL     1       6.584   2.971  16.395  0.00  0.00    +0.000 HD
ENDBRANCH  18  21
ENDBRANCH   1  19
TORSDOF 3
ENDMDL
MODEL 5
REMARK VINA RESULT:      -8.9      4.101      9.997
REMARK  Name = 
REMARK  3 active torsions:
REMARK  status: ('A' for Active; 'I' for Inactive)
REMARK    1  A    between atoms: C_2  and  C_20
REMARK    2  A    between atoms: N_3  and  C_4
REMARK    3  A    between atoms: C_8  and  C_9
REMARK                            x       y       z     vdW  Elec       q    Type
REMARK                         _______ _______ _______ _____ _____    ______ ____
ROOT
ATOM      1  C   UNL     1       0.631  10.338  18.895  0.00  0.00    +0.000 A 
ATOM      2  C   UNL     1       1.290  11.567  18.991  0.00  0.00    +0.000 A 
ATOM      3  C   UNL     1       0.610  12.762  18.771  0.00  0.00    +0.000 A 
ATOM      4  C   UNL     1      -0.731  12.734  18.419  0.00  0.00    +0.000 A 
ATOM      5  C   UNL     1      -1.390  11.514  18.206  0.00  0.00    +0.000 A 
ATOM      6  C   UNL     1      -0.705  10.318  18.474  0.00  0.00    +0.000 A 
ENDROOT
BRANCH   5   7
ATOM      7  C   UNL     1      -2.761  11.476  17.695  0.00  0.00    +0.000 A 
ATOM      8  N   UNL     1      -3.112  11.227  16.447  0.00  0.00    +0.000 NA
ATOM      9  N   UNL     1      -4.480  11.264  16.363  0.00  0.00    +0.000 NA
ATOM     10  C   UNL     1      -4.959  11.562  17.552  0.00  0.00    +0.000 A 
ATOM     11  N   UNL     1      -3.909  11.757  18.413  0.00  0.00    +0.000 N 
ATOM     12  C   UNL     1      -3.970  12.203  19.791  0.00  0.00    +0.000 C 
ATOM     13  C   UNL     1      -5.067  13.214  20.091  0.00  0.00    +0.000 C 
ATOM     14  C   UNL     1      -6.443  12.581  20.275  0.00  0.00    +0.000 C 
ATOM     15  C   UNL     1      -6.764  11.421  19.334  0.00  0.00    +0.000 C 
ATOM     16  C   UNL     1      -6.411  11.701  17.877  0.00  0.00    +0.000 C 
ENDBRANCH   5   7
BRANCH   1  19
ATOM     17  O   UNL     1       2.456   8.778  17.213  0.00  0.00    +0.000 OA
ATOM     18  C   UNL     1       2.085   8.409  18.324  0.00  0.00    +0.000 C 
ATOM     19  N   UNL     1       1.260   9.108  19.188  0.00  0.00    +0.000 N 
ATOM     20  H   UNL     1       1.207   8.792  20.150  0.00  0.00    +0.000 HD
BRANCH  18  21
ATOM     21  C   UNL     1       2.594   7.099  18.801  0.00  0.00    +0.000 A 
ATOM     22  C   UNL     1       3.504   6.423  17.968  0.00  0.00    +0.000 A 
ATOM     23  C   UNL     1       3.921   5.118  18.241  0.00  0.00    +0.000 A 
ATOM     24  C   UNL     1       3.371   4.530  19.378  0.00  0.00    +0.000 A 
ATOM     25  N   UNL     1       3.460   3.277  19.917  0.00  0.00    +0.000 N 
ATOM     26  N   UNL     1       2.759   3.173  21.056  0.00  0.00    +0.000 NA
ATOM     27  N   UNL     1       2.165   4.341  21.268  0.00  0.00    +0.000 NA
ATOM     28  C   UNL     1       2.505   5.185  20.245  0.00  0.00    +0.000 A 
ATOM     29  C   UNL     1       2.100   6.498  19.969  0.00  0.00    +0.000 A 
ATOM     30  H   UNL     1       3.938   2.461  19.559  0.00  0.00    +0.000 HD
ENDBRANCH  18  21
ENDBRANCH   1  19
TORSDOF 3
ENDMDL
MODEL 6
REMARK VINA RESULT:      -8.9      5.126      7.156
REMARK  Name = 
REMARK  3 active torsions:
REMARK  status: ('A' for Active; 'I' for Inactive)
REMARK    1  A    between atoms: C_2  and  C_20
REMARK    2  A    between atoms: N_3  and  C_4
REMARK    3  A    between atoms: C_8  and  C_9
REMARK                            x       y       z     vdW  Elec       q    Type
REMARK                         _______ _______ _______ _____ _____    ______ ____
ROOT
ATOM      1  C   UNL     1       6.613   6.513  16.825  0.00  0.00    +0.000 A 
ATOM      2  C   UNL     1       6.632   5.940  15.550  0.00  0.00    +0.000 A 
ATOM      3  C   UNL     1       5.990   4.730  15.300  0.00  0.00    +0.000 A 
ATOM      4  C   UNL     1       5.351   4.065  16.337  0.00  0.00    +0.000 A 
ATOM      5  C   UNL     1       5.411   4.558  17.648  0.00  0.00    +0.000 A 
ATOM      6  C   UNL     1       6.024   5.801  17.878  0.00  0.00    +0.000 A 
ENDROOT
BRANCH   5   7
ATOM      7  C   UNL     1       4.865   3.791  18.768  0.00  0.00    +0.000 A 
ATOM      8  N   UNL     1       5.565   3.059  19.615  0.00  0.00    +0.000 NA
ATOM      9  N   UNL     1       4.705   2.509  20.530  0.00  0.00    +0.000 NA
ATOM     10  C   UNL     1       3.481   2.884  20.225  0.00  0.00    +0.000 A 
ATOM     11  N   UNL     1       3.528   3.653  19.089  0.00  0.00    +0.000 N 
ATOM     12  C   UNL     1       2.407   4.188  18.341  0.00  0.00    +0.000 C 
ATOM     13  C   UNL     1       1.176   3.295  18.301  0.00  0.00    +0.000 C 
ATOM     14  C   UNL     1       0.323   3.378  19.563  0.00  0.00    +0.000 C 
ATOM     15  C   UNL     1       1.099   3.483  20.875  0.00  0.00    +0.000 C 
ATOM     16  C   UNL     1       2.254   2.492  20.982  0.00  0.00    +0.000 C 
ENDBRANCH   5   7
BRANCH   1  19
ATOM     17  O   UNL     1       8.575   7.212  18.888  0.00  0.00    +0.000 OA
ATOM     18  C   UNL     1       8.079   8.036  18.125  0.00  0.00    +0.000 C 
ATOM     19  N   UNL     1       7.181   7.775  17.105  0.00  0.00    +0.000 N 
ATOM     20  H   UNL     1       7.019   8.504  16.420  0.00  0.00    +0.000 HD
BRANCH  18  21
ATOM     21  C   UNL     1       8.506   9.449  18.292  0.00  0.00    +0.000 A 
ATOM     22  C   UNL     1       9.344   9.739  19.385  0.00  0.00    +0.000 A 
ATOM     23  C   UNL     1       9.674  11.053  19.728  0.00  0.00    +0.000 A 
ATOM     24  C   UNL     1       9.115  12.048  18.930  0.00  0.00    +0.000 A 
ATOM     25  N   UNL     1       9.129  13.413  18.994  0.00  0.00    +0.000 N 
ATOM     26  N   UNL     1       8.453  13.967  17.976  0.00  0.00    +0.000 NA
ATOM     27  N   UNL     1       7.949  12.980  17.246  0.00  0.00    +0.000 NA
ATOM     28  C   UNL     1       8.321  11.793  17.819  0.00  0.00    +0.000 A 
ATOM     29  C   UNL     1       8.002  10.472  17.475  0.00  0.00    +0.000 A 
ATOM     30  H   UNL     1       9.539  14.015  19.696  0.00  0.00    +0.000 HD
ENDBRANCH  18  21
ENDBRANCH   1  19
TORSDOF 3
ENDMDL
MODEL 7
REMARK VINA RESULT:      -8.7      3.990     10.111
REMARK  Name = 
REMARK  3 active torsions:
REMARK  status: ('A' for Active; 'I' for Inactive)
REMARK    1  A    between atoms: C_2  and  C_20
REMARK    2  A    between atoms: N_3  and  C_4
REMARK    3  A    between atoms: C_8  and  C_9
REMARK                            x       y       z     vdW  Elec       q    Type
REMARK                         _______ _______ _______ _____ _____    ______ ____
ROOT
ATOM      1  C   UNL     1       0.581  10.401  19.135  0.00  0.00    +0.000 A 
ATOM      2  C   UNL     1       1.095  11.639  19.530  0.00  0.00    +0.000 A 
ATOM      3  C   UNL     1       0.304  12.784  19.499  0.00  0.00    +0.000 A 
ATOM      4  C   UNL     1      -1.003  12.703  19.039  0.00  0.00    +0.000 A 
ATOM      5  C   UNL     1      -1.509  11.498  18.531  0.00  0.00    +0.000 A 
ATOM      6  C   UNL     1      -0.716  10.342  18.609  0.00  0.00    +0.000 A 
ENDROOT
BRANCH   5   7
ATOM      7  C   UNL     1      -2.834  11.439  17.911  0.00  0.00    +0.000 A 
ATOM      8  N   UNL     1      -3.083  11.124  16.654  0.00  0.00    +0.000 NA
ATOM      9  N   UNL     1      -4.439  11.162  16.454  0.00  0.00    +0.000 NA
ATOM     10  C   UNL     1      -5.012  11.526  17.582  0.00  0.00    +0.000 A 
ATOM     11  N   UNL     1      -4.034  11.762  18.516  0.00  0.00    +0.000 N 
ATOM     12  C   UNL     1      -4.205  12.282  19.858  0.00  0.00    +0.000 C 
ATOM     13  C   UNL     1      -5.315  13.312  20.012  0.00  0.00    +0.000 C 
ATOM     14  C   UNL     1      -6.706  12.696  20.115  0.00  0.00    +0.000 C 
ATOM     15  C   UNL     1      -6.959  11.488  19.213  0.00  0.00    +0.000 C 
ATOM     16  C   UNL     1      -6.484  11.688  17.778  0.00  0.00    +0.000 C 
ENDBRANCH   5   7
BRANCH   1  19
ATOM     17  O   UNL     1       2.293   9.157  17.106  0.00  0.00    +0.000 OA
ATOM     18  C   UNL     1       2.082   8.655  18.206  0.00  0.00    +0.000 C 
ATOM     19  N   UNL     1       1.322   9.201  19.226  0.00  0.00    +0.000 N 
ATOM     20  H   UNL     1       1.405   8.792  20.149  0.00  0.00    +0.000 HD
BRANCH  18  21
ATOM     21  C   UNL     1       2.731   7.349  18.484  0.00  0.00    +0.000 A 
ATOM     22  C   UNL     1       2.276   6.634  19.607  0.00  0.00    +0.000 A 
ATOM     23  C   UNL     1       2.921   5.477  20.053  0.00  0.00    +0.000 A 
ATOM     24  C   UNL     1       4.041   5.087  19.323  0.00  0.00    +0.000 A 
ATOM     25  N   UNL     1       4.963   4.092  19.488  0.00  0.00    +0.000 N 
ATOM     26  N   UNL     1       5.876   4.088  18.505  0.00  0.00    +0.000 NA
ATOM     27  N   UNL     1       5.596   5.103  17.696  0.00  0.00    +0.000 NA
ATOM     28  C   UNL     1       4.490   5.745  18.185  0.00  0.00    +0.000 A 
ATOM     29  C   UNL     1       3.832   6.900  17.738  0.00  0.00    +0.000 A 
ATOM     30  H   UNL     1       5.049   3.419  20.239  0.00  0.00    +0.000 HD
ENDBRANCH  18  21
ENDBRANCH   1  19
TORSDOF 3
ENDMDL
MODEL 8
REMARK VINA RESULT:      -8.6      2.524      9.164
REMARK  Name = 
REMARK  3 active torsions:
REMARK  status: ('A' for Active; 'I' for Inactive)
REMARK    1  A    between atoms: C_2  and  C_20
REMARK    2  A    between atoms: N_3  and  C_4
REMARK    3  A    between atoms: C_8  and  C_9
REMARK                            x       y       z     vdW  Elec       q    Type
REMARK                         _______ _______ _______ _____ _____    ______ ____
ROOT
ATOM      1  C   UNL     1       1.924   8.069  19.628  0.00  0.00    +0.000 A 
ATOM      2  C   UNL     1       1.429   7.617  20.854  0.00  0.00    +0.000 A 
ATOM      3  C   UNL     1       0.366   8.264  21.478  0.00  0.00    +0.000 A 
ATOM      4  C   UNL     1      -0.188   9.394  20.895  0.00  0.00    +0.000 A 
ATOM      5  C   UNL     1       0.361   9.937  19.724  0.00  0.00    +0.000 A 
ATOM      6  C   UNL     1       1.403   9.249  19.081  0.00  0.00    +0.000 A 
ENDROOT
BRANCH   5   7
ATOM      7  C   UNL     1      -0.123  11.208  19.183  0.00  0.00    +0.000 A 
ATOM      8  N   UNL     1      -1.150  11.356  18.367  0.00  0.00    +0.000 NA
ATOM      9  N   UNL     1      -1.302  12.691  18.095  0.00  0.00    +0.000 NA
ATOM     10  C   UNL     1      -0.353  13.352  18.723  0.00  0.00    +0.000 A 
ATOM     11  N   UNL     1       0.448  12.451  19.381  0.00  0.00    +0.000 N 
ATOM     12  C   UNL     1       1.670  12.727  20.110  0.00  0.00    +0.000 C 
ATOM     13  C   UNL     1       2.529  13.839  19.526  0.00  0.00    +0.000 C 
ATOM     14  C   UNL     1       2.042  15.238  19.890  0.00  0.00    +0.000 C 
ATOM     15  C   UNL     1       0.525  15.424  19.901  0.00  0.00    +0.000 C 
ATOM     16  C   UNL     1      -0.170  14.834  18.679  0.00  0.00    +0.000 C 
ENDBRANCH   5   7
BRANCH   1  19
ATOM     17  O   UNL     1       2.241   5.189  19.180  0.00  0.00    +0.000 OA
ATOM     18  C   UNL     1       3.048   6.024  18.782  0.00  0.00    +0.000 C 
ATOM     19  N   UNL     1       2.945   7.397  18.920  0.00  0.00    +0.000 N 
ATOM     20  H   UNL     1       3.563   7.976  18.363  0.00  0.00    +0.000 HD
BRANCH  18  21
ATOM     21  C   UNL     1       4.237   5.514  18.053  0.00  0.00    +0.000 A 
ATOM     22  C   UNL     1       5.177   4.779  18.798  0.00  0.00    +0.000 A 
ATOM     23  C   UNL     1       6.405   4.392  18.254  0.00  0.00    +0.000 A 
ATOM     24  C   UNL     1       6.638   4.787  16.939  0.00  0.00    +0.000 A 
ATOM     25  N   UNL     1       7.719   4.680  16.109  0.00  0.00    +0.000 N 
ATOM     26  N   UNL     1       7.472   5.201  14.898  0.00  0.00    +0.000 NA
ATOM     27  N   UNL     1       6.240   5.695  14.918  0.00  0.00    +0.000 NA
ATOM     28  C   UNL     1       5.713   5.475  16.163  0.00  0.00    +0.000 A 
ATOM     29  C   UNL     1       4.481   5.852  16.713  0.00  0.00    +0.000 A 
ATOM     30  H   UNL     1       8.638   4.304  16.304  0.00  0.00    +0.000 HD
ENDBRANCH  18  21
ENDBRANCH   1  19
TORSDOF 3
ENDMDL
MODEL 9
REMARK VINA RESULT:      -8.6      2.529      9.161
REMARK  Name = 
REMARK  3 active torsions:
REMARK  status: ('A' for Active; 'I' for Inactive)
REMARK    1  A    between atoms: C_2  and  C_20
REMARK    2  A    between atoms: N_3  and  C_4
REMARK    3  A    between atoms: C_8  and  C_9
REMARK                            x       y       z     vdW  Elec       q    Type
REMARK                         _______ _______ _______ _____ _____    ______ ____
ROOT
ATOM      1  C   UNL     1       1.560   8.318  19.970  0.00  0.00    +0.000 A 
ATOM      2  C   UNL     1       0.980   7.990  21.199  0.00  0.00    +0.000 A 
ATOM      3  C   UNL     1       0.020   8.815  21.778  0.00  0.00    +0.000 A 
ATOM      4  C   UNL     1      -0.343   9.996  21.146  0.00  0.00    +0.000 A 
ATOM      5  C   UNL     1       0.303  10.406  19.971  0.00  0.00    +0.000 A 
ATOM      6  C   UNL     1       1.237   9.543  19.374  0.00  0.00    +0.000 A 
ENDROOT
BRANCH   5   7
ATOM      7  C   UNL     1       0.030  11.715  19.378  0.00  0.00    +0.000 A 
ATOM      8  N   UNL     1      -0.879  11.969  18.456  0.00  0.00    +0.000 NA
ATOM      9  N   UNL     1      -0.846  13.309  18.166  0.00  0.00    +0.000 NA
ATOM     10  C   UNL     1       0.101  13.865  18.892  0.00  0.00    +0.000 A 
ATOM     11  N   UNL     1       0.716  12.888  19.634  0.00  0.00    +0.000 N 
ATOM     12  C   UNL     1       1.877  13.032  20.491  0.00  0.00    +0.000 C 
ATOM     13  C   UNL     1       2.917  14.029  20.001  0.00  0.00    +0.000 C 
ATOM     14  C   UNL     1       2.559  15.480  20.307  0.00  0.00    +0.000 C 
ATOM     15  C   UNL     1       1.082  15.840  20.154  0.00  0.00    +0.000 C 
ATOM     16  C   UNL     1       0.458  15.316  18.865  0.00  0.00    +0.000 C 
ENDBRANCH   5   7
BRANCH   1  19
ATOM     17  O   UNL     1       2.609   8.546  17.242  0.00  0.00    +0.000 OA
ATOM     18  C   UNL     1       2.900   7.625  17.999  0.00  0.00    +0.000 C 
ATOM     19  N   UNL     1       2.478   7.472  19.308  0.00  0.00    +0.000 N 
ATOM     20  H   UNL     1       2.958   6.790  19.883  0.00  0.00    +0.000 HD
BRANCH  18  21
ATOM     21  C   UNL     1       3.819   6.586  17.469  0.00  0.00    +0.000 A 
ATOM     22  C   UNL     1       3.441   5.243  17.651  0.00  0.00    +0.000 A 
ATOM     23  C   UNL     1       4.302   4.188  17.337  0.00  0.00    +0.000 A 
ATOM     24  C   UNL     1       5.554   4.552  16.846  0.00  0.00    +0.000 A 
ATOM     25  N   UNL     1       6.671   3.836  16.517  0.00  0.00    +0.000 N 
ATOM     26  N   UNL     1       7.653   4.627  16.060  0.00  0.00    +0.000 NA
ATOM     27  N   UNL     1       7.217   5.880  16.116  0.00  0.00    +0.000 NA
ATOM     28  C   UNL     1       5.941   5.865  16.614  0.00  0.00    +0.000 A 
ATOM     29  C   UNL     1       5.069   6.917  16.922  0.00  0.00    +0.000 A 
ATOM     30  H   UNL     1       6.842   2.843  16.604  0.00  0.00    +0.000 HD
ENDBRANCH  18  21
ENDBRANCH   1  19
TORSDOF 3
ENDMDL
