MODEL 1
REMARK VINA RESULT:      -8.9      0.000      0.000
REMARK  Name = 
REMARK  6 active torsions:
REMARK  status: ('A' for Active; 'I' for Inactive)
REMARK    1  A    between atoms: C_1  and  C_2
REMARK    2  A    between atoms: C_2  and  C_3
REMARK    3  A    between atoms: C_2  and  C_22
REMARK    4  A    between atoms: C_7  and  N_8
REMARK    5  A    between atoms: C_9  and  C_11
REMARK    6  A    between atoms: N_26  and  C_27
REMARK                            x       y       z     vdW  Elec       q    Type
REMARK                         _______ _______ _______ _____ _____    ______ ____
ROOT
ATOM      1  C   UNL     1       4.561   5.218  17.390  0.00  0.00    +0.000 A 
ATOM      2  C   UNL     1       5.181   4.194  16.652  0.00  0.00    +0.000 A 
ATOM      3  C   UNL     1       6.448   4.381  16.115  0.00  0.00    +0.000 A 
ATOM      4  C   UNL     1       7.099   5.604  16.279  0.00  0.00    +0.000 A 
ATOM      5  C   UNL     1       6.496   6.655  16.978  0.00  0.00    +0.000 A 
ATOM      6  C   UNL     1       5.247   6.438  17.571  0.00  0.00    +0.000 A 
ENDROOT
BRANCH   5   7
ATOM      7  N   UNL     1       7.104   7.929  17.104  0.00  0.00    +0.000 N 
ATOM      8  C   UNL     1       8.033   8.254  18.076  0.00  0.00    +0.000 C 
ATOM      9  O   UNL     1       8.572   7.468  18.856  0.00  0.00    +0.000 OA
ATOM     10  H   UNL     1       6.868   8.620  16.403  0.00  0.00    +0.000 HD
BRANCH   8  11
ATOM     11  C   UNL     1       8.399   9.682  18.223  0.00  0.00    +0.000 A 
ATOM     12  C   UNL     1       7.991  10.696  17.352  0.00  0.00    +0.000 A 
ATOM     13  C   UNL     1       8.464  12.004  17.544  0.00  0.00    +0.000 A 
ATOM     14  C   UNL     1       9.304  12.307  18.629  0.00  0.00    +0.000 A 
ATOM     15  C   UNL     1       9.644  11.287  19.539  0.00  0.00    +0.000 A 
ATOM     16  C   UNL     1       9.240   9.978  19.304  0.00  0.00    +0.000 A 
ATOM     17  C   UNL     1      10.434  11.590  20.756  0.00  0.00    +0.000 C 
ATOM     18  C   UNL     1      10.311  12.870  21.157  0.00  0.00    +0.000 C 
ATOM     19  C   UNL     1      10.712  13.880  20.099  0.00  0.00    +0.000 C 
ATOM     20  C   UNL     1       9.821  13.722  18.846  0.00  0.00    +0.000 C 
ENDBRANCH   8  11
ENDBRANCH   5   7
BRANCH   1  22
ATOM     21  C   UNL     1       2.414   6.376  17.900  0.00  0.00    +0.000 C 
ATOM     22  C   UNL     1       3.118   5.015  17.837  0.00  0.00    +0.000 C 
BRANCH  22  23
ATOM     23  C   UNL     1       2.968   4.270  19.131  0.00  0.00    +0.000 A 
ATOM     24  N   UNL     1       2.798   4.799  20.329  0.00  0.00    +0.000 NA
ATOM     25  N   UNL     1       2.647   3.780  21.237  0.00  0.00    +0.000 NA
ATOM     26  C   UNL     1       2.731   2.649  20.580  0.00  0.00    +0.000 A 
ATOM     27  N   UNL     1       2.944   2.904  19.260  0.00  0.00    +0.000 N 
ATOM     28  C   UNL     1       3.098   1.914  18.228  0.00  0.00    +0.000 C 
ENDBRANCH  22  23
ENDBRANCH   1  22
TORSDOF 4
ENDMDL
MODEL 2
REMARK VINA RESULT:      -8.4      4.811      7.976
REMARK  Name = 
REMARK  6 active torsions:
REMARK  status: ('A' for Active; 'I' for Inactive)
REMARK    1  A    between atoms: C_1  and  C_2
REMARK    2  A    between atoms: C_2  and  C_3
REMARK    3  A    between atoms: C_2  and  C_22
REMARK    4  A    between atoms: C_7  and  N_8
REMARK    5  A    between atoms: C_9  and  C_11
REMARK    6  A    between atoms: N_26  and  C_27
REMARK                            x       y       z     vdW  Elec       q    Type
REMARK                         _______ _______ _______ _____ _____    ______ ____
ROOT
ATOM      1  C   UNL     1       3.485   5.202  18.076  0.00  0.00    +0.000 A 
ATOM      2  C   UNL     1       4.787   5.560  17.681  0.00  0.00    +0.000 A 
ATOM      3  C   UNL     1       5.087   6.876  17.357  0.00  0.00    +0.000 A 
ATOM      4  C   UNL     1       4.086   7.846  17.390  0.00  0.00    +0.000 A 
ATOM      5  C   UNL     1       2.773   7.517  17.744  0.00  0.00    +0.000 A 
ATOM      6  C   UNL     1       2.491   6.202  18.130  0.00  0.00    +0.000 A 
ENDROOT
BRANCH   5   7
ATOM      7  N   UNL     1       1.721   8.467  17.721  0.00  0.00    +0.000 N 
ATOM      8  C   UNL     1       1.205   9.082  18.848  0.00  0.00    +0.000 C 
ATOM      9  O   UNL     1       1.670   9.018  19.986  0.00  0.00    +0.000 OA
ATOM     10  H   UNL     1       1.367   8.736  16.812  0.00  0.00    +0.000 HD
BRANCH   8  11
ATOM     11  C   UNL     1      -0.040   9.868  18.689  0.00  0.00    +0.000 A 
ATOM     12  C   UNL     1      -0.476  10.846  19.588  0.00  0.00    +0.000 A 
ATOM     13  C   UNL     1      -1.714  11.475  19.378  0.00  0.00    +0.000 A 
ATOM     14  C   UNL     1      -2.492  11.160  18.250  0.00  0.00    +0.000 A 
ATOM     15  C   UNL     1      -2.001  10.226  17.317  0.00  0.00    +0.000 A 
ATOM     16  C   UNL     1      -0.814   9.548  17.567  0.00  0.00    +0.000 A 
ATOM     17  C   UNL     1      -2.738   9.952  16.061  0.00  0.00    +0.000 C 
ATOM     18  C   UNL     1      -3.520  10.979  15.675  0.00  0.00    +0.000 C 
ATOM     19  C   UNL     1      -4.544  11.389  16.716  0.00  0.00    +0.000 C 
ATOM     20  C   UNL     1      -3.835  11.836  18.015  0.00  0.00    +0.000 C 
ENDBRANCH   8  11
ENDBRANCH   5   7
BRANCH   1  22
ATOM     21  C   UNL     1       2.251   3.240  17.157  0.00  0.00    +0.000 C 
ATOM     22  C   UNL     1       3.173   3.724  18.283  0.00  0.00    +0.000 C 
BRANCH  22  23
ATOM     23  C   UNL     1       2.598   3.396  19.630  0.00  0.00    +0.000 A 
ATOM     24  N   UNL     1       1.399   3.726  20.076  0.00  0.00    +0.000 NA
ATOM     25  N   UNL     1       1.239   3.188  21.330  0.00  0.00    +0.000 NA
ATOM     26  C   UNL     1       2.340   2.543  21.628  0.00  0.00    +0.000 A 
ATOM     27  N   UNL     1       3.225   2.654  20.600  0.00  0.00    +0.000 N 
ATOM     28  C   UNL     1       4.546   2.086  20.564  0.00  0.00    +0.000 C 
ENDBRANCH  22  23
ENDBRANCH   1  22
TORSDOF 4
ENDMDL
MODEL 3
REMARK VINA RESULT:      -8.4      4.918      8.131
REMARK  Name = 
REMARK  6 active torsions:
REMARK  status: ('A' for Active; 'I' for Inactive)
REMARK    1  A    between atoms: C_1  and  C_2
REMARK    2  A    between atoms: C_2  and  C_3
REMARK    3  A    between atoms: C_2  and  C_22
REMARK    4  A    between atoms: C_7  and  N_8
REMARK    5  A    between atoms: C_9  and  C_11
REMARK    6  A    between atoms: N_26  and  C_27
REMARK                            x       y       z     vdW  Elec       q    Type
REMARK                         _______ _______ _______ _____ _____    ______ ____
ROOT
ATOM      1  C   UNL     1       3.729   5.689  18.843  0.00  0.00    +0.000 A 
ATOM      2  C   UNL     1       4.852   5.850  18.011  0.00  0.00    +0.000 A 
ATOM      3  C   UNL     1       4.965   6.962  17.188  0.00  0.00    +0.000 A 
ATOM      4  C   UNL     1       3.944   7.912  17.158  0.00  0.00    +0.000 A 
ATOM      5  C   UNL     1       2.797   7.764  17.947  0.00  0.00    +0.000 A 
ATOM      6  C   UNL     1       2.719   6.674  18.821  0.00  0.00    +0.000 A 
ENDROOT
BRANCH   5   7
ATOM      7  N   UNL     1       1.715   8.677  17.888  0.00  0.00    +0.000 N 
ATOM      8  C   UNL     1       1.136   9.268  18.997  0.00  0.00    +0.000 C 
ATOM      9  O   UNL     1       1.558   9.213  20.152  0.00  0.00    +0.000 OA
ATOM     10  H   UNL     1       1.387   8.939  16.967  0.00  0.00    +0.000 HD
BRANCH   8  11
ATOM     11  C   UNL     1      -0.130  10.012  18.794  0.00  0.00    +0.000 A 
ATOM     12  C   UNL     1      -0.612  10.999  19.658  0.00  0.00    +0.000 A 
ATOM     13  C   UNL     1      -1.864  11.584  19.408  0.00  0.00    +0.000 A 
ATOM     14  C   UNL     1      -2.609  11.217  18.274  0.00  0.00    +0.000 A 
ATOM     15  C   UNL     1      -2.073  10.274  17.376  0.00  0.00    +0.000 A 
ATOM     16  C   UNL     1      -0.871   9.639  17.666  0.00  0.00    +0.000 A 
ATOM     17  C   UNL     1      -2.776   9.946  16.113  0.00  0.00    +0.000 C 
ATOM     18  C   UNL     1      -3.580  10.938  15.686  0.00  0.00    +0.000 C 
ATOM     19  C   UNL     1      -4.636  11.344  16.696  0.00  0.00    +0.000 C 
ATOM     20  C   UNL     1      -3.967  11.846  17.995  0.00  0.00    +0.000 C 
ENDBRANCH   8  11
ENDBRANCH   5   7
BRANCH   1  22
ATOM     21  C   UNL     1       4.857   3.546  19.438  0.00  0.00    +0.000 C 
ATOM     22  C   UNL     1       3.585   4.385  19.620  0.00  0.00    +0.000 C 
BRANCH  22  23
ATOM     23  C   UNL     1       2.361   3.589  19.273  0.00  0.00    +0.000 A 
ATOM     24  N   UNL     1       1.887   3.360  18.062  0.00  0.00    +0.000 NA
ATOM     25  N   UNL     1       0.788   2.544  18.173  0.00  0.00    +0.000 NA
ATOM     26  C   UNL     1       0.607   2.293  19.447  0.00  0.00    +0.000 A 
ATOM     27  N   UNL     1       1.560   2.935  20.176  0.00  0.00    +0.000 N 
ATOM     28  C   UNL     1       1.682   2.905  21.609  0.00  0.00    +0.000 C 
ENDBRANCH  22  23
ENDBRANCH   1  22
TORSDOF 4
ENDMDL
MODEL 4
REMARK VINA RESULT:      -8.4      4.242      7.441
REMARK  Name = 
REMARK  6 active torsions:
REMARK  status: ('A' for Active; 'I' for Inactive)
REMARK    1  A    between atoms: C_1  and  C_2
REMARK    2  A    between atoms: C_2  and  C_3
REMARK    3  A    between atoms: C_2  and  C_22
REMARK    4  A    between atoms: C_7  and  N_8
REMARK    5  A    between atoms: C_9  and  C_11
REMARK    6  A    between atoms: N_26  and  C_27
REMARK                            x       y       z     vdW  Elec       q    Type
REMARK                         _______ _______ _______ _____ _____    ______ ____
ROOT
ATOM      1  C   UNL     1       4.565   5.136  17.029  0.00  0.00    +0.000 A 
ATOM      2  C   UNL     1       4.041   3.873  16.703  0.00  0.00    +0.000 A 
ATOM      3  C   UNL     1       2.767   3.510  17.119  0.00  0.00    +0.000 A 
ATOM      4  C   UNL     1       2.011   4.390  17.892  0.00  0.00    +0.000 A 
ATOM      5  C   UNL     1       2.515   5.641  18.263  0.00  0.00    +0.000 A 
ATOM      6  C   UNL     1       3.774   6.026  17.789  0.00  0.00    +0.000 A 
ENDROOT
BRANCH   5   7
ATOM      7  N   UNL     1       1.798   6.529  19.103  0.00  0.00    +0.000 N 
ATOM      8  C   UNL     1       1.835   7.907  18.991  0.00  0.00    +0.000 C 
ATOM      9  O   UNL     1       2.356   8.546  18.077  0.00  0.00    +0.000 OA
ATOM     10  H   UNL     1       1.187   6.111  19.795  0.00  0.00    +0.000 HD
BRANCH   8  11
ATOM     11  C   UNL     1       1.222   8.700  20.082  0.00  0.00    +0.000 A 
ATOM     12  C   UNL     1       1.403   8.441  21.444  0.00  0.00    +0.000 A 
ATOM     13  C   UNL     1       0.710   9.211  22.391  0.00  0.00    +0.000 A 
ATOM     14  C   UNL     1      -0.126  10.264  21.981  0.00  0.00    +0.000 A 
ATOM     15  C   UNL     1      -0.237  10.557  20.608  0.00  0.00    +0.000 A 
ATOM     16  C   UNL     1       0.387   9.745  19.669  0.00  0.00    +0.000 A 
ATOM     17  C   UNL     1      -1.018  11.729  20.144  0.00  0.00    +0.000 C 
ATOM     18  C   UNL     1      -1.113  12.699  21.074  0.00  0.00    +0.000 C 
ATOM     19  C   UNL     1      -1.734  12.233  22.378  0.00  0.00    +0.000 C 
ATOM     20  C   UNL     1      -0.882  11.104  23.001  0.00  0.00    +0.000 C 
ENDBRANCH   8  11
ENDBRANCH   5   7
BRANCH   1  22
ATOM     21  C   UNL     1       6.537   4.339  15.729  0.00  0.00    +0.000 C 
ATOM     22  C   UNL     1       6.017   5.431  16.672  0.00  0.00    +0.000 C 
BRANCH  22  23
ATOM     23  C   UNL     1       6.924   5.597  17.856  0.00  0.00    +0.000 A 
ATOM     24  N   UNL     1       7.231   4.674  18.750  0.00  0.00    +0.000 NA
ATOM     25  N   UNL     1       8.133   5.209  19.636  0.00  0.00    +0.000 NA
ATOM     26  C   UNL     1       8.359   6.447  19.272  0.00  0.00    +0.000 A 
ATOM     27  N   UNL     1       7.616   6.740  18.169  0.00  0.00    +0.000 N 
ATOM     28  C   UNL     1       7.592   8.006  17.486  0.00  0.00    +0.000 C 
ENDBRANCH  22  23
ENDBRANCH   1  22
TORSDOF 4
ENDMDL
MODEL 5
REMARK VINA RESULT:      -8.4      4.413      7.494
REMARK  Name = 
REMARK  6 active torsions:
REMARK  status: ('A' for Active; 'I' for Inactive)
REMARK    1  A    between atoms: C_1  and  C_2
REMARK    2  A    between atoms: C_2  and  C_3
REMARK    3  A    between atoms: C_2  and  C_22
REMARK    4  A    between atoms: C_7  and  N_8
REMARK    5  A    between atoms: C_9  and  C_11
REMARK    6  A    between atoms: N_26  and  C_27
REMARK                            x       y       z     vdW  Elec       q    Type
REMARK                         _______ _______ _______ _____ _____    ______ ____
ROOT
ATOM      1  C   UNL     1       4.433   5.359  17.096  0.00  0.00    +0.000 A 
ATOM      2  C   UNL     1       3.667   4.185  16.979  0.00  0.00    +0.000 A 
ATOM      3  C   UNL     1       2.361   4.146  17.450  0.00  0.00    +0.000 A 
ATOM      4  C   UNL     1       1.814   5.266  18.074  0.00  0.00    +0.000 A 
ATOM      5  C   UNL     1       2.560   6.438  18.238  0.00  0.00    +0.000 A 
ATOM      6  C   UNL     1       3.852   6.492  17.705  0.00  0.00    +0.000 A 
ENDROOT
BRANCH   5   7
ATOM      7  N   UNL     1       2.053   7.569  18.927  0.00  0.00    +0.000 N 
ATOM      8  C   UNL     1       1.667   7.561  20.255  0.00  0.00    +0.000 C 
ATOM      9  O   UNL     1       1.846   6.645  21.057  0.00  0.00    +0.000 OA
ATOM     10  H   UNL     1       2.021   8.440  18.412  0.00  0.00    +0.000 HD
BRANCH   8  11
ATOM     11  C   UNL     1       0.942   8.749  20.764  0.00  0.00    +0.000 A 
ATOM     12  C   UNL     1       0.702   9.008  22.117  0.00  0.00    +0.000 A 
ATOM     13  C   UNL     1      -0.065  10.126  22.481  0.00  0.00    +0.000 A 
ATOM     14  C   UNL     1      -0.553  11.006  21.500  0.00  0.00    +0.000 A 
ATOM     15  C   UNL     1      -0.238  10.769  20.147  0.00  0.00    +0.000 A 
ATOM     16  C   UNL     1       0.454   9.621  19.783  0.00  0.00    +0.000 A 
ATOM     17  C   UNL     1      -0.638  11.735  19.096  0.00  0.00    +0.000 C 
ATOM     18  C   UNL     1      -0.798  12.987  19.567  0.00  0.00    +0.000 C 
ATOM     19  C   UNL     1      -1.819  13.092  20.684  0.00  0.00    +0.000 C 
ATOM     20  C   UNL     1      -1.386  12.221  21.885  0.00  0.00    +0.000 C 
ENDBRANCH   8  11
ENDBRANCH   5   7
BRANCH   1  22
ATOM     21  C   UNL     1       6.173   3.997  15.942  0.00  0.00    +0.000 C 
ATOM     22  C   UNL     1       5.902   5.307  16.693  0.00  0.00    +0.000 C 
BRANCH  22  23
ATOM     23  C   UNL     1       6.863   5.484  17.831  0.00  0.00    +0.000 A 
ATOM     24  N   UNL     1       7.234   4.561  18.701  0.00  0.00    +0.000 NA
ATOM     25  N   UNL     1       8.167   5.110  19.546  0.00  0.00    +0.000 NA
ATOM     26  C   UNL     1       8.349   6.355  19.181  0.00  0.00    +0.000 A 
ATOM     27  N   UNL     1       7.545   6.640  18.119  0.00  0.00    +0.000 N 
ATOM     28  C   UNL     1       7.460   7.909  17.448  0.00  0.00    +0.000 C 
ENDBRANCH  22  23
ENDBRANCH   1  22
TORSDOF 4
ENDMDL
MODEL 6
REMARK VINA RESULT:      -8.3      4.128      7.173
REMARK  Name = 
REMARK  6 active torsions:
REMARK  status: ('A' for Active; 'I' for Inactive)
REMARK    1  A    between atoms: C_1  and  C_2
REMARK    2  A    between atoms: C_2  and  C_3
REMARK    3  A    between atoms: C_2  and  C_22
REMARK    4  A    between atoms: C_7  and  N_8
REMARK    5  A    between atoms: C_9  and  C_11
REMARK    6  A    between atoms: N_26  and  C_27
REMARK                            x       y       z     vdW  Elec       q    Type
REMARK                         _______ _______ _______ _____ _____    ______ ____
ROOT
ATOM      1  C   UNL     1       4.634   5.223  16.967  0.00  0.00    +0.000 A 
ATOM      2  C   UNL     1       4.106   3.922  16.899  0.00  0.00    +0.000 A 
ATOM      3  C   UNL     1       2.801   3.670  17.303  0.00  0.00    +0.000 A 
ATOM      4  C   UNL     1       2.018   4.705  17.812  0.00  0.00    +0.000 A 
ATOM      5  C   UNL     1       2.525   6.005  17.926  0.00  0.00    +0.000 A 
ATOM      6  C   UNL     1       3.818   6.265  17.458  0.00  0.00    +0.000 A 
ENDROOT
BRANCH   5   7
ATOM      7  N   UNL     1       1.776   7.062  18.501  0.00  0.00    +0.000 N 
ATOM      8  C   UNL     1       1.862   8.383  18.099  0.00  0.00    +0.000 C 
ATOM      9  O   UNL     1       2.464   8.802  17.110  0.00  0.00    +0.000 OA
ATOM     10  H   UNL     1       1.107   6.811  19.218  0.00  0.00    +0.000 HD
BRANCH   8  11
ATOM     11  C   UNL     1       1.198   9.401  18.946  0.00  0.00    +0.000 A 
ATOM     12  C   UNL     1       0.870  10.691  18.519  0.00  0.00    +0.000 A 
ATOM     13  C   UNL     1       0.313  11.600  19.432  0.00  0.00    +0.000 A 
ATOM     14  C   UNL     1       0.041  11.208  20.754  0.00  0.00    +0.000 A 
ATOM     15  C   UNL     1       0.309   9.881  21.145  0.00  0.00    +0.000 A 
ATOM     16  C   UNL     1       0.933   9.007  20.263  0.00  0.00    +0.000 A 
ATOM     17  C   UNL     1      -0.068   9.398  22.494  0.00  0.00    +0.000 C 
ATOM     18  C   UNL     1      -1.088  10.092  23.035  0.00  0.00    +0.000 C 
ATOM     19  C   UNL     1      -0.817  11.581  23.150  0.00  0.00    +0.000 C 
ATOM     20  C   UNL     1      -0.563  12.186  21.751  0.00  0.00    +0.000 C 
ENDBRANCH   8  11
ENDBRANCH   5   7
BRANCH   1  22
ATOM     21  C   UNL     1       6.601   4.254  15.780  0.00  0.00    +0.000 C 
ATOM     22  C   UNL     1       6.111   5.422  16.646  0.00  0.00    +0.000 C 
BRANCH  22  23
ATOM     23  C   UNL     1       6.988   5.604  17.851  0.00  0.00    +0.000 A 
ATOM     24  N   UNL     1       7.295   4.684  18.748  0.00  0.00    +0.000 NA
ATOM     25  N   UNL     1       8.165   5.236  19.656  0.00  0.00    +0.000 NA
ATOM     26  C   UNL     1       8.372   6.480  19.300  0.00  0.00    +0.000 A 
ATOM     27  N   UNL     1       7.647   6.761  18.182  0.00  0.00    +0.000 N 
ATOM     28  C   UNL     1       7.610   8.027  17.502  0.00  0.00    +0.000 C 
ENDBRANCH  22  23
ENDBRANCH   1  22
TORSDOF 4
ENDMDL
MODEL 7
REMARK VINA RESULT:      -8.2      5.244      7.398
REMARK  Name = 
REMARK  6 active torsions:
REMARK  status: ('A' for Active; 'I' for Inactive)
REMARK    1  A    between atoms: C_1  and  C_2
REMARK    2  A    between atoms: C_2  and  C_3
REMARK    3  A    between atoms: C_2  and  C_22
REMARK    4  A    between atoms: C_7  and  N_8
REMARK    5  A    between atoms: C_9  and  C_11
REMARK    6  A    between atoms: N_26  and  C_27
REMARK                            x       y       z     vdW  Elec       q    Type
REMARK                         _______ _______ _______ _____ _____    ______ ____
ROOT
ATOM      1  C   UNL     1       4.582   4.600  17.366  0.00  0.00    +0.000 A 
ATOM      2  C   UNL     1       3.668   3.541  17.222  0.00  0.00    +0.000 A 
ATOM      3  C   UNL     1       2.316   3.738  17.475  0.00  0.00    +0.000 A 
ATOM      4  C   UNL     1       1.864   4.984  17.907  0.00  0.00    +0.000 A 
ATOM      5  C   UNL     1       2.752   6.049  18.095  0.00  0.00    +0.000 A 
ATOM      6  C   UNL     1       4.102   5.862  17.777  0.00  0.00    +0.000 A 
ENDROOT
BRANCH   5   7
ATOM      7  N   UNL     1       2.332   7.307  18.596  0.00  0.00    +0.000 N 
ATOM      8  C   UNL     1       1.815   7.505  19.863  0.00  0.00    +0.000 C 
ATOM      9  O   UNL     1       1.788   6.676  20.773  0.00  0.00    +0.000 OA
ATOM     10  H   UNL     1       2.468   8.108  17.992  0.00  0.00    +0.000 HD
BRANCH   8  11
ATOM     11  C   UNL     1       1.205   8.824  20.156  0.00  0.00    +0.000 A 
ATOM     12  C   UNL     1       1.188   9.901  19.265  0.00  0.00    +0.000 A 
ATOM     13  C   UNL     1       0.651  11.131  19.678  0.00  0.00    +0.000 A 
ATOM     14  C   UNL     1       0.093  11.271  20.960  0.00  0.00    +0.000 A 
ATOM     15  C   UNL     1       0.053  10.153  21.817  0.00  0.00    +0.000 A 
ATOM     16  C   UNL     1       0.655   8.960  21.436  0.00  0.00    +0.000 A 
ATOM     17  C   UNL     1      -0.627  10.231  23.131  0.00  0.00    +0.000 C 
ATOM     18  C   UNL     1      -1.587  11.176  23.172  0.00  0.00    +0.000 C 
ATOM     19  C   UNL     1      -1.082  12.569  22.844  0.00  0.00    +0.000 C 
ATOM     20  C   UNL     1      -0.491  12.600  21.417  0.00  0.00    +0.000 C 
ENDBRANCH   8  11
ENDBRANCH   5   7
BRANCH   1  22
ATOM     21  C   UNL     1       6.825   4.874  18.418  0.00  0.00    +0.000 C 
ATOM     22  C   UNL     1       6.068   4.298  17.215  0.00  0.00    +0.000 C 
BRANCH  22  23
ATOM     23  C   UNL     1       6.668   4.772  15.924  0.00  0.00    +0.000 A 
ATOM     24  N   UNL     1       7.575   5.721  15.778  0.00  0.00    +0.000 NA
ATOM     25  N   UNL     1       7.900   5.811  14.446  0.00  0.00    +0.000 NA
ATOM     26  C   UNL     1       7.186   4.919  13.803  0.00  0.00    +0.000 A 
ATOM     27  N   UNL     1       6.391   4.252  14.684  0.00  0.00    +0.000 N 
ATOM     28  C   UNL     1       5.461   3.207  14.350  0.00  0.00    +0.000 C 
ENDBRANCH  22  23
ENDBRANCH   1  22
TORSDOF 4
ENDMDL
MODEL 8
REMARK VINA RESULT:      -8.2      0.936      1.283
REMARK  Name = 
REMARK  6 active torsions:
REMARK  status: ('A' for Active; 'I' for Inactive)
REMARK    1  A    between atoms: C_1  and  C_2
REMARK    2  A    between atoms: C_2  and  C_3
REMARK    3  A    between atoms: C_2  and  C_22
REMARK    4  A    between atoms: C_7  and  N_8
REMARK    5  A    between atoms: C_9  and  C_11
REMARK    6  A    between atoms: N_26  and  C_27
REMARK                            x       y       z     vdW  Elec       q    Type
REMARK                         _______ _______ _______ _____ _____    ______ ____
ROOT
ATOM      1  C   UNL     1       4.517   5.667  17.309  0.00  0.00    +0.000 A 
ATOM      2  C   UNL     1       5.067   4.631  16.533  0.00  0.00    +0.000 A 
ATOM      3  C   UNL     1       6.352   4.742  16.019  0.00  0.00    +0.000 A 
ATOM      4  C   UNL     1       7.094   5.902  16.244  0.00  0.00    +0.000 A 
ATOM      5  C   UNL     1       6.563   6.966  16.982  0.00  0.00    +0.000 A 
ATOM      6  C   UNL     1       5.292   6.821  17.550  0.00  0.00    +0.000 A 
ENDROOT
BRANCH   5   7
ATOM      7  N   UNL     1       7.266   8.182  17.171  0.00  0.00    +0.000 N 
ATOM      8  C   UNL     1       8.177   8.403  18.188  0.00  0.00    +0.000 C 
ATOM      9  O   UNL     1       8.618   7.554  18.964  0.00  0.00    +0.000 OA
ATOM     10  H   UNL     1       7.115   8.909  16.483  0.00  0.00    +0.000 HD
BRANCH   8  11
ATOM     11  C   UNL     1       8.650   9.792  18.394  0.00  0.00    +0.000 A 
ATOM     12  C   UNL     1       8.739  10.753  17.383  0.00  0.00    +0.000 A 
ATOM     13  C   UNL     1       9.277  12.017  17.677  0.00  0.00    +0.000 A 
ATOM     14  C   UNL     1       9.682  12.333  18.985  0.00  0.00    +0.000 A 
ATOM     15  C   UNL     1       9.515  11.376  20.006  0.00  0.00    +0.000 A 
ATOM     16  C   UNL     1       9.057  10.101  19.698  0.00  0.00    +0.000 A 
ATOM     17  C   UNL     1       9.825  11.711  21.416  0.00  0.00    +0.000 C 
ATOM     18  C   UNL     1       9.734  13.030  21.675  0.00  0.00    +0.000 C 
ATOM     19  C   UNL     1      10.635  13.884  20.803  0.00  0.00    +0.000 C 
ATOM     20  C   UNL     1      10.266  13.700  19.313  0.00  0.00    +0.000 C 
ENDBRANCH   8  11
ENDBRANCH   5   7
BRANCH   1  22
ATOM     21  C   UNL     1       2.808   6.475  18.934  0.00  0.00    +0.000 C 
ATOM     22  C   UNL     1       3.056   5.558  17.729  0.00  0.00    +0.000 C 
BRANCH  22  23
ATOM     23  C   UNL     1       2.596   4.158  18.014  0.00  0.00    +0.000 A 
ATOM     24  N   UNL     1       1.569   3.538  17.461  0.00  0.00    +0.000 NA
ATOM     25  N   UNL     1       1.521   2.255  17.949  0.00  0.00    +0.000 NA
ATOM     26  C   UNL     1       2.516   2.115  18.791  0.00  0.00    +0.000 A 
ATOM     27  N   UNL     1       3.211   3.283  18.874  0.00  0.00    +0.000 N 
ATOM     28  C   UNL     1       4.363   3.517  19.703  0.00  0.00    +0.000 C 
ENDBRANCH  22  23
ENDBRANCH   1  22
TORSDOF 4
ENDMDL
MODEL 9
REMARK VINA RESULT:      -8.2      4.036      7.423
REMARK  Name = 
REMARK  6 active torsions:
REMARK  status: ('A' for Active; 'I' for Inactive)
REMARK    1  A    between atoms: C_1  and  C_2
REMARK    2  A    between atoms: C_2  and  C_3
REMARK    3  A    between atoms: C_2  and  C_22
REMARK    4  A    between atoms: C_7  and  N_8
REMARK    5  A    between atoms: C_9  and  C_11
REMARK    6  A    between atoms: N_26  and  C_27
REMARK                            x       y       z     vdW  Elec       q    Type
REMARK                         _______ _______ _______ _____ _____    ______ ____
ROOT
ATOM      1  C   UNL     1       4.842   5.439  16.658  0.00  0.00    +0.000 A 
ATOM      2  C   UNL     1       4.566   4.066  16.532  0.00  0.00    +0.000 A 
ATOM      3  C   UNL     1       3.474   3.504  17.179  0.00  0.00    +0.000 A 
ATOM      4  C   UNL     1       2.660   4.298  17.987  0.00  0.00    +0.000 A 
ATOM      5  C   UNL     1       2.927   5.661  18.162  0.00  0.00    +0.000 A 
ATOM      6  C   UNL     1       3.991   6.233  17.457  0.00  0.00    +0.000 A 
ENDROOT
BRANCH   5   7
ATOM      7  N   UNL     1       2.159   6.477  19.029  0.00  0.00    +0.000 N 
ATOM      8  C   UNL     1       1.919   7.823  18.819  0.00  0.00    +0.000 C 
ATOM      9  O   UNL     1       2.195   8.459  17.801  0.00  0.00    +0.000 OA
ATOM     10  H   UNL     1       1.726   6.021  19.823  0.00  0.00    +0.000 HD
BRANCH   8  11
ATOM     11  C   UNL     1       1.301   8.590  19.926  0.00  0.00    +0.000 A 
ATOM     12  C   UNL     1       1.442   8.274  21.281  0.00  0.00    +0.000 A 
ATOM     13  C   UNL     1       0.747   9.025  22.241  0.00  0.00    +0.000 A 
ATOM     14  C   UNL     1      -0.052  10.115  21.854  0.00  0.00    +0.000 A 
ATOM     15  C   UNL     1      -0.123  10.464  20.491  0.00  0.00    +0.000 A 
ATOM     16  C   UNL     1       0.503   9.672  19.535  0.00  0.00    +0.000 A 
ATOM     17  C   UNL     1      -0.862  11.672  20.056  0.00  0.00    +0.000 C 
ATOM     18  C   UNL     1      -0.954  12.608  21.021  0.00  0.00    +0.000 C 
ATOM     19  C   UNL     1      -1.618  12.109  22.290  0.00  0.00    +0.000 C 
ATOM     20  C   UNL     1      -0.810  10.935  22.889  0.00  0.00    +0.000 C 
ENDBRANCH   8  11
ENDBRANCH   5   7
BRANCH   1  22
ATOM     21  C   UNL     1       6.871   4.834  15.342  0.00  0.00    +0.000 C 
ATOM     22  C   UNL     1       6.129   5.978  16.045  0.00  0.00    +0.000 C 
BRANCH  22  23
ATOM     23  C   UNL     1       7.028   6.686  17.016  0.00  0.00    +0.000 A 
ATOM     24  N   UNL     1       7.351   7.966  17.002  0.00  0.00    +0.000 NA
ATOM     25  N   UNL     1       8.146   8.227  18.091  0.00  0.00    +0.000 NA
ATOM     26  C   UNL     1       8.297   7.103  18.749  0.00  0.00    +0.000 A 
ATOM     27  N   UNL     1       7.626   6.107  18.108  0.00  0.00    +0.000 N 
ATOM     28  C   UNL     1       7.567   4.732  18.525  0.00  0.00    +0.000 C 
ENDBRANCH  22  23
ENDBRANCH   1  22
TORSDOF 4
ENDMDL
