MODEL 1
REMARK VINA RESULT:      -8.4      0.000      0.000
REMARK  Name = 
REMARK  6 active torsions:
REMARK  status: ('A' for Active; 'I' for Inactive)
REMARK    1  A    between atoms: C_2  and  C_11
REMARK    2  A    between atoms: N_3  and  C_4
REMARK    3  A    between atoms: C_4  and  C_5
REMARK    4  A    between atoms: C_15  and  N_16
REMARK    5  A    between atoms: N_16  and  S_17
REMARK    6  A    between atoms: S_17  and  C_20
REMARK                            x       y       z     vdW  Elec       q    Type
REMARK                         _______ _______ _______ _____ _____    ______ ____
ROOT
ATOM      1  C   UNL     1       1.098   9.049  19.521  0.00  0.00    +0.000 A 
ATOM      2  C   UNL     1       1.545   9.376  18.233  0.00  0.00    +0.000 A 
ATOM      3  C   UNL     1       2.480   8.571  17.588  0.00  0.00    +0.000 A 
ATOM      4  C   UNL     1       2.979   7.439  18.235  0.00  0.00    +0.000 A 
ATOM      5  C   UNL     1       2.532   7.113  19.518  0.00  0.00    +0.000 A 
ATOM      6  C   UNL     1       1.584   7.907  20.166  0.00  0.00    +0.000 A 
ENDROOT
BRANCH   1   8
ATOM      7  O   UNL     1      -0.343   9.666  21.263  0.00  0.00    +0.000 OA
ATOM      8  C   UNL     1       0.053   9.910  20.125  0.00  0.00    +0.000 C 
ATOM      9  N   UNL     1      -0.438  10.938  19.350  0.00  0.00    +0.000 N 
ATOM     10  H   UNL     1      -0.245  10.957  18.360  0.00  0.00    +0.000 HD
BRANCH   9  11
ATOM     11  C   UNL     1      -1.530  11.756  19.839  0.00  0.00    +0.000 C 
BRANCH  11  12
ATOM     12  C   UNL     1      -2.716  11.722  18.914  0.00  0.00    +0.000 A 
ATOM     13  C   UNL     1      -3.976  12.138  19.359  0.00  0.00    +0.000 A 
ATOM     14  C   UNL     1      -5.045  12.094  18.478  0.00  0.00    +0.000 A 
ATOM     15  N   UNL     1      -4.946  11.665  17.201  0.00  0.00    +0.000 NA
ATOM     16  C   UNL     1      -3.727  11.254  16.794  0.00  0.00    +0.000 A 
ATOM     17  C   UNL     1      -2.598  11.259  17.601  0.00  0.00    +0.000 A 
ENDBRANCH  11  12
ENDBRANCH   9  11
ENDBRANCH   1   8
BRANCH   5  18
ATOM     18  N   UNL     1       3.047   5.960  20.160  0.00  0.00    +0.000 N 
ATOM     19  H   UNL     1       3.861   6.052  20.765  0.00  0.00    +0.000 HD
BRANCH  18  20
ATOM     20  S   UNL     1       2.884   4.448  19.441  0.00  0.00    +0.000 S 
ATOM     21  O   UNL     1       3.105   3.474  20.489  0.00  0.00    +0.000 OA
ATOM     22  O   UNL     1       1.691   4.421  18.624  0.00  0.00    +0.000 OA
BRANCH  20  23
ATOM     23  C   UNL     1       4.292   4.346  18.348  0.00  0.00    +0.000 A 
ATOM     24  C   UNL     1       4.083   4.080  16.985  0.00  0.00    +0.000 A 
ATOM     25  C   UNL     1       5.163   4.096  16.099  0.00  0.00    +0.000 A 
ATOM     26  C   UNL     1       6.436   4.389  16.577  0.00  0.00    +0.000 A 
ATOM     27  F   UNL     1       7.470   4.410  15.724  0.00  0.00    +0.000 F 
ATOM     28  C   UNL     1       6.637   4.662  17.928  0.00  0.00    +0.000 A 
ATOM     29  F   UNL     1       7.866   4.952  18.375  0.00  0.00    +0.000 F 
ATOM     30  C   UNL     1       5.571   4.647  18.824  0.00  0.00    +0.000 A 
ENDBRANCH  20  23
ENDBRANCH  18  20
ENDBRANCH   5  18
TORSDOF 6
ENDMDL
MODEL 2
REMARK VINA RESULT:      -8.3      0.465      1.005
REMARK  Name = 
REMARK  6 active torsions:
REMARK  status: ('A' for Active; 'I' for Inactive)
REMARK    1  A    between atoms: C_2  and  C_11
REMARK    2  A    between atoms: N_3  and  C_4
REMARK    3  A    between atoms: C_4  and  C_5
REMARK    4  A    between atoms: C_15  and  N_16
REMARK    5  A    between atoms: N_16  and  S_17
REMARK    6  A    between atoms: S_17  and  C_20
REMARK                            x       y       z     vdW  Elec       q    Type
REMARK                         _______ _______ _______ _____ _____    ______ ____
ROOT
ATOM      1  C   UNL     1       1.129   9.129  19.690  0.00  0.00    +0.000 A 
ATOM      2  C   UNL     1       1.460   9.411  18.357  0.00  0.00    +0.000 A 
ATOM      3  C   UNL     1       2.286   8.549  17.641  0.00  0.00    +0.000 A 
ATOM      4  C   UNL     1       2.791   7.404  18.260  0.00  0.00    +0.000 A 
ATOM      5  C   UNL     1       2.460   7.123  19.588  0.00  0.00    +0.000 A 
ATOM      6  C   UNL     1       1.620   7.975  20.309  0.00  0.00    +0.000 A 
ENDROOT
BRANCH   1   8
ATOM      7  O   UNL     1      -0.290   9.724  21.457  0.00  0.00    +0.000 OA
ATOM      8  C   UNL     1       0.192  10.052  20.374  0.00  0.00    +0.000 C 
ATOM      9  N   UNL     1      -0.106  11.234  19.733  0.00  0.00    +0.000 N 
ATOM     10  H   UNL     1       0.136  11.352  18.760  0.00  0.00    +0.000 HD
BRANCH   9  11
ATOM     11  C   UNL     1      -1.089  12.137  20.296  0.00  0.00    +0.000 C 
BRANCH  11  12
ATOM     12  C   UNL     1      -2.407  12.056  19.574  0.00  0.00    +0.000 A 
ATOM     13  C   UNL     1      -2.484  11.482  18.299  0.00  0.00    +0.000 A 
ATOM     14  C   UNL     1      -3.715  11.423  17.665  0.00  0.00    +0.000 A 
ATOM     15  N   UNL     1      -4.859  11.895  18.205  0.00  0.00    +0.000 NA
ATOM     16  C   UNL     1      -4.763  12.457  19.429  0.00  0.00    +0.000 A 
ATOM     17  C   UNL     1      -3.577  12.565  20.142  0.00  0.00    +0.000 A 
ENDBRANCH  11  12
ENDBRANCH   9  11
ENDBRANCH   1   8
BRANCH   5  18
ATOM     18  N   UNL     1       2.980   5.957  20.202  0.00  0.00    +0.000 N 
ATOM     19  H   UNL     1       3.795   6.038  20.807  0.00  0.00    +0.000 HD
BRANCH  18  20
ATOM     20  S   UNL     1       2.819   4.462  19.447  0.00  0.00    +0.000 S 
ATOM     21  O   UNL     1       3.008   3.465  20.480  0.00  0.00    +0.000 OA
ATOM     22  O   UNL     1       1.646   4.464  18.603  0.00  0.00    +0.000 OA
BRANCH  20  23
ATOM     23  C   UNL     1       4.252   4.369  18.386  0.00  0.00    +0.000 A 
ATOM     24  C   UNL     1       4.078   4.058  17.027  0.00  0.00    +0.000 A 
ATOM     25  C   UNL     1       5.175   4.079  16.162  0.00  0.00    +0.000 A 
ATOM     26  C   UNL     1       6.429   4.422  16.656  0.00  0.00    +0.000 A 
ATOM     27  F   UNL     1       7.478   4.449  15.822  0.00  0.00    +0.000 F 
ATOM     28  C   UNL     1       6.595   4.740  18.001  0.00  0.00    +0.000 A 
ATOM     29  F   UNL     1       7.805   5.079  18.463  0.00  0.00    +0.000 F 
ATOM     30  C   UNL     1       5.512   4.721  18.877  0.00  0.00    +0.000 A 
ENDBRANCH  20  23
ENDBRANCH  18  20
ENDBRANCH   5  18
TORSDOF 6
ENDMDL
MODEL 3
REMARK VINA RESULT:      -8.0      4.933      9.919
REMARK  Name = 
REMARK  6 active torsions:
REMARK  status: ('A' for Active; 'I' for Inactive)
REMARK    1  A    between atoms: C_2  and  C_11
REMARK    2  A    between atoms: N_3  and  C_4
REMARK    3  A    between atoms: C_4  and  C_5
REMARK    4  A    between atoms: C_15  and  N_16
REMARK    5  A    between atoms: N_16  and  S_17
REMARK    6  A    between atoms: S_17  and  C_20
REMARK                            x       y       z     vdW  Elec       q    Type
REMARK                         _______ _______ _______ _____ _____    ______ ____
ROOT
ATOM      1  C   UNL     1       2.374   7.358  18.898  0.00  0.00    +0.000 A 
ATOM      2  C   UNL     1       2.610   8.261  17.852  0.00  0.00    +0.000 A 
ATOM      3  C   UNL     1       1.975   9.500  17.837  0.00  0.00    +0.000 A 
ATOM      4  C   UNL     1       1.093   9.836  18.866  0.00  0.00    +0.000 A 
ATOM      5  C   UNL     1       0.859   8.936  19.909  0.00  0.00    +0.000 A 
ATOM      6  C   UNL     1       1.503   7.698  19.939  0.00  0.00    +0.000 A 
ENDROOT
BRANCH   1   8
ATOM      7  O   UNL     1       3.855   5.809  19.845  0.00  0.00    +0.000 OA
ATOM      8  C   UNL     1       3.132   6.084  18.890  0.00  0.00    +0.000 C 
ATOM      9  N   UNL     1       2.996   5.280  17.779  0.00  0.00    +0.000 N 
ATOM     10  H   UNL     1       2.575   5.650  16.940  0.00  0.00    +0.000 HD
BRANCH   9  11
ATOM     11  C   UNL     1       3.784   4.070  17.660  0.00  0.00    +0.000 C 
BRANCH  11  12
ATOM     12  C   UNL     1       5.125   4.331  17.029  0.00  0.00    +0.000 A 
ATOM     13  C   UNL     1       6.285   4.357  17.812  0.00  0.00    +0.000 A 
ATOM     14  C   UNL     1       7.502   4.600  17.196  0.00  0.00    +0.000 A 
ATOM     15  N   UNL     1       7.641   4.820  15.871  0.00  0.00    +0.000 NA
ATOM     16  C   UNL     1       6.510   4.805  15.134  0.00  0.00    +0.000 A 
ATOM     17  C   UNL     1       5.246   4.574  15.659  0.00  0.00    +0.000 A 
ENDBRANCH  11  12
ENDBRANCH   9  11
ENDBRANCH   1   8
BRANCH   5  18
ATOM     18  N   UNL     1      -0.038   9.293  20.946  0.00  0.00    +0.000 N 
ATOM     19  H   UNL     1      -1.038   9.163  20.802  0.00  0.00    +0.000 HD
BRANCH  18  20
ATOM     20  S   UNL     1       0.355  10.532  22.014  0.00  0.00    +0.000 S 
ATOM     21  O   UNL     1       0.533   9.909  23.308  0.00  0.00    +0.000 OA
ATOM     22  O   UNL     1       1.378  11.373  21.433  0.00  0.00    +0.000 OA
BRANCH  20  23
ATOM     23  C   UNL     1      -1.145  11.494  22.116  0.00  0.00    +0.000 A 
ATOM     24  C   UNL     1      -1.633  12.127  20.961  0.00  0.00    +0.000 A 
ATOM     25  C   UNL     1      -2.857  12.799  20.999  0.00  0.00    +0.000 A 
ATOM     26  C   UNL     1      -3.587  12.824  22.183  0.00  0.00    +0.000 A 
ATOM     27  F   UNL     1      -4.764  13.464  22.215  0.00  0.00    +0.000 F 
ATOM     28  C   UNL     1      -3.105  12.186  23.323  0.00  0.00    +0.000 A 
ATOM     29  F   UNL     1      -3.821  12.208  24.453  0.00  0.00    +0.000 F 
ATOM     30  C   UNL     1      -1.885  11.514  23.301  0.00  0.00    +0.000 A 
ENDBRANCH  20  23
ENDBRANCH  18  20
ENDBRANCH   5  18
TORSDOF 6
ENDMDL
MODEL 4
REMARK VINA RESULT:      -8.0      2.620      2.822
REMARK  Name = 
REMARK  6 active torsions:
REMARK  status: ('A' for Active; 'I' for Inactive)
REMARK    1  A    between atoms: C_2  and  C_11
REMARK    2  A    between atoms: N_3  and  C_4
REMARK    3  A    between atoms: C_4  and  C_5
REMARK    4  A    between atoms: C_15  and  N_16
REMARK    5  A    between atoms: N_16  and  S_17
REMARK    6  A    between atoms: S_17  and  C_20
REMARK                            x       y       z     vdW  Elec       q    Type
REMARK                         _______ _______ _______ _____ _____    ______ ____
ROOT
ATOM      1  C   UNL     1       0.941   8.561  20.492  0.00  0.00    +0.000 A 
ATOM      2  C   UNL     1       0.930   9.363  19.342  0.00  0.00    +0.000 A 
ATOM      3  C   UNL     1       1.763   9.062  18.267  0.00  0.00    +0.000 A 
ATOM      4  C   UNL     1       2.617   7.960  18.344  0.00  0.00    +0.000 A 
ATOM      5  C   UNL     1       2.627   7.161  19.490  0.00  0.00    +0.000 A 
ATOM      6  C   UNL     1       1.785   7.447  20.566  0.00  0.00    +0.000 A 
ENDROOT
BRANCH   1   8
ATOM      7  O   UNL     1      -0.861   8.068  21.906  0.00  0.00    +0.000 OA
ATOM      8  C   UNL     1      -0.017   8.897  21.573  0.00  0.00    +0.000 C 
ATOM      9  N   UNL     1       0.084  10.152  22.133  0.00  0.00    +0.000 N 
ATOM     10  H   UNL     1       0.637  10.862  21.677  0.00  0.00    +0.000 HD
BRANCH   9  11
ATOM     11  C   UNL     1      -0.882  10.583  23.123  0.00  0.00    +0.000 C 
BRANCH  11  12
ATOM     12  C   UNL     1      -1.407  11.963  22.833  0.00  0.00    +0.000 A 
ATOM     13  C   UNL     1      -2.726  12.304  23.157  0.00  0.00    +0.000 A 
ATOM     14  C   UNL     1      -3.174  13.585  22.876  0.00  0.00    +0.000 A 
ATOM     15  N   UNL     1      -2.409  14.536  22.297  0.00  0.00    +0.000 NA
ATOM     16  C   UNL     1      -1.146  14.184  21.978  0.00  0.00    +0.000 A 
ATOM     17  C   UNL     1      -0.607  12.928  22.217  0.00  0.00    +0.000 A 
ENDBRANCH  11  12
ENDBRANCH   9  11
ENDBRANCH   1   8
BRANCH   5  18
ATOM     18  N   UNL     1       3.499   6.046  19.552  0.00  0.00    +0.000 N 
ATOM     19  H   UNL     1       4.468   6.190  19.829  0.00  0.00    +0.000 HD
BRANCH  18  20
ATOM     20  S   UNL     1       3.255   4.726  18.538  0.00  0.00    +0.000 S 
ATOM     21  O   UNL     1       3.445   3.547  19.356  0.00  0.00    +0.000 OA
ATOM     22  O   UNL     1       2.052   4.921  17.761  0.00  0.00    +0.000 OA
BRANCH  20  23
ATOM     23  C   UNL     1       4.642   4.793  17.416  0.00  0.00    +0.000 A 
ATOM     24  C   UNL     1       4.639   3.977  16.273  0.00  0.00    +0.000 A 
ATOM     25  C   UNL     1       5.667   4.089  15.334  0.00  0.00    +0.000 A 
ATOM     26  C   UNL     1       6.679   5.022  15.536  0.00  0.00    +0.000 A 
ATOM     27  F   UNL     1       7.660   5.132  14.629  0.00  0.00    +0.000 F 
ATOM     28  C   UNL     1       6.673   5.837  16.664  0.00  0.00    +0.000 A 
ATOM     29  F   UNL     1       7.647   6.738  16.843  0.00  0.00    +0.000 F 
ATOM     30  C   UNL     1       5.657   5.735  17.611  0.00  0.00    +0.000 A 
ENDBRANCH  20  23
ENDBRANCH  18  20
ENDBRANCH   5  18
TORSDOF 6
ENDMDL
MODEL 5
REMARK VINA RESULT:      -8.0      3.362      4.615
REMARK  Name = 
REMARK  6 active torsions:
REMARK  status: ('A' for Active; 'I' for Inactive)
REMARK    1  A    between atoms: C_2  and  C_11
REMARK    2  A    between atoms: N_3  and  C_4
REMARK    3  A    between atoms: C_4  and  C_5
REMARK    4  A    between atoms: C_15  and  N_16
REMARK    5  A    between atoms: N_16  and  S_17
REMARK    6  A    between atoms: S_17  and  C_20
REMARK                            x       y       z     vdW  Elec       q    Type
REMARK                         _______ _______ _______ _____ _____    ______ ____
ROOT
ATOM      1  C   UNL     1       2.839   5.958  19.244  0.00  0.00    +0.000 A 
ATOM      2  C   UNL     1       2.136   5.170  20.166  0.00  0.00    +0.000 A 
ATOM      3  C   UNL     1       2.609   3.909  20.518  0.00  0.00    +0.000 A 
ATOM      4  C   UNL     1       3.785   3.427  19.940  0.00  0.00    +0.000 A 
ATOM      5  C   UNL     1       4.486   4.213  19.022  0.00  0.00    +0.000 A 
ATOM      6  C   UNL     1       4.026   5.485  18.675  0.00  0.00    +0.000 A 
ENDROOT
BRANCH   1   8
ATOM      7  O   UNL     1       2.493   7.809  17.850  0.00  0.00    +0.000 OA
ATOM      8  C   UNL     1       2.317   7.317  18.963  0.00  0.00    +0.000 C 
ATOM      9  N   UNL     1       1.676   7.969  19.993  0.00  0.00    +0.000 N 
ATOM     10  H   UNL     1       1.756   7.617  20.936  0.00  0.00    +0.000 HD
BRANCH   9  11
ATOM     11  C   UNL     1       1.230   9.336  19.820  0.00  0.00    +0.000 C 
BRANCH  11  12
ATOM     12  C   UNL     1       0.472   9.836  21.020  0.00  0.00    +0.000 A 
ATOM     13  C   UNL     1      -0.325  10.984  20.930  0.00  0.00    +0.000 A 
ATOM     14  C   UNL     1      -1.009  11.414  22.056  0.00  0.00    +0.000 A 
ATOM     15  N   UNL     1      -0.951  10.789  23.252  0.00  0.00    +0.000 NA
ATOM     16  C   UNL     1      -0.167   9.693  23.324  0.00  0.00    +0.000 A 
ATOM     17  C   UNL     1       0.558   9.186  22.254  0.00  0.00    +0.000 A 
ENDBRANCH  11  12
ENDBRANCH   9  11
ENDBRANCH   1   8
BRANCH   5  18
ATOM     18  N   UNL     1       5.679   3.711  18.445  0.00  0.00    +0.000 N 
ATOM     19  H   UNL     1       6.066   2.835  18.792  0.00  0.00    +0.000 HD
BRANCH  18  20
ATOM     20  S   UNL     1       6.819   4.770  17.806  0.00  0.00    +0.000 S 
ATOM     21  O   UNL     1       6.300   6.104  18.023  0.00  0.00    +0.000 OA
ATOM     22  O   UNL     1       8.141   4.392  18.250  0.00  0.00    +0.000 OA
BRANCH  20  23
ATOM     23  C   UNL     1       6.733   4.473  16.048  0.00  0.00    +0.000 A 
ATOM     24  C   UNL     1       5.706   3.660  15.539  0.00  0.00    +0.000 A 
ATOM     25  C   UNL     1       5.564   3.499  14.159  0.00  0.00    +0.000 A 
ATOM     26  C   UNL     1       6.437   4.158  13.300  0.00  0.00    +0.000 A 
ATOM     27  F   UNL     1       6.294   4.006  11.975  0.00  0.00    +0.000 F 
ATOM     28  C   UNL     1       7.447   4.971  13.807  0.00  0.00    +0.000 A 
ATOM     29  F   UNL     1       8.275   5.607  12.970  0.00  0.00    +0.000 F 
ATOM     30  C   UNL     1       7.604   5.139  15.181  0.00  0.00    +0.000 A 
ENDBRANCH  20  23
ENDBRANCH  18  20
ENDBRANCH   5  18
TORSDOF 6
ENDMDL
MODEL 6
REMARK VINA RESULT:      -8.0      1.941      3.051
REMARK  Name = 
REMARK  6 active torsions:
REMARK  status: ('A' for Active; 'I' for Inactive)
REMARK    1  A    between atoms: C_2  and  C_11
REMARK    2  A    between atoms: N_3  and  C_4
REMARK    3  A    between atoms: C_4  and  C_5
REMARK    4  A    between atoms: C_15  and  N_16
REMARK    5  A    between atoms: N_16  and  S_17
REMARK    6  A    between atoms: S_17  and  C_20
REMARK                            x       y       z     vdW  Elec       q    Type
REMARK                         _______ _______ _______ _____ _____    ______ ____
ROOT
ATOM      1  C   UNL     1       1.012   8.987  19.957  0.00  0.00    +0.000 A 
ATOM      2  C   UNL     1       1.226   9.432  18.645  0.00  0.00    +0.000 A 
ATOM      3  C   UNL     1       2.080   8.732  17.796  0.00  0.00    +0.000 A 
ATOM      4  C   UNL     1       2.731   7.588  18.261  0.00  0.00    +0.000 A 
ATOM      5  C   UNL     1       2.516   7.144  19.569  0.00  0.00    +0.000 A 
ATOM      6  C   UNL     1       1.651   7.831  20.422  0.00  0.00    +0.000 A 
ENDROOT
BRANCH   1   8
ATOM      7  O   UNL     1      -0.316   9.269  21.866  0.00  0.00    +0.000 OA
ATOM      8  C   UNL     1       0.041   9.738  20.788  0.00  0.00    +0.000 C 
ATOM      9  N   UNL     1      -0.431  10.928  20.280  0.00  0.00    +0.000 N 
ATOM     10  H   UNL     1      -0.281  11.153  19.307  0.00  0.00    +0.000 HD
BRANCH   9  11
ATOM     11  C   UNL     1      -1.456  11.665  20.991  0.00  0.00    +0.000 C 
BRANCH  11  12
ATOM     12  C   UNL     1      -0.892  12.862  21.708  0.00  0.00    +0.000 A 
ATOM     13  C   UNL     1       0.288  13.467  21.261  0.00  0.00    +0.000 A 
ATOM     14  C   UNL     1       0.776  14.569  21.946  0.00  0.00    +0.000 A 
ATOM     15  N   UNL     1       0.178  15.099  23.035  0.00  0.00    +0.000 NA
ATOM     16  C   UNL     1      -0.951  14.494  23.459  0.00  0.00    +0.000 A 
ATOM     17  C   UNL     1      -1.516  13.386  22.843  0.00  0.00    +0.000 A 
ENDBRANCH  11  12
ENDBRANCH   9  11
ENDBRANCH   1   8
BRANCH   5  18
ATOM     18  N   UNL     1       3.183   5.981  20.025  0.00  0.00    +0.000 N 
ATOM     19  H   UNL     1       4.087   6.076  20.485  0.00  0.00    +0.000 HD
BRANCH  18  20
ATOM     20  S   UNL     1       2.957   4.513  19.235  0.00  0.00    +0.000 S 
ATOM     21  O   UNL     1       3.129   3.483  20.238  0.00  0.00    +0.000 OA
ATOM     22  O   UNL     1       1.770   4.577  18.413  0.00  0.00    +0.000 OA
BRANCH  20  23
ATOM     23  C   UNL     1       4.366   4.399  18.145  0.00  0.00    +0.000 A 
ATOM     24  C   UNL     1       4.159   4.111  16.786  0.00  0.00    +0.000 A 
ATOM     25  C   UNL     1       5.239   4.117  15.900  0.00  0.00    +0.000 A 
ATOM     26  C   UNL     1       6.511   4.422  16.374  0.00  0.00    +0.000 A 
ATOM     27  F   UNL     1       7.544   4.434  15.520  0.00  0.00    +0.000 F 
ATOM     28  C   UNL     1       6.710   4.717  17.720  0.00  0.00    +0.000 A 
ATOM     29  F   UNL     1       7.938   5.018  18.162  0.00  0.00    +0.000 F 
ATOM     30  C   UNL     1       5.644   4.712  18.616  0.00  0.00    +0.000 A 
ENDBRANCH  20  23
ENDBRANCH  18  20
ENDBRANCH   5  18
TORSDOF 6
ENDMDL
MODEL 7
REMARK VINA RESULT:      -8.0      2.520      3.308
REMARK  Name = 
REMARK  6 active torsions:
REMARK  status: ('A' for Active; 'I' for Inactive)
REMARK    1  A    between atoms: C_2  and  C_11
REMARK    2  A    between atoms: N_3  and  C_4
REMARK    3  A    between atoms: C_4  and  C_5
REMARK    4  A    between atoms: C_15  and  N_16
REMARK    5  A    between atoms: N_16  and  S_17
REMARK    6  A    between atoms: S_17  and  C_20
REMARK                            x       y       z     vdW  Elec       q    Type
REMARK                         _______ _______ _______ _____ _____    ______ ____
ROOT
ATOM      1  C   UNL     1       2.148   7.912  18.732  0.00  0.00    +0.000 A 
ATOM      2  C   UNL     1       1.986   7.467  20.052  0.00  0.00    +0.000 A 
ATOM      3  C   UNL     1       2.566   6.271  20.467  0.00  0.00    +0.000 A 
ATOM      4  C   UNL     1       3.305   5.511  19.558  0.00  0.00    +0.000 A 
ATOM      5  C   UNL     1       3.467   5.955  18.243  0.00  0.00    +0.000 A 
ATOM      6  C   UNL     1       2.901   7.160  17.823  0.00  0.00    +0.000 A 
ENDROOT
BRANCH   1   8
ATOM      7  O   UNL     1       2.075   9.886  17.473  0.00  0.00    +0.000 OA
ATOM      8  C   UNL     1       1.561   9.224  18.373  0.00  0.00    +0.000 C 
ATOM      9  N   UNL     1       0.468   9.643  19.098  0.00  0.00    +0.000 N 
ATOM     10  H   UNL     1       0.227   9.174  19.959  0.00  0.00    +0.000 HD
BRANCH   9  11
ATOM     11  C   UNL     1      -0.095  10.958  18.868  0.00  0.00    +0.000 C 
BRANCH  11  12
ATOM     12  C   UNL     1      -1.478  10.882  18.279  0.00  0.00    +0.000 A 
ATOM     13  C   UNL     1      -1.761   9.982  17.245  0.00  0.00    +0.000 A 
ATOM     14  C   UNL     1      -3.047   9.940  16.729  0.00  0.00    +0.000 A 
ATOM     15  N   UNL     1      -4.055  10.725  17.164  0.00  0.00    +0.000 NA
ATOM     16  C   UNL     1      -3.760  11.597  18.151  0.00  0.00    +0.000 A 
ATOM     17  C   UNL     1      -2.504  11.715  18.731  0.00  0.00    +0.000 A 
ENDBRANCH  11  12
ENDBRANCH   9  11
ENDBRANCH   1   8
BRANCH   5  18
ATOM     18  N   UNL     1       4.220   5.172  17.333  0.00  0.00    +0.000 N 
ATOM     19  H   UNL     1       3.858   4.265  17.043  0.00  0.00    +0.000 HD
BRANCH  18  20
ATOM     20  S   UNL     1       5.897   5.293  17.303  0.00  0.00    +0.000 S 
ATOM     21  O   UNL     1       6.204   6.702  17.438  0.00  0.00    +0.000 OA
ATOM     22  O   UNL     1       6.476   4.305  18.185  0.00  0.00    +0.000 OA
BRANCH  20  23
ATOM     23  C   UNL     1       6.323   4.841  15.629  0.00  0.00    +0.000 A 
ATOM     24  C   UNL     1       5.478   3.973  14.918  0.00  0.00    +0.000 A 
ATOM     25  C   UNL     1       5.742   3.688  13.576  0.00  0.00    +0.000 A 
ATOM     26  C   UNL     1       6.836   4.279  12.954  0.00  0.00    +0.000 A 
ATOM     27  F   UNL     1       7.082   4.009  11.664  0.00  0.00    +0.000 F 
ATOM     28  C   UNL     1       7.665   5.147  13.659  0.00  0.00    +0.000 A 
ATOM     29  F   UNL     1       8.710   5.718  13.046  0.00  0.00    +0.000 F 
ATOM     30  C   UNL     1       7.417   5.439  14.998  0.00  0.00    +0.000 A 
ENDBRANCH  20  23
ENDBRANCH  18  20
ENDBRANCH   5  18
TORSDOF 6
ENDMDL
MODEL 8
REMARK VINA RESULT:      -8.0      1.252      1.965
REMARK  Name = 
REMARK  6 active torsions:
REMARK  status: ('A' for Active; 'I' for Inactive)
REMARK    1  A    between atoms: C_2  and  C_11
REMARK    2  A    between atoms: N_3  and  C_4
REMARK    3  A    between atoms: C_4  and  C_5
REMARK    4  A    between atoms: C_15  and  N_16
REMARK    5  A    between atoms: N_16  and  S_17
REMARK    6  A    between atoms: S_17  and  C_20
REMARK                            x       y       z     vdW  Elec       q    Type
REMARK                         _______ _______ _______ _____ _____    ______ ____
ROOT
ATOM      1  C   UNL     1       1.802   8.336  19.158  0.00  0.00    +0.000 A 
ATOM      2  C   UNL     1       2.277   8.672  17.883  0.00  0.00    +0.000 A 
ATOM      3  C   UNL     1       3.261   7.897  17.273  0.00  0.00    +0.000 A 
ATOM      4  C   UNL     1       3.779   6.788  17.943  0.00  0.00    +0.000 A 
ATOM      5  C   UNL     1       3.304   6.453  19.214  0.00  0.00    +0.000 A 
ATOM      6  C   UNL     1       2.308   7.215  19.826  0.00  0.00    +0.000 A 
ENDROOT
BRANCH   1   8
ATOM      7  O   UNL     1       0.322   8.945  20.870  0.00  0.00    +0.000 OA
ATOM      8  C   UNL     1       0.708   9.162  19.723  0.00  0.00    +0.000 C 
ATOM      9  N   UNL     1       0.162  10.126  18.904  0.00  0.00    +0.000 N 
ATOM     10  H   UNL     1       0.358  10.113  17.914  0.00  0.00    +0.000 HD
BRANCH   9  11
ATOM     11  C   UNL     1      -0.975  10.902  19.355  0.00  0.00    +0.000 C 
BRANCH  11  12
ATOM     12  C   UNL     1      -2.095  10.894  18.351  0.00  0.00    +0.000 A 
ATOM     13  C   UNL     1      -1.966  10.189  17.148  0.00  0.00    +0.000 A 
ATOM     14  C   UNL     1      -3.019  10.204  16.248  0.00  0.00    +0.000 A 
ATOM     15  N   UNL     1      -4.176  10.868  16.458  0.00  0.00    +0.000 NA
ATOM     16  C   UNL     1      -4.277  11.553  17.616  0.00  0.00    +0.000 A 
ATOM     17  C   UNL     1      -3.278  11.601  18.579  0.00  0.00    +0.000 A 
ENDBRANCH  11  12
ENDBRANCH   9  11
ENDBRANCH   1   8
BRANCH   5  18
ATOM     18  N   UNL     1       3.840   5.323  19.880  0.00  0.00    +0.000 N 
ATOM     19  H   UNL     1       4.529   5.463  20.616  0.00  0.00    +0.000 HD
BRANCH  18  20
ATOM     20  S   UNL     1       3.973   3.852  19.075  0.00  0.00    +0.000 S 
ATOM     21  O   UNL     1       4.696   2.968  19.964  0.00  0.00    +0.000 OA
ATOM     22  O   UNL     1       2.691   3.481  18.518  0.00  0.00    +0.000 OA
BRANCH  20  23
ATOM     23  C   UNL     1       5.071   4.213  17.715  0.00  0.00    +0.000 A 
ATOM     24  C   UNL     1       6.413   4.527  17.983  0.00  0.00    +0.000 A 
ATOM     25  C   UNL     1       7.309   4.713  16.928  0.00  0.00    +0.000 A 
ATOM     26  C   UNL     1       6.863   4.572  15.618  0.00  0.00    +0.000 A 
ATOM     27  F   UNL     1       7.727   4.744  14.607  0.00  0.00    +0.000 F 
ATOM     28  C   UNL     1       5.534   4.250  15.356  0.00  0.00    +0.000 A 
ATOM     29  F   UNL     1       5.118   4.107  14.092  0.00  0.00    +0.000 F 
ATOM     30  C   UNL     1       4.628   4.064  16.397  0.00  0.00    +0.000 A 
ENDBRANCH  20  23
ENDBRANCH  18  20
ENDBRANCH   5  18
TORSDOF 6
ENDMDL
MODEL 9
REMARK VINA RESULT:      -7.9      2.584      3.232
REMARK  Name = 
REMARK  6 active torsions:
REMARK  status: ('A' for Active; 'I' for Inactive)
REMARK    1  A    between atoms: C_2  and  C_11
REMARK    2  A    between atoms: N_3  and  C_4
REMARK    3  A    between atoms: C_4  and  C_5
REMARK    4  A    between atoms: C_15  and  N_16
REMARK    5  A    between atoms: N_16  and  S_17
REMARK    6  A    between atoms: S_17  and  C_20
REMARK                            x       y       z     vdW  Elec       q    Type
REMARK                         _______ _______ _______ _____ _____    ______ ____
ROOT
ATOM      1  C   UNL     1       2.342   8.183  18.440  0.00  0.00    +0.000 A 
ATOM      2  C   UNL     1       2.084   7.387  19.565  0.00  0.00    +0.000 A 
ATOM      3  C   UNL     1       2.773   6.193  19.755  0.00  0.00    +0.000 A 
ATOM      4  C   UNL     1       3.719   5.784  18.812  0.00  0.00    +0.000 A 
ATOM      5  C   UNL     1       3.976   6.578  17.691  0.00  0.00    +0.000 A 
ATOM      6  C   UNL     1       3.300   7.784  17.501  0.00  0.00    +0.000 A 
ENDROOT
BRANCH   1   8
ATOM      7  O   UNL     1       2.084  10.360  17.615  0.00  0.00    +0.000 OA
ATOM      8  C   UNL     1       1.623   9.474  18.332  0.00  0.00    +0.000 C 
ATOM      9  N   UNL     1       0.471   9.616  19.074  0.00  0.00    +0.000 N 
ATOM     10  H   UNL     1       0.262   8.954  19.807  0.00  0.00    +0.000 HD
BRANCH   9  11
ATOM     11  C   UNL     1      -0.228  10.885  19.094  0.00  0.00    +0.000 C 
BRANCH  11  12
ATOM     12  C   UNL     1      -1.529  10.821  18.342  0.00  0.00    +0.000 A 
ATOM     13  C   UNL     1      -2.603  11.641  18.709  0.00  0.00    +0.000 A 
ATOM     14  C   UNL     1      -3.786  11.555  17.992  0.00  0.00    +0.000 A 
ATOM     15  N   UNL     1      -3.971  10.718  16.949  0.00  0.00    +0.000 NA
ATOM     16  C   UNL     1      -2.929   9.925  16.618  0.00  0.00    +0.000 A 
ATOM     17  C   UNL     1      -1.707   9.936  17.276  0.00  0.00    +0.000 A 
ENDBRANCH  11  12
ENDBRANCH   9  11
ENDBRANCH   1   8
BRANCH   5  18
ATOM     18  N   UNL     1       4.939   6.150  16.744  0.00  0.00    +0.000 N 
ATOM     19  H   UNL     1       5.036   6.664  15.869  0.00  0.00    +0.000 HD
BRANCH  18  20
ATOM     20  S   UNL     1       5.364   4.526  16.645  0.00  0.00    +0.000 S 
ATOM     21  O   UNL     1       6.445   4.332  17.589  0.00  0.00    +0.000 OA
ATOM     22  O   UNL     1       4.174   3.706  16.681  0.00  0.00    +0.000 OA
BRANCH  20  23
ATOM     23  C   UNL     1       6.079   4.373  15.017  0.00  0.00    +0.000 A 
ATOM     24  C   UNL     1       5.413   3.609  14.045  0.00  0.00    +0.000 A 
ATOM     25  C   UNL     1       5.906   3.561  12.739  0.00  0.00    +0.000 A 
ATOM     26  C   UNL     1       7.048   4.284  12.411  0.00  0.00    +0.000 A 
ATOM     27  F   UNL     1       7.514   4.242  11.155  0.00  0.00    +0.000 F 
ATOM     28  C   UNL     1       7.699   5.049  13.375  0.00  0.00    +0.000 A 
ATOM     29  F   UNL     1       8.792   5.749  13.046  0.00  0.00    +0.000 F 
ATOM     30  C   UNL     1       7.223   5.105  14.682  0.00  0.00    +0.000 A 
ENDBRANCH  20  23
ENDBRANCH  18  20
ENDBRANCH   5  18
TORSDOF 6
ENDMDL
