MODEL 1
REMARK VINA RESULT:      -8.1      0.000      0.000
REMARK  Name = 
REMARK  7 active torsions:
REMARK  status: ('A' for Active; 'I' for Inactive)
REMARK    1  A    between atoms: C_1  and  C_2
REMARK    2  A    between atoms: C_4  and  S_5
REMARK    3  A    between atoms: S_5  and  C_6
REMARK    4  A    between atoms: C_6  and  C_7
REMARK    5  A    between atoms: C_6  and  C_8
REMARK    6  A    between atoms: N_10  and  C_11
REMARK    7  A    between atoms: C_16  and  C_17
REMARK                            x       y       z     vdW  Elec       q    Type
REMARK                         _______ _______ _______ _____ _____    ______ ____
ROOT
ATOM      1  C   UNL     1       2.163   8.456  19.182  0.00  0.00    +0.000 C 
ATOM      2  C   UNL     1       1.294   8.080  20.376  0.00  0.00    +0.000 C 
ENDROOT
BRANCH   1   3
ATOM      3  C   UNL     1       2.813   7.190  18.592  0.00  0.00    +0.000 C 
ATOM      4  O   UNL     1       3.669   7.294  17.716  0.00  0.00    +0.000 OA
ATOM      5  N   UNL     1       2.351   5.991  19.143  0.00  0.00    +0.000 N 
ATOM      6  H   UNL     1       1.522   6.085  19.731  0.00  0.00    +0.000 HD
BRANCH   5   7
ATOM      7  C   UNL     1       2.725   4.673  18.765  0.00  0.00    +0.000 A 
ATOM      8  C   UNL     1       3.496   4.448  17.615  0.00  0.00    +0.000 A 
ATOM      9  C   UNL     1       3.812   3.156  17.189  0.00  0.00    +0.000 A 
ATOM     10  C   UNL     1       3.378   2.058  17.915  0.00  0.00    +0.000 A 
ATOM     11  C   UNL     1       2.653   2.258  19.086  0.00  0.00    +0.000 A 
ATOM     12  C   UNL     1       2.326   3.561  19.533  0.00  0.00    +0.000 A 
BRANCH  12  13
ATOM     13  C   UNL     1       1.535   3.651  20.812  0.00  0.00    +0.000 C 
ATOM     14  F   UNL     1       1.121   2.447  21.304  0.00  0.00    +0.000 F 
ATOM     15  F   UNL     1       2.234   4.240  21.823  0.00  0.00    +0.000 F 
ATOM     16  F   UNL     1       0.400   4.394  20.670  0.00  0.00    +0.000 F 
ENDBRANCH  12  13
ENDBRANCH   5   7
ENDBRANCH   1   3
BRANCH   1  17
ATOM     17  S   UNL     1       1.243   9.275  17.822  0.00  0.00    +0.000 S 
BRANCH  17  21
ATOM     18  C   UNL     1       0.791  13.187  21.106  0.00  0.00    +0.000 C 
ATOM     19  C   UNL     1       0.146  12.281  20.103  0.00  0.00    +0.000 A 
ATOM     20  N   UNL     1       0.890  11.322  19.529  0.00  0.00    +0.000 NA
ATOM     21  C   UNL     1       0.252  10.506  18.671  0.00  0.00    +0.000 A 
ATOM     22  C   UNL     1      -1.117  10.610  18.370  0.00  0.00    +0.000 A 
ATOM     23  C   UNL     1      -1.854   9.756  17.500  0.00  0.00    +0.000 A 
ATOM     24  C   UNL     1      -3.214   9.947  17.286  0.00  0.00    +0.000 A 
ATOM     25  C   UNL     1      -3.856  10.994  17.923  0.00  0.00    +0.000 A 
ATOM     26  C   UNL     1      -3.136  11.835  18.776  0.00  0.00    +0.000 A 
ATOM     27  C   UNL     1      -1.779  11.653  19.021  0.00  0.00    +0.000 A 
ATOM     28  N   UNL     1      -1.163  12.479  19.870  0.00  0.00    +0.000 NA
ENDBRANCH  17  21
ENDBRANCH   1  17
TORSDOF 5
ENDMDL
MODEL 2
REMARK VINA RESULT:      -8.1      3.412      5.132
REMARK  Name = 
REMARK  7 active torsions:
REMARK  status: ('A' for Active; 'I' for Inactive)
REMARK    1  A    between atoms: C_1  and  C_2
REMARK    2  A    between atoms: C_4  and  S_5
REMARK    3  A    between atoms: S_5  and  C_6
REMARK    4  A    between atoms: C_6  and  C_7
REMARK    5  A    between atoms: C_6  and  C_8
REMARK    6  A    between atoms: N_10  and  C_11
REMARK    7  A    between atoms: C_16  and  C_17
REMARK                            x       y       z     vdW  Elec       q    Type
REMARK                         _______ _______ _______ _____ _____    ______ ____
ROOT
ATOM      1  C   UNL     1      -0.394  12.990  18.657  0.00  0.00    +0.000 C 
ATOM      2  C   UNL     1       0.125  14.384  18.988  0.00  0.00    +0.000 C 
ENDROOT
BRANCH   1   3
ATOM      3  C   UNL     1       0.729  11.955  18.859  0.00  0.00    +0.000 C 
ATOM      4  O   UNL     1       1.883  12.333  19.049  0.00  0.00    +0.000 OA
ATOM      5  N   UNL     1       0.304  10.623  18.812  0.00  0.00    +0.000 N 
ATOM      6  H   UNL     1      -0.650  10.492  18.476  0.00  0.00    +0.000 HD
BRANCH   5   7
ATOM      7  C   UNL     1       1.115   9.460  18.913  0.00  0.00    +0.000 A 
ATOM      8  C   UNL     1       1.814   8.974  17.799  0.00  0.00    +0.000 A 
ATOM      9  C   UNL     1       2.557   7.792  17.860  0.00  0.00    +0.000 A 
ATOM     10  C   UNL     1       2.632   7.079  19.047  0.00  0.00    +0.000 A 
ATOM     11  C   UNL     1       1.987   7.568  20.178  0.00  0.00    +0.000 A 
ATOM     12  C   UNL     1       1.231   8.764  20.134  0.00  0.00    +0.000 A 
BRANCH  12  13
ATOM     13  C   UNL     1       0.576   9.191  21.421  0.00  0.00    +0.000 C 
ATOM     14  F   UNL     1       1.152   8.673  22.545  0.00  0.00    +0.000 F 
ATOM     15  F   UNL     1       0.587  10.543  21.593  0.00  0.00    +0.000 F 
ATOM     16  F   UNL     1      -0.736   8.824  21.483  0.00  0.00    +0.000 F 
ENDBRANCH  12  13
ENDBRANCH   5   7
ENDBRANCH   1   3
BRANCH   1  17
ATOM     17  S   UNL     1      -1.812  12.459  19.693  0.00  0.00    +0.000 S 
BRANCH  17  21
ATOM     18  C   UNL     1      -3.020  10.546  15.091  0.00  0.00    +0.000 C 
ATOM     19  C   UNL     1      -3.473  10.998  16.446  0.00  0.00    +0.000 A 
ATOM     20  N   UNL     1      -2.558  11.472  17.306  0.00  0.00    +0.000 NA
ATOM     21  C   UNL     1      -3.024  11.907  18.491  0.00  0.00    +0.000 A 
ATOM     22  C   UNL     1      -4.383  11.893  18.846  0.00  0.00    +0.000 A 
ATOM     23  C   UNL     1      -4.939  12.371  20.067  0.00  0.00    +0.000 A 
ATOM     24  C   UNL     1      -6.307  12.318  20.305  0.00  0.00    +0.000 A 
ATOM     25  C   UNL     1      -7.139  11.779  19.340  0.00  0.00    +0.000 A 
ATOM     26  C   UNL     1      -6.597  11.307  18.141  0.00  0.00    +0.000 A 
ATOM     27  C   UNL     1      -5.234  11.366  17.872  0.00  0.00    +0.000 A 
ATOM     28  N   UNL     1      -4.792  10.922  16.693  0.00  0.00    +0.000 NA
ENDBRANCH  17  21
ENDBRANCH   1  17
TORSDOF 5
ENDMDL
MODEL 3
REMARK VINA RESULT:      -8.0      2.148      2.801
REMARK  Name = 
REMARK  7 active torsions:
REMARK  status: ('A' for Active; 'I' for Inactive)
REMARK    1  A    between atoms: C_1  and  C_2
REMARK    2  A    between atoms: C_4  and  S_5
REMARK    3  A    between atoms: S_5  and  C_6
REMARK    4  A    between atoms: C_6  and  C_7
REMARK    5  A    between atoms: C_6  and  C_8
REMARK    6  A    between atoms: N_10  and  C_11
REMARK    7  A    between atoms: C_16  and  C_17
REMARK                            x       y       z     vdW  Elec       q    Type
REMARK                         _______ _______ _______ _____ _____    ______ ____
ROOT
ATOM      1  C   UNL     1       1.613   8.890  20.164  0.00  0.00    +0.000 C 
ATOM      2  C   UNL     1       1.011   8.180  21.370  0.00  0.00    +0.000 C 
ENDROOT
BRANCH   1   3
ATOM      3  C   UNL     1       2.122   7.851  19.148  0.00  0.00    +0.000 C 
ATOM      4  O   UNL     1       2.092   8.104  17.946  0.00  0.00    +0.000 OA
ATOM      5  N   UNL     1       2.600   6.667  19.720  0.00  0.00    +0.000 N 
ATOM      6  H   UNL     1       2.392   6.561  20.713  0.00  0.00    +0.000 HD
BRANCH   5   7
ATOM      7  C   UNL     1       3.081   5.518  19.038  0.00  0.00    +0.000 A 
ATOM      8  C   UNL     1       3.973   5.643  17.962  0.00  0.00    +0.000 A 
ATOM      9  C   UNL     1       4.400   4.530  17.233  0.00  0.00    +0.000 A 
ATOM     10  C   UNL     1       3.956   3.262  17.576  0.00  0.00    +0.000 A 
ATOM     11  C   UNL     1       3.109   3.109  18.668  0.00  0.00    +0.000 A 
ATOM     12  C   UNL     1       2.668   4.225  19.419  0.00  0.00    +0.000 A 
BRANCH  12  13
ATOM     13  C   UNL     1       1.751   3.934  20.578  0.00  0.00    +0.000 C 
ATOM     14  F   UNL     1       0.524   4.527  20.487  0.00  0.00    +0.000 F 
ATOM     15  F   UNL     1       1.504   2.602  20.732  0.00  0.00    +0.000 F 
ATOM     16  F   UNL     1       2.268   4.351  21.769  0.00  0.00    +0.000 F 
ENDBRANCH  12  13
ENDBRANCH   5   7
ENDBRANCH   1   3
BRANCH   1  17
ATOM     17  S   UNL     1       0.431   9.978  19.277  0.00  0.00    +0.000 S 
BRANCH  17  21
ATOM     18  C   UNL     1       2.985  14.422  19.145  0.00  0.00    +0.000 C 
ATOM     19  C   UNL     1       1.921  13.579  19.777  0.00  0.00    +0.000 A 
ATOM     20  N   UNL     1       1.719  12.337  19.309  0.00  0.00    +0.000 NA
ATOM     21  C   UNL     1       0.783  11.606  19.941  0.00  0.00    +0.000 A 
ATOM     22  C   UNL     1       0.042  12.074  21.040  0.00  0.00    +0.000 A 
ATOM     23  C   UNL     1      -0.934  11.337  21.770  0.00  0.00    +0.000 A 
ATOM     24  C   UNL     1      -1.599  11.900  22.854  0.00  0.00    +0.000 A 
ATOM     25  C   UNL     1      -1.314  13.205  23.216  0.00  0.00    +0.000 A 
ATOM     26  C   UNL     1      -0.358  13.931  22.500  0.00  0.00    +0.000 A 
ATOM     27  C   UNL     1       0.334  13.384  21.425  0.00  0.00    +0.000 A 
ATOM     28  N   UNL     1       1.253  14.129  20.807  0.00  0.00    +0.000 NA
ENDBRANCH  17  21
ENDBRANCH   1  17
TORSDOF 5
ENDMDL
MODEL 4
REMARK VINA RESULT:      -7.9      2.063      3.112
REMARK  Name = 
REMARK  7 active torsions:
REMARK  status: ('A' for Active; 'I' for Inactive)
REMARK    1  A    between atoms: C_1  and  C_2
REMARK    2  A    between atoms: C_4  and  S_5
REMARK    3  A    between atoms: S_5  and  C_6
REMARK    4  A    between atoms: C_6  and  C_7
REMARK    5  A    between atoms: C_6  and  C_8
REMARK    6  A    between atoms: N_10  and  C_11
REMARK    7  A    between atoms: C_16  and  C_17
REMARK                            x       y       z     vdW  Elec       q    Type
REMARK                         _______ _______ _______ _____ _____    ______ ____
ROOT
ATOM      1  C   UNL     1       1.716   8.768  20.015  0.00  0.00    +0.000 C 
ATOM      2  C   UNL     1       1.083   8.149  21.255  0.00  0.00    +0.000 C 
ENDROOT
BRANCH   1   3
ATOM      3  C   UNL     1       2.176   7.655  19.054  0.00  0.00    +0.000 C 
ATOM      4  O   UNL     1       2.079   7.816  17.840  0.00  0.00    +0.000 OA
ATOM      5  N   UNL     1       2.691   6.519  19.688  0.00  0.00    +0.000 N 
ATOM      6  H   UNL     1       2.538   6.488  20.696  0.00  0.00    +0.000 HD
BRANCH   5   7
ATOM      7  C   UNL     1       3.142   5.322  19.069  0.00  0.00    +0.000 A 
ATOM      8  C   UNL     1       4.071   5.363  18.019  0.00  0.00    +0.000 A 
ATOM      9  C   UNL     1       4.470   4.203  17.351  0.00  0.00    +0.000 A 
ATOM     10  C   UNL     1       3.959   2.971  17.730  0.00  0.00    +0.000 A 
ATOM     11  C   UNL     1       3.073   2.901  18.800  0.00  0.00    +0.000 A 
ATOM     12  C   UNL     1       2.660   4.066  19.490  0.00  0.00    +0.000 A 
BRANCH  12  13
ATOM     13  C   UNL     1       1.695   3.864  20.629  0.00  0.00    +0.000 C 
ATOM     14  F   UNL     1       0.541   4.585  20.523  0.00  0.00    +0.000 F 
ATOM     15  F   UNL     1       1.306   2.565  20.764  0.00  0.00    +0.000 F 
ATOM     16  F   UNL     1       2.232   4.214  21.833  0.00  0.00    +0.000 F 
ENDBRANCH  12  13
ENDBRANCH   5   7
ENDBRANCH   1   3
BRANCH   1  17
ATOM     17  S   UNL     1       0.584   9.862  19.072  0.00  0.00    +0.000 S 
BRANCH  17  21
ATOM     18  C   UNL     1      -1.262  12.502  23.061  0.00  0.00    +0.000 C 
ATOM     19  C   UNL     1      -0.315  12.434  21.903  0.00  0.00    +0.000 A 
ATOM     20  N   UNL     1      -0.325  11.340  21.125  0.00  0.00    +0.000 NA
ATOM     21  C   UNL     1       0.512  11.349  20.072  0.00  0.00    +0.000 A 
ATOM     22  C   UNL     1       1.360  12.426  19.761  0.00  0.00    +0.000 A 
ATOM     23  C   UNL     1       2.240  12.509  18.644  0.00  0.00    +0.000 A 
ATOM     24  C   UNL     1       3.026  13.634  18.428  0.00  0.00    +0.000 A 
ATOM     25  C   UNL     1       2.959  14.686  19.325  0.00  0.00    +0.000 A 
ATOM     26  C   UNL     1       2.097  14.608  20.424  0.00  0.00    +0.000 A 
ATOM     27  C   UNL     1       1.287  13.500  20.651  0.00  0.00    +0.000 A 
ATOM     28  N   UNL     1       0.469  13.508  21.706  0.00  0.00    +0.000 NA
ENDBRANCH  17  21
ENDBRANCH   1  17
TORSDOF 5
ENDMDL
MODEL 5
REMARK VINA RESULT:      -7.9      2.789      7.767
REMARK  Name = 
REMARK  7 active torsions:
REMARK  status: ('A' for Active; 'I' for Inactive)
REMARK    1  A    between atoms: C_1  and  C_2
REMARK    2  A    between atoms: C_4  and  S_5
REMARK    3  A    between atoms: S_5  and  C_6
REMARK    4  A    between atoms: C_6  and  C_7
REMARK    5  A    between atoms: C_6  and  C_8
REMARK    6  A    between atoms: N_10  and  C_11
REMARK    7  A    between atoms: C_16  and  C_17
REMARK                            x       y       z     vdW  Elec       q    Type
REMARK                         _______ _______ _______ _____ _____    ______ ____
ROOT
ATOM      1  C   UNL     1       1.754   9.103  18.466  0.00  0.00    +0.000 C 
ATOM      2  C   UNL     1       0.769   8.733  17.364  0.00  0.00    +0.000 C 
ENDROOT
BRANCH   1   3
ATOM      3  C   UNL     1       1.199  10.284  19.285  0.00  0.00    +0.000 C 
ATOM      4  O   UNL     1       1.802  11.355  19.299  0.00  0.00    +0.000 OA
ATOM      5  N   UNL     1       0.004  10.011  19.958  0.00  0.00    +0.000 N 
ATOM      6  H   UNL     1      -0.261   9.026  19.973  0.00  0.00    +0.000 HD
BRANCH   5   7
ATOM      7  C   UNL     1      -0.709  10.882  20.825  0.00  0.00    +0.000 A 
ATOM      8  C   UNL     1      -1.404  11.989  20.317  0.00  0.00    +0.000 A 
ATOM      9  C   UNL     1      -2.050  12.896  21.161  0.00  0.00    +0.000 A 
ATOM     10  C   UNL     1      -2.029  12.706  22.534  0.00  0.00    +0.000 A 
ATOM     11  C   UNL     1      -1.387  11.588  23.057  0.00  0.00    +0.000 A 
ATOM     12  C   UNL     1      -0.730  10.658  22.217  0.00  0.00    +0.000 A 
BRANCH  12  13
ATOM     13  C   UNL     1      -0.067   9.490  22.899  0.00  0.00    +0.000 C 
ATOM     14  F   UNL     1       1.258   9.344  22.606  0.00  0.00    +0.000 F 
ATOM     15  F   UNL     1      -0.136   9.567  24.258  0.00  0.00    +0.000 F 
ATOM     16  F   UNL     1      -0.644   8.299  22.569  0.00  0.00    +0.000 F 
ENDBRANCH  12  13
ENDBRANCH   5   7
ENDBRANCH   1   3
BRANCH   1  17
ATOM     17  S   UNL     1       2.096   7.740  19.645  0.00  0.00    +0.000 S 
BRANCH  17  21
ATOM     18  C   UNL     1       5.317   6.178  15.974  0.00  0.00    +0.000 C 
ATOM     19  C   UNL     1       4.289   5.827  17.005  0.00  0.00    +0.000 A 
ATOM     20  N   UNL     1       3.736   6.815  17.726  0.00  0.00    +0.000 NA
ATOM     21  C   UNL     1       2.785   6.451  18.605  0.00  0.00    +0.000 A 
ATOM     22  C   UNL     1       2.358   5.124  18.784  0.00  0.00    +0.000 A 
ATOM     23  C   UNL     1       1.334   4.683  19.671  0.00  0.00    +0.000 A 
ATOM     24  C   UNL     1       0.985   3.340  19.756  0.00  0.00    +0.000 A 
ATOM     25  C   UNL     1       1.655   2.418  18.972  0.00  0.00    +0.000 A 
ATOM     26  C   UNL     1       2.662   2.847  18.102  0.00  0.00    +0.000 A 
ATOM     27  C   UNL     1       3.016   4.187  17.985  0.00  0.00    +0.000 A 
ATOM     28  N   UNL     1       3.968   4.526  17.112  0.00  0.00    +0.000 NA
ENDBRANCH  17  21
ENDBRANCH   1  17
TORSDOF 5
ENDMDL
MODEL 6
REMARK VINA RESULT:      -7.9      2.338      3.456
REMARK  Name = 
REMARK  7 active torsions:
REMARK  status: ('A' for Active; 'I' for Inactive)
REMARK    1  A    between atoms: C_1  and  C_2
REMARK    2  A    between atoms: C_4  and  S_5
REMARK    3  A    between atoms: S_5  and  C_6
REMARK    4  A    between atoms: C_6  and  C_7
REMARK    5  A    between atoms: C_6  and  C_8
REMARK    6  A    between atoms: N_10  and  C_11
REMARK    7  A    between atoms: C_16  and  C_17
REMARK                            x       y       z     vdW  Elec       q    Type
REMARK                         _______ _______ _______ _____ _____    ______ ____
ROOT
ATOM      1  C   UNL     1       1.849   8.666  19.512  0.00  0.00    +0.000 C 
ATOM      2  C   UNL     1       1.358   7.611  20.497  0.00  0.00    +0.000 C 
ENDROOT
BRANCH   1   3
ATOM      3  C   UNL     1       2.566   7.983  18.333  0.00  0.00    +0.000 C 
ATOM      4  O   UNL     1       2.471   8.456  17.202  0.00  0.00    +0.000 OA
ATOM      5  N   UNL     1       3.296   6.841  18.680  0.00  0.00    +0.000 N 
ATOM      6  H   UNL     1       3.124   6.498  19.626  0.00  0.00    +0.000 HD
BRANCH   5   7
ATOM      7  C   UNL     1       4.012   5.982  17.805  0.00  0.00    +0.000 A 
ATOM      8  C   UNL     1       5.262   6.358  17.293  0.00  0.00    +0.000 A 
ATOM      9  C   UNL     1       5.947   5.559  16.374  0.00  0.00    +0.000 A 
ATOM     10  C   UNL     1       5.402   4.353  15.959  0.00  0.00    +0.000 A 
ATOM     11  C   UNL     1       4.186   3.936  16.490  0.00  0.00    +0.000 A 
ATOM     12  C   UNL     1       3.480   4.733  17.423  0.00  0.00    +0.000 A 
BRANCH  12  13
ATOM     13  C   UNL     1       2.172   4.178  17.925  0.00  0.00    +0.000 C 
ATOM     14  F   UNL     1       1.980   2.854  17.651  0.00  0.00    +0.000 F 
ATOM     15  F   UNL     1       2.033   4.298  19.275  0.00  0.00    +0.000 F 
ATOM     16  F   UNL     1       1.095   4.819  17.387  0.00  0.00    +0.000 F 
ENDBRANCH  12  13
ENDBRANCH   5   7
ENDBRANCH   1   3
BRANCH   1  17
ATOM     17  S   UNL     1       0.510   9.702  18.805  0.00  0.00    +0.000 S 
BRANCH  17  21
ATOM     18  C   UNL     1      -1.283  12.025  23.010  0.00  0.00    +0.000 C 
ATOM     19  C   UNL     1      -0.357  12.051  21.833  0.00  0.00    +0.000 A 
ATOM     20  N   UNL     1      -0.372  11.017  20.978  0.00  0.00    +0.000 NA
ATOM     21  C   UNL     1       0.444  11.111  19.913  0.00  0.00    +0.000 A 
ATOM     22  C   UNL     1       1.276  12.217  19.665  0.00  0.00    +0.000 A 
ATOM     23  C   UNL     1       2.133  12.390  18.541  0.00  0.00    +0.000 A 
ATOM     24  C   UNL     1       2.904  13.536  18.393  0.00  0.00    +0.000 A 
ATOM     25  C   UNL     1       2.845  14.519  19.366  0.00  0.00    +0.000 A 
ATOM     26  C   UNL     1       2.006  14.352  20.472  0.00  0.00    +0.000 A 
ATOM     27  C   UNL     1       1.211  13.223  20.632  0.00  0.00    +0.000 A 
ATOM     28  N   UNL     1       0.413  13.145  21.700  0.00  0.00    +0.000 NA
ENDBRANCH  17  21
ENDBRANCH   1  17
TORSDOF 5
ENDMDL
MODEL 7
REMARK VINA RESULT:      -7.9      3.184      8.315
REMARK  Name = 
REMARK  7 active torsions:
REMARK  status: ('A' for Active; 'I' for Inactive)
REMARK    1  A    between atoms: C_1  and  C_2
REMARK    2  A    between atoms: C_4  and  S_5
REMARK    3  A    between atoms: S_5  and  C_6
REMARK    4  A    between atoms: C_6  and  C_7
REMARK    5  A    between atoms: C_6  and  C_8
REMARK    6  A    between atoms: N_10  and  C_11
REMARK    7  A    between atoms: C_16  and  C_17
REMARK                            x       y       z     vdW  Elec       q    Type
REMARK                         _______ _______ _______ _____ _____    ______ ____
ROOT
ATOM      1  C   UNL     1       1.365   9.143  19.290  0.00  0.00    +0.000 C 
ATOM      2  C   UNL     1       1.073   8.800  17.834  0.00  0.00    +0.000 C 
ENDROOT
BRANCH   1   3
ATOM      3  C   UNL     1       0.116   9.768  19.939  0.00  0.00    +0.000 C 
ATOM      4  O   UNL     1      -0.332   9.298  20.982  0.00  0.00    +0.000 OA
ATOM      5  N   UNL     1      -0.407  10.867  19.249  0.00  0.00    +0.000 N 
ATOM      6  H   UNL     1      -0.014  11.011  18.319  0.00  0.00    +0.000 HD
BRANCH   5   7
ATOM      7  C   UNL     1      -1.573  11.609  19.577  0.00  0.00    +0.000 A 
ATOM      8  C   UNL     1      -1.582  12.486  20.671  0.00  0.00    +0.000 A 
ATOM      9  C   UNL     1      -2.740  13.168  21.052  0.00  0.00    +0.000 A 
ATOM     10  C   UNL     1      -3.914  13.001  20.333  0.00  0.00    +0.000 A 
ATOM     11  C   UNL     1      -3.917  12.174  19.215  0.00  0.00    +0.000 A 
ATOM     12  C   UNL     1      -2.751  11.477  18.814  0.00  0.00    +0.000 A 
BRANCH  12  13
ATOM     13  C   UNL     1      -2.878  10.608  17.589  0.00  0.00    +0.000 C 
ATOM     14  F   UNL     1      -2.715   9.274  17.826  0.00  0.00    +0.000 F 
ATOM     15  F   UNL     1      -4.092  10.728  16.983  0.00  0.00    +0.000 F 
ATOM     16  F   UNL     1      -1.957  10.922  16.633  0.00  0.00    +0.000 F 
ENDBRANCH  12  13
ENDBRANCH   5   7
ENDBRANCH   1   3
BRANCH   1  17
ATOM     17  S   UNL     1       1.839   7.696  20.313  0.00  0.00    +0.000 S 
BRANCH  17  21
ATOM     18  C   UNL     1       4.992   6.640  16.409  0.00  0.00    +0.000 C 
ATOM     19  C   UNL     1       4.003   6.148  17.422  0.00  0.00    +0.000 A 
ATOM     20  N   UNL     1       3.446   7.035  18.262  0.00  0.00    +0.000 NA
ATOM     21  C   UNL     1       2.531   6.549  19.120  0.00  0.00    +0.000 A 
ATOM     22  C   UNL     1       2.144   5.199  19.163  0.00  0.00    +0.000 A 
ATOM     23  C   UNL     1       1.158   4.633  20.022  0.00  0.00    +0.000 A 
ATOM     24  C   UNL     1       0.847   3.280  19.967  0.00  0.00    +0.000 A 
ATOM     25  C   UNL     1       1.518   2.469  19.069  0.00  0.00    +0.000 A 
ATOM     26  C   UNL     1       2.487   3.020  18.225  0.00  0.00    +0.000 A 
ATOM     27  C   UNL     1       2.803   4.374  18.248  0.00  0.00    +0.000 A 
ATOM     28  N   UNL     1       3.719   4.835  17.393  0.00  0.00    +0.000 NA
ENDBRANCH  17  21
ENDBRANCH   1  17
TORSDOF 5
ENDMDL
MODEL 8
REMARK VINA RESULT:      -7.9      3.748      8.299
REMARK  Name = 
REMARK  7 active torsions:
REMARK  status: ('A' for Active; 'I' for Inactive)
REMARK    1  A    between atoms: C_1  and  C_2
REMARK    2  A    between atoms: C_4  and  S_5
REMARK    3  A    between atoms: S_5  and  C_6
REMARK    4  A    between atoms: C_6  and  C_7
REMARK    5  A    between atoms: C_6  and  C_8
REMARK    6  A    between atoms: N_10  and  C_11
REMARK    7  A    between atoms: C_16  and  C_17
REMARK                            x       y       z     vdW  Elec       q    Type
REMARK                         _______ _______ _______ _____ _____    ______ ____
ROOT
ATOM      1  C   UNL     1       2.567   5.331  18.466  0.00  0.00    +0.000 C 
ATOM      2  C   UNL     1       1.431   4.745  17.636  0.00  0.00    +0.000 C 
ENDROOT
BRANCH   1   3
ATOM      3  C   UNL     1       1.988   6.135  19.646  0.00  0.00    +0.000 C 
ATOM      4  O   UNL     1       1.643   5.553  20.672  0.00  0.00    +0.000 OA
ATOM      5  N   UNL     1       1.917   7.515  19.427  0.00  0.00    +0.000 N 
ATOM      6  H   UNL     1       2.085   7.802  18.463  0.00  0.00    +0.000 HD
BRANCH   5   7
ATOM      7  C   UNL     1       1.385   8.496  20.307  0.00  0.00    +0.000 A 
ATOM      8  C   UNL     1       1.371   8.284  21.693  0.00  0.00    +0.000 A 
ATOM      9  C   UNL     1       0.787   9.204  22.567  0.00  0.00    +0.000 A 
ATOM     10  C   UNL     1       0.218  10.368  22.073  0.00  0.00    +0.000 A 
ATOM     11  C   UNL     1       0.263  10.622  20.706  0.00  0.00    +0.000 A 
ATOM     12  C   UNL     1       0.853   9.702  19.807  0.00  0.00    +0.000 A 
BRANCH  12  13
ATOM     13  C   UNL     1       0.839  10.085  18.350  0.00  0.00    +0.000 C 
ATOM     14  F   UNL     1      -0.024   9.355  17.584  0.00  0.00    +0.000 F 
ATOM     15  F   UNL     1       0.492  11.388  18.153  0.00  0.00    +0.000 F 
ATOM     16  F   UNL     1       2.060   9.937  17.762  0.00  0.00    +0.000 F 
ENDBRANCH  12  13
ENDBRANCH   5   7
ENDBRANCH   1   3
BRANCH   1  17
ATOM     17  S   UNL     1       3.698   4.071  19.173  0.00  0.00    +0.000 S 
BRANCH  17  21
ATOM     18  C   UNL     1       8.424   5.844  20.073  0.00  0.00    +0.000 C 
ATOM     19  C   UNL     1       7.420   5.328  19.090  0.00  0.00    +0.000 A 
ATOM     20  N   UNL     1       6.193   5.008  19.529  0.00  0.00    +0.000 NA
ATOM     21  C   UNL     1       5.315   4.593  18.598  0.00  0.00    +0.000 A 
ATOM     22  C   UNL     1       5.620   4.495  17.230  0.00  0.00    +0.000 A 
ATOM     23  C   UNL     1       4.726   4.098  16.195  0.00  0.00    +0.000 A 
ATOM     24  C   UNL     1       5.136   4.050  14.868  0.00  0.00    +0.000 A 
ATOM     25  C   UNL     1       6.442   4.382  14.553  0.00  0.00    +0.000 A 
ATOM     26  C   UNL     1       7.323   4.771  15.567  0.00  0.00    +0.000 A 
ATOM     27  C   UNL     1       6.931   4.845  16.899  0.00  0.00    +0.000 A 
ATOM     28  N   UNL     1       7.820   5.251  17.808  0.00  0.00    +0.000 NA
ENDBRANCH  17  21
ENDBRANCH   1  17
TORSDOF 5
ENDMDL
MODEL 9
REMARK VINA RESULT:      -7.9      3.106      8.253
REMARK  Name = 
REMARK  7 active torsions:
REMARK  status: ('A' for Active; 'I' for Inactive)
REMARK    1  A    between atoms: C_1  and  C_2
REMARK    2  A    between atoms: C_4  and  S_5
REMARK    3  A    between atoms: S_5  and  C_6
REMARK    4  A    between atoms: C_6  and  C_7
REMARK    5  A    between atoms: C_6  and  C_8
REMARK    6  A    between atoms: N_10  and  C_11
REMARK    7  A    between atoms: C_16  and  C_17
REMARK                            x       y       z     vdW  Elec       q    Type
REMARK                         _______ _______ _______ _____ _____    ______ ____
ROOT
ATOM      1  C   UNL     1       2.079   7.577  18.345  0.00  0.00    +0.000 C 
ATOM      2  C   UNL     1       2.427   7.238  19.789  0.00  0.00    +0.000 C 
ENDROOT
BRANCH   1   3
ATOM      3  C   UNL     1       1.729   9.072  18.230  0.00  0.00    +0.000 C 
ATOM      4  O   UNL     1       2.344   9.786  17.441  0.00  0.00    +0.000 OA
ATOM      5  N   UNL     1       0.691   9.490  19.070  0.00  0.00    +0.000 N 
ATOM      6  H   UNL     1       0.414   8.808  19.776  0.00  0.00    +0.000 HD
BRANCH   5   7
ATOM      7  C   UNL     1       0.189  10.811  19.220  0.00  0.00    +0.000 A 
ATOM      8  C   UNL     1       0.854  11.744  20.028  0.00  0.00    +0.000 A 
ATOM      9  C   UNL     1       0.337  13.023  20.246  0.00  0.00    +0.000 A 
ATOM     10  C   UNL     1      -0.853  13.404  19.643  0.00  0.00    +0.000 A 
ATOM     11  C   UNL     1      -1.506  12.512  18.799  0.00  0.00    +0.000 A 
ATOM     12  C   UNL     1      -0.994  11.213  18.566  0.00  0.00    +0.000 A 
BRANCH  12  13
ATOM     13  C   UNL     1      -1.790  10.335  17.636  0.00  0.00    +0.000 C 
ATOM     14  F   UNL     1      -1.035   9.493  16.871  0.00  0.00    +0.000 F 
ATOM     15  F   UNL     1      -2.676   9.537  18.295  0.00  0.00    +0.000 F 
ATOM     16  F   UNL     1      -2.536  11.058  16.751  0.00  0.00    +0.000 F 
ENDBRANCH  12  13
ENDBRANCH   5   7
ENDBRANCH   1   3
BRANCH   1  17
ATOM     17  S   UNL     1       3.438   7.248  17.157  0.00  0.00    +0.000 S 
BRANCH  17  21
ATOM     18  C   UNL     1       7.644   5.552  19.550  0.00  0.00    +0.000 C 
ATOM     19  C   UNL     1       6.257   5.277  19.058  0.00  0.00    +0.000 A 
ATOM     20  N   UNL     1       5.599   6.250  18.409  0.00  0.00    +0.000 NA
ATOM     21  C   UNL     1       4.375   5.937  17.947  0.00  0.00    +0.000 A 
ATOM     22  C   UNL     1       3.783   4.672  18.106  0.00  0.00    +0.000 A 
ATOM     23  C   UNL     1       2.509   4.271  17.611  0.00  0.00    +0.000 A 
ATOM     24  C   UNL     1       2.029   2.983  17.817  0.00  0.00    +0.000 A 
ATOM     25  C   UNL     1       2.801   2.082  18.529  0.00  0.00    +0.000 A 
ATOM     26  C   UNL     1       4.051   2.473  19.018  0.00  0.00    +0.000 A 
ATOM     27  C   UNL     1       4.561   3.749  18.808  0.00  0.00    +0.000 A 
ATOM     28  N   UNL     1       5.775   4.042  19.281  0.00  0.00    +0.000 NA
ENDBRANCH  17  21
ENDBRANCH   1  17
TORSDOF 5
ENDMDL
