MODEL 1
REMARK VINA RESULT:      -8.9      0.000      0.000
REMARK  Name = 
REMARK  3 active torsions:
REMARK  status: ('A' for Active; 'I' for Inactive)
REMARK    1  A    between atoms: C_2  and  C_21
REMARK    2  A    between atoms: N_3  and  C_4
REMARK    3  A    between atoms: C_9  and  C_10
REMARK                            x       y       z     vdW  Elec       q    Type
REMARK                         _______ _______ _______ _____ _____    ______ ____
ROOT
ATOM      1  C   UNL     1       3.342   5.022  19.846  0.00  0.00    +0.000 A 
ATOM      2  C   UNL     1       2.423   4.004  20.127  0.00  0.00    +0.000 A 
ATOM      3  C   UNL     1       2.740   2.655  19.832  0.00  0.00    +0.000 A 
ATOM      4  C   UNL     1       3.959   2.317  19.246  0.00  0.00    +0.000 A 
ATOM      5  C   UNL     1       4.900   3.312  19.029  0.00  0.00    +0.000 A 
ATOM      6  C   UNL     1       4.615   4.648  19.376  0.00  0.00    +0.000 A 
ENDROOT
BRANCH   6   7
ATOM      7  C   UNL     1       5.612   5.695  19.032  0.00  0.00    +0.000 A 
ATOM      8  N   UNL     1       5.327   6.500  18.035  0.00  0.00    +0.000 NA
ATOM      9  C   UNL     1       5.799   5.865  16.860  0.00  0.00    +0.000 A 
ATOM     10  C   UNL     1       4.910   5.706  15.806  0.00  0.00    +0.000 A 
ATOM     11  C   UNL     1       5.184   4.757  14.827  0.00  0.00    +0.000 A 
ATOM     12  C   UNL     1       6.379   4.024  14.864  0.00  0.00    +0.000 A 
ATOM     13  C   UNL     1       7.320   4.235  15.875  0.00  0.00    +0.000 A 
ATOM     14  C   UNL     1       7.006   5.118  16.897  0.00  0.00    +0.000 A 
ATOM     15  N   UNL     1       7.750   5.106  18.098  0.00  0.00    +0.000 N 
ATOM     16  C   UNL     1       7.089   5.409  19.275  0.00  0.00    +0.000 A 
ATOM     17  O   UNL     1       7.564   5.347  20.394  0.00  0.00    +0.000 OA
ATOM     18  H   UNL     1       8.654   4.662  18.165  0.00  0.00    +0.000 HD
ENDBRANCH   6   7
BRANCH   1  21
ATOM     19  O   UNL     1       1.940   6.455  17.749  0.00  0.00    +0.000 OA
ATOM     20  C   UNL     1       2.262   7.037  18.778  0.00  0.00    +0.000 C 
ATOM     21  N   UNL     1       2.974   6.410  19.796  0.00  0.00    +0.000 N 
ATOM     22  H   UNL     1       2.869   6.816  20.721  0.00  0.00    +0.000 HD
BRANCH  20  23
ATOM     23  C   UNL     1       1.835   8.485  19.010  0.00  0.00    +0.000 A 
ATOM     24  C   UNL     1       2.037   9.534  18.088  0.00  0.00    +0.000 A 
ATOM     25  C   UNL     1       1.580  10.843  18.352  0.00  0.00    +0.000 A 
ATOM     26  C   UNL     1       0.918  11.140  19.545  0.00  0.00    +0.000 A 
ATOM     27  C   UNL     1       0.741  10.129  20.480  0.00  0.00    +0.000 A 
ATOM     28  C   UNL     1       1.205   8.828  20.219  0.00  0.00    +0.000 A 
ATOM     29  F   UNL     1       1.009   7.917  21.180  0.00  0.00    +0.000 F 
ENDBRANCH  20  23
ENDBRANCH   1  21
TORSDOF 3
ENDMDL
MODEL 2
REMARK VINA RESULT:      -8.8      0.871      1.266
REMARK  Name = 
REMARK  3 active torsions:
REMARK  status: ('A' for Active; 'I' for Inactive)
REMARK    1  A    between atoms: C_2  and  C_21
REMARK    2  A    between atoms: N_3  and  C_4
REMARK    3  A    between atoms: C_9  and  C_10
REMARK                            x       y       z     vdW  Elec       q    Type
REMARK                         _______ _______ _______ _____ _____    ______ ____
ROOT
ATOM      1  C   UNL     1       3.349   4.874  19.903  0.00  0.00    +0.000 A 
ATOM      2  C   UNL     1       2.478   3.808  20.154  0.00  0.00    +0.000 A 
ATOM      3  C   UNL     1       2.821   2.496  19.749  0.00  0.00    +0.000 A 
ATOM      4  C   UNL     1       4.020   2.242  19.083  0.00  0.00    +0.000 A 
ATOM      5  C   UNL     1       4.918   3.280  18.893  0.00  0.00    +0.000 A 
ATOM      6  C   UNL     1       4.609   4.579  19.348  0.00  0.00    +0.000 A 
ENDROOT
BRANCH   6   7
ATOM      7  C   UNL     1       5.555   5.680  19.033  0.00  0.00    +0.000 A 
ATOM      8  N   UNL     1       5.239   6.488  18.047  0.00  0.00    +0.000 NA
ATOM      9  C   UNL     1       5.755   5.899  16.867  0.00  0.00    +0.000 A 
ATOM     10  C   UNL     1       4.886   5.712  15.800  0.00  0.00    +0.000 A 
ATOM     11  C   UNL     1       5.218   4.797  14.809  0.00  0.00    +0.000 A 
ATOM     12  C   UNL     1       6.449   4.124  14.846  0.00  0.00    +0.000 A 
ATOM     13  C   UNL     1       7.367   4.366  15.871  0.00  0.00    +0.000 A 
ATOM     14  C   UNL     1       6.998   5.213  16.904  0.00  0.00    +0.000 A 
ATOM     15  N   UNL     1       7.729   5.218  18.113  0.00  0.00    +0.000 N 
ATOM     16  C   UNL     1       7.042   5.466  19.288  0.00  0.00    +0.000 A 
ATOM     17  O   UNL     1       7.508   5.409  20.411  0.00  0.00    +0.000 OA
ATOM     18  H   UNL     1       8.654   4.819  18.182  0.00  0.00    +0.000 HD
ENDBRANCH   6   7
BRANCH   1  21
ATOM     19  O   UNL     1       1.853   6.418  17.955  0.00  0.00    +0.000 OA
ATOM     20  C   UNL     1       2.182   6.930  19.019  0.00  0.00    +0.000 C 
ATOM     21  N   UNL     1       2.937   6.249  19.970  0.00  0.00    +0.000 N 
ATOM     22  H   UNL     1       2.841   6.578  20.926  0.00  0.00    +0.000 HD
BRANCH  20  23
ATOM     23  C   UNL     1       1.714   8.340  19.373  0.00  0.00    +0.000 A 
ATOM     24  C   UNL     1       1.197   8.716  20.632  0.00  0.00    +0.000 A 
ATOM     25  C   UNL     1       0.820  10.050  20.902  0.00  0.00    +0.000 A 
ATOM     26  C   UNL     1       0.942  11.037  19.922  0.00  0.00    +0.000 A 
ATOM     27  C   UNL     1       1.415  10.679  18.667  0.00  0.00    +0.000 A 
ATOM     28  C   UNL     1       1.781   9.349  18.397  0.00  0.00    +0.000 A 
ATOM     29  F   UNL     1       2.211   9.085  17.157  0.00  0.00    +0.000 F 
ENDBRANCH  20  23
ENDBRANCH   1  21
TORSDOF 3
ENDMDL
MODEL 3
REMARK VINA RESULT:      -8.8      2.761      6.490
REMARK  Name = 
REMARK  3 active torsions:
REMARK  status: ('A' for Active; 'I' for Inactive)
REMARK    1  A    between atoms: C_2  and  C_21
REMARK    2  A    between atoms: N_3  and  C_4
REMARK    3  A    between atoms: C_9  and  C_10
REMARK                            x       y       z     vdW  Elec       q    Type
REMARK                         _______ _______ _______ _____ _____    ______ ____
ROOT
ATOM      1  C   UNL     1       4.090   6.669  17.136  0.00  0.00    +0.000 A 
ATOM      2  C   UNL     1       3.589   7.971  17.244  0.00  0.00    +0.000 A 
ATOM      3  C   UNL     1       2.714   8.313  18.304  0.00  0.00    +0.000 A 
ATOM      4  C   UNL     1       2.325   7.362  19.247  0.00  0.00    +0.000 A 
ATOM      5  C   UNL     1       2.872   6.090  19.186  0.00  0.00    +0.000 A 
ATOM      6  C   UNL     1       3.791   5.760  18.168  0.00  0.00    +0.000 A 
ENDROOT
BRANCH   6   7
ATOM      7  C   UNL     1       4.272   4.357  18.082  0.00  0.00    +0.000 A 
ATOM      8  N   UNL     1       3.425   3.451  17.651  0.00  0.00    +0.000 NA
ATOM      9  C   UNL     1       2.722   2.988  18.790  0.00  0.00    +0.000 A 
ATOM     10  C   UNL     1       1.334   3.006  18.749  0.00  0.00    +0.000 A 
ATOM     11  C   UNL     1       0.621   2.960  19.941  0.00  0.00    +0.000 A 
ATOM     12  C   UNL     1       1.291   2.822  21.165  0.00  0.00    +0.000 A 
ATOM     13  C   UNL     1       2.684   2.718  21.213  0.00  0.00    +0.000 A 
ATOM     14  C   UNL     1       3.397   2.852  20.032  0.00  0.00    +0.000 A 
ATOM     15  N   UNL     1       4.788   3.102  20.068  0.00  0.00    +0.000 N 
ATOM     16  C   UNL     1       5.335   3.883  19.066  0.00  0.00    +0.000 A 
ATOM     17  O   UNL     1       6.489   4.266  19.012  0.00  0.00    +0.000 OA
ATOM     18  H   UNL     1       5.340   2.944  20.898  0.00  0.00    +0.000 HD
ENDBRANCH   6   7
BRANCH   1  21
ATOM     19  O   UNL     1       6.900   6.265  16.539  0.00  0.00    +0.000 OA
ATOM     20  C   UNL     1       6.048   5.950  15.716  0.00  0.00    +0.000 C 
ATOM     21  N   UNL     1       4.690   6.163  15.932  0.00  0.00    +0.000 N 
ATOM     22  H   UNL     1       4.062   5.559  15.411  0.00  0.00    +0.000 HD
BRANCH  20  23
ATOM     23  C   UNL     1       6.451   5.246  14.421  0.00  0.00    +0.000 A 
ATOM     24  C   UNL     1       7.548   5.622  13.617  0.00  0.00    +0.000 A 
ATOM     25  C   UNL     1       7.886   4.900  12.452  0.00  0.00    +0.000 A 
ATOM     26  C   UNL     1       7.133   3.792  12.057  0.00  0.00    +0.000 A 
ATOM     27  C   UNL     1       6.029   3.430  12.815  0.00  0.00    +0.000 A 
ATOM     28  C   UNL     1       5.689   4.155  13.970  0.00  0.00    +0.000 A 
ATOM     29  F   UNL     1       4.599   3.749  14.634  0.00  0.00    +0.000 F 
ENDBRANCH  20  23
ENDBRANCH   1  21
TORSDOF 3
ENDMDL
MODEL 4
REMARK VINA RESULT:      -8.7      1.082      1.084
REMARK  Name = 
REMARK  3 active torsions:
REMARK  status: ('A' for Active; 'I' for Inactive)
REMARK    1  A    between atoms: C_2  and  C_21
REMARK    2  A    between atoms: N_3  and  C_4
REMARK    3  A    between atoms: C_9  and  C_10
REMARK                            x       y       z     vdW  Elec       q    Type
REMARK                         _______ _______ _______ _____ _____    ______ ____
ROOT
ATOM      1  C   UNL     1       2.671   4.793  18.563  0.00  0.00    +0.000 A 
ATOM      2  C   UNL     1       1.747   3.743  18.520  0.00  0.00    +0.000 A 
ATOM      3  C   UNL     1       2.180   2.422  18.253  0.00  0.00    +0.000 A 
ATOM      4  C   UNL     1       3.526   2.143  18.015  0.00  0.00    +0.000 A 
ATOM      5  C   UNL     1       4.455   3.167  18.125  0.00  0.00    +0.000 A 
ATOM      6  C   UNL     1       4.037   4.474  18.450  0.00  0.00    +0.000 A 
ENDROOT
BRANCH   6   7
ATOM      7  C   UNL     1       5.053   5.558  18.456  0.00  0.00    +0.000 A 
ATOM      8  N   UNL     1       4.966   6.476  17.522  0.00  0.00    +0.000 NA
ATOM      9  C   UNL     1       5.702   5.988  16.414  0.00  0.00    +0.000 A 
ATOM     10  C   UNL     1       5.068   5.953  15.179  0.00  0.00    +0.000 A 
ATOM     11  C   UNL     1       5.576   5.130  14.181  0.00  0.00    +0.000 A 
ATOM     12  C   UNL     1       6.756   4.402  14.393  0.00  0.00    +0.000 A 
ATOM     13  C   UNL     1       7.449   4.494  15.603  0.00  0.00    +0.000 A 
ATOM     14  C   UNL     1       6.893   5.247  16.627  0.00  0.00    +0.000 A 
ATOM     15  N   UNL     1       7.359   5.094  17.952  0.00  0.00    +0.000 N 
ATOM     16  C   UNL     1       6.450   5.251  18.983  0.00  0.00    +0.000 A 
ATOM     17  O   UNL     1       6.672   5.057  20.164  0.00  0.00    +0.000 OA
ATOM     18  H   UNL     1       8.240   4.649  18.163  0.00  0.00    +0.000 HD
ENDBRANCH   6   7
BRANCH   1  21
ATOM     19  O   UNL     1       1.821   6.560  20.701  0.00  0.00    +0.000 OA
ATOM     20  C   UNL     1       1.922   6.989  19.557  0.00  0.00    +0.000 C 
ATOM     21  N   UNL     1       2.283   6.175  18.487  0.00  0.00    +0.000 N 
ATOM     22  H   UNL     1       2.700   6.651  17.694  0.00  0.00    +0.000 HD
BRANCH  20  23
ATOM     23  C   UNL     1       1.709   8.474  19.269  0.00  0.00    +0.000 A 
ATOM     24  C   UNL     1       2.232   9.150  18.145  0.00  0.00    +0.000 A 
ATOM     25  C   UNL     1       1.962  10.517  17.921  0.00  0.00    +0.000 A 
ATOM     26  C   UNL     1       1.173  11.244  18.814  0.00  0.00    +0.000 A 
ATOM     27  C   UNL     1       0.680  10.605  19.943  0.00  0.00    +0.000 A 
ATOM     28  C   UNL     1       0.957   9.245  20.170  0.00  0.00    +0.000 A 
ATOM     29  F   UNL     1       0.458   8.710  21.291  0.00  0.00    +0.000 F 
ENDBRANCH  20  23
ENDBRANCH   1  21
TORSDOF 3
ENDMDL
MODEL 5
REMARK VINA RESULT:      -8.6      3.048      6.704
REMARK  Name = 
REMARK  3 active torsions:
REMARK  status: ('A' for Active; 'I' for Inactive)
REMARK    1  A    between atoms: C_2  and  C_21
REMARK    2  A    between atoms: N_3  and  C_4
REMARK    3  A    between atoms: C_9  and  C_10
REMARK                            x       y       z     vdW  Elec       q    Type
REMARK                         _______ _______ _______ _____ _____    ______ ____
ROOT
ATOM      1  C   UNL     1       4.067   6.489  16.988  0.00  0.00    +0.000 A 
ATOM      2  C   UNL     1       3.590   7.803  17.056  0.00  0.00    +0.000 A 
ATOM      3  C   UNL     1       2.800   8.220  18.155  0.00  0.00    +0.000 A 
ATOM      4  C   UNL     1       2.472   7.331  19.179  0.00  0.00    +0.000 A 
ATOM      5  C   UNL     1       2.999   6.050  19.153  0.00  0.00    +0.000 A 
ATOM      6  C   UNL     1       3.835   5.646  18.091  0.00  0.00    +0.000 A 
ENDROOT
BRANCH   6   7
ATOM      7  C   UNL     1       4.293   4.233  18.052  0.00  0.00    +0.000 A 
ATOM      8  N   UNL     1       3.431   3.327  17.655  0.00  0.00    +0.000 NA
ATOM      9  C   UNL     1       2.723   2.915  18.811  0.00  0.00    +0.000 A 
ATOM     10  C   UNL     1       1.335   2.956  18.771  0.00  0.00    +0.000 A 
ATOM     11  C   UNL     1       0.624   2.962  19.965  0.00  0.00    +0.000 A 
ATOM     12  C   UNL     1       1.295   2.855  21.192  0.00  0.00    +0.000 A 
ATOM     13  C   UNL     1       2.686   2.730  21.241  0.00  0.00    +0.000 A 
ATOM     14  C   UNL     1       3.399   2.811  20.055  0.00  0.00    +0.000 A 
ATOM     15  N   UNL     1       4.793   3.039  20.080  0.00  0.00    +0.000 N 
ATOM     16  C   UNL     1       5.351   3.776  19.050  0.00  0.00    +0.000 A 
ATOM     17  O   UNL     1       6.511   4.138  18.981  0.00  0.00    +0.000 OA
ATOM     18  H   UNL     1       5.345   2.901  20.914  0.00  0.00    +0.000 HD
ENDBRANCH   6   7
BRANCH   1  21
ATOM     19  O   UNL     1       6.818   5.968  16.228  0.00  0.00    +0.000 OA
ATOM     20  C   UNL     1       5.904   5.639  15.480  0.00  0.00    +0.000 C 
ATOM     21  N   UNL     1       4.570   5.905  15.775  0.00  0.00    +0.000 N 
ATOM     22  H   UNL     1       3.891   5.295  15.329  0.00  0.00    +0.000 HD
BRANCH  20  23
ATOM     23  C   UNL     1       6.198   4.859  14.200  0.00  0.00    +0.000 A 
ATOM     24  C   UNL     1       5.343   3.880  13.650  0.00  0.00    +0.000 A 
ATOM     25  C   UNL     1       5.660   3.225  12.440  0.00  0.00    +0.000 A 
ATOM     26  C   UNL     1       6.840   3.524  11.756  0.00  0.00    +0.000 A 
ATOM     27  C   UNL     1       7.710   4.458  12.301  0.00  0.00    +0.000 A 
ATOM     28  C   UNL     1       7.397   5.103  13.509  0.00  0.00    +0.000 A 
ATOM     29  F   UNL     1       8.298   5.977  13.974  0.00  0.00    +0.000 F 
ENDBRANCH  20  23
ENDBRANCH   1  21
TORSDOF 3
ENDMDL
MODEL 6
REMARK VINA RESULT:      -8.5      1.347      1.609
REMARK  Name = 
REMARK  3 active torsions:
REMARK  status: ('A' for Active; 'I' for Inactive)
REMARK    1  A    between atoms: C_2  and  C_21
REMARK    2  A    between atoms: N_3  and  C_4
REMARK    3  A    between atoms: C_9  and  C_10
REMARK                            x       y       z     vdW  Elec       q    Type
REMARK                         _______ _______ _______ _____ _____    ______ ____
ROOT
ATOM      1  C   UNL     1       2.656   4.706  18.650  0.00  0.00    +0.000 A 
ATOM      2  C   UNL     1       1.765   3.629  18.593  0.00  0.00    +0.000 A 
ATOM      3  C   UNL     1       2.231   2.334  18.261  0.00  0.00    +0.000 A 
ATOM      4  C   UNL     1       3.577   2.109  17.972  0.00  0.00    +0.000 A 
ATOM      5  C   UNL     1       4.476   3.157  18.094  0.00  0.00    +0.000 A 
ATOM      6  C   UNL     1       4.028   4.436  18.483  0.00  0.00    +0.000 A 
ENDROOT
BRANCH   6   7
ATOM      7  C   UNL     1       5.009   5.552  18.502  0.00  0.00    +0.000 A 
ATOM      8  N   UNL     1       4.899   6.472  17.572  0.00  0.00    +0.000 NA
ATOM      9  C   UNL     1       5.657   6.014  16.466  0.00  0.00    +0.000 A 
ATOM     10  C   UNL     1       5.032   5.965  15.227  0.00  0.00    +0.000 A 
ATOM     11  C   UNL     1       5.573   5.164  14.228  0.00  0.00    +0.000 A 
ATOM     12  C   UNL     1       6.774   4.473  14.444  0.00  0.00    +0.000 A 
ATOM     13  C   UNL     1       7.455   4.581  15.659  0.00  0.00    +0.000 A 
ATOM     14  C   UNL     1       6.870   5.309  16.683  0.00  0.00    +0.000 A 
ATOM     15  N   UNL     1       7.332   5.164  18.010  0.00  0.00    +0.000 N 
ATOM     16  C   UNL     1       6.412   5.287  19.036  0.00  0.00    +0.000 A 
ATOM     17  O   UNL     1       6.632   5.094  20.217  0.00  0.00    +0.000 OA
ATOM     18  H   UNL     1       8.225   4.746  18.225  0.00  0.00    +0.000 HD
ENDBRANCH   6   7
BRANCH   1  21
ATOM     19  O   UNL     1       1.796   6.353  20.878  0.00  0.00    +0.000 OA
ATOM     20  C   UNL     1       1.859   6.833  19.752  0.00  0.00    +0.000 C 
ATOM     21  N   UNL     1       2.223   6.076  18.641  0.00  0.00    +0.000 N 
ATOM     22  H   UNL     1       2.608   6.599  17.860  0.00  0.00    +0.000 HD
BRANCH  20  23
ATOM     23  C   UNL     1       1.593   8.320  19.531  0.00  0.00    +0.000 A 
ATOM     24  C   UNL     1       1.019   9.179  20.493  0.00  0.00    +0.000 A 
ATOM     25  C   UNL     1       0.838  10.555  20.234  0.00  0.00    +0.000 A 
ATOM     26  C   UNL     1       1.217  11.106  19.009  0.00  0.00    +0.000 A 
ATOM     27  C   UNL     1       1.751  10.270  18.037  0.00  0.00    +0.000 A 
ATOM     28  C   UNL     1       1.922   8.898  18.293  0.00  0.00    +0.000 A 
ATOM     29  F   UNL     1       2.427   8.160  17.296  0.00  0.00    +0.000 F 
ENDBRANCH  20  23
ENDBRANCH   1  21
TORSDOF 3
ENDMDL
MODEL 7
REMARK VINA RESULT:      -8.2      3.237      7.014
REMARK  Name = 
REMARK  3 active torsions:
REMARK  status: ('A' for Active; 'I' for Inactive)
REMARK    1  A    between atoms: C_2  and  C_21
REMARK    2  A    between atoms: N_3  and  C_4
REMARK    3  A    between atoms: C_9  and  C_10
REMARK                            x       y       z     vdW  Elec       q    Type
REMARK                         _______ _______ _______ _____ _____    ______ ____
ROOT
ATOM      1  C   UNL     1       6.515   4.255  17.328  0.00  0.00    +0.000 A 
ATOM      2  C   UNL     1       7.748   4.780  17.730  0.00  0.00    +0.000 A 
ATOM      3  C   UNL     1       7.864   5.461  18.966  0.00  0.00    +0.000 A 
ATOM      4  C   UNL     1       6.756   5.634  19.796  0.00  0.00    +0.000 A 
ATOM      5  C   UNL     1       5.549   5.056  19.436  0.00  0.00    +0.000 A 
ATOM      6  C   UNL     1       5.441   4.325  18.235  0.00  0.00    +0.000 A 
ENDROOT
BRANCH   6   7
ATOM      7  C   UNL     1       4.104   3.811  17.840  0.00  0.00    +0.000 A 
ATOM      8  N   UNL     1       3.294   4.640  17.224  0.00  0.00    +0.000 NA
ATOM      9  C   UNL     1       2.574   5.322  18.236  0.00  0.00    +0.000 A 
ATOM     10  C   UNL     1       2.566   6.710  18.205  0.00  0.00    +0.000 A 
ATOM     11  C   UNL     1       2.241   7.411  19.360  0.00  0.00    +0.000 A 
ATOM     12  C   UNL     1       1.854   6.726  20.521  0.00  0.00    +0.000 A 
ATOM     13  C   UNL     1       1.777   5.331  20.540  0.00  0.00    +0.000 A 
ATOM     14  C   UNL     1       2.186   4.632  19.415  0.00  0.00    +0.000 A 
ATOM     15  N   UNL     1       2.456   3.248  19.500  0.00  0.00    +0.000 N 
ATOM     16  C   UNL     1       3.453   2.729  18.692  0.00  0.00    +0.000 A 
ATOM     17  O   UNL     1       3.867   1.585  18.719  0.00  0.00    +0.000 OA
ATOM     18  H   UNL     1       2.134   2.685  20.273  0.00  0.00    +0.000 HD
ENDBRANCH   6   7
BRANCH   1  21
ATOM     19  O   UNL     1       5.912   5.934  15.040  0.00  0.00    +0.000 OA
ATOM     20  C   UNL     1       5.997   4.719  14.901  0.00  0.00    +0.000 C 
ATOM     21  N   UNL     1       6.241   3.864  15.972  0.00  0.00    +0.000 N 
ATOM     22  H   UNL     1       6.660   2.970  15.735  0.00  0.00    +0.000 HD
BRANCH  20  23
ATOM     23  C   UNL     1       5.896   4.092  13.512  0.00  0.00    +0.000 A 
ATOM     24  C   UNL     1       4.777   3.371  13.042  0.00  0.00    +0.000 A 
ATOM     25  C   UNL     1       4.737   2.852  11.730  0.00  0.00    +0.000 A 
ATOM     26  C   UNL     1       5.813   3.032  10.859  0.00  0.00    +0.000 A 
ATOM     27  C   UNL     1       6.937   3.707  11.315  0.00  0.00    +0.000 A 
ATOM     28  C   UNL     1       6.979   4.216  12.625  0.00  0.00    +0.000 A 
ATOM     29  F   UNL     1       8.106   4.839  12.991  0.00  0.00    +0.000 F 
ENDBRANCH  20  23
ENDBRANCH   1  21
TORSDOF 3
ENDMDL
MODEL 8
REMARK VINA RESULT:      -8.0      2.924      7.982
REMARK  Name = 
REMARK  3 active torsions:
REMARK  status: ('A' for Active; 'I' for Inactive)
REMARK    1  A    between atoms: C_2  and  C_21
REMARK    2  A    between atoms: N_3  and  C_4
REMARK    3  A    between atoms: C_9  and  C_10
REMARK                            x       y       z     vdW  Elec       q    Type
REMARK                         _______ _______ _______ _____ _____    ______ ____
ROOT
ATOM      1  C   UNL     1       0.700   9.094  21.035  0.00  0.00    +0.000 A 
ATOM      2  C   UNL     1       0.553   8.905  22.413  0.00  0.00    +0.000 A 
ATOM      3  C   UNL     1      -0.235   9.800  23.177  0.00  0.00    +0.000 A 
ATOM      4  C   UNL     1      -0.866  10.890  22.576  0.00  0.00    +0.000 A 
ATOM      5  C   UNL     1      -0.782  11.043  21.202  0.00  0.00    +0.000 A 
ATOM      6  C   UNL     1      -0.047  10.120  20.428  0.00  0.00    +0.000 A 
ENDROOT
BRANCH   6   7
ATOM      7  C   UNL     1       0.100  10.382  18.972  0.00  0.00    +0.000 A 
ATOM      8  N   UNL     1       1.252  10.854  18.555  0.00  0.00    +0.000 NA
ATOM      9  C   UNL     1       1.164  12.265  18.653  0.00  0.00    +0.000 A 
ATOM     10  C   UNL     1       2.164  12.931  19.349  0.00  0.00    +0.000 A 
ATOM     11  C   UNL     1       1.922  14.217  19.818  0.00  0.00    +0.000 A 
ATOM     12  C   UNL     1       0.710  14.861  19.528  0.00  0.00    +0.000 A 
ATOM     13  C   UNL     1      -0.271  14.232  18.757  0.00  0.00    +0.000 A 
ATOM     14  C   UNL     1      -0.062  12.919  18.366  0.00  0.00    +0.000 A 
ATOM     15  N   UNL     1      -1.144  12.138  17.898  0.00  0.00    +0.000 N 
ATOM     16  C   UNL     1      -1.132  10.782  18.169  0.00  0.00    +0.000 A 
ATOM     17  O   UNL     1      -2.029   9.998  17.921  0.00  0.00    +0.000 OA
ATOM     18  H   UNL     1      -2.015  12.552  17.600  0.00  0.00    +0.000 HD
ENDBRANCH   6   7
BRANCH   1  21
ATOM     19  O   UNL     1       1.237   6.260  20.726  0.00  0.00    +0.000 OA
ATOM     20  C   UNL     1       1.917   7.081  20.121  0.00  0.00    +0.000 C 
ATOM     21  N   UNL     1       1.731   8.452  20.266  0.00  0.00    +0.000 N 
ATOM     22  H   UNL     1       2.047   9.024  19.489  0.00  0.00    +0.000 HD
BRANCH  20  23
ATOM     23  C   UNL     1       2.974   6.618  19.120  0.00  0.00    +0.000 A 
ATOM     24  C   UNL     1       3.307   7.309  17.935  0.00  0.00    +0.000 A 
ATOM     25  C   UNL     1       4.324   6.844  17.075  0.00  0.00    +0.000 A 
ATOM     26  C   UNL     1       5.028   5.674  17.370  0.00  0.00    +0.000 A 
ATOM     27  C   UNL     1       4.691   4.962  18.513  0.00  0.00    +0.000 A 
ATOM     28  C   UNL     1       3.671   5.423  19.364  0.00  0.00    +0.000 A 
ATOM     29  F   UNL     1       3.397   4.667  20.435  0.00  0.00    +0.000 F 
ENDBRANCH  20  23
ENDBRANCH   1  21
TORSDOF 3
ENDMDL
MODEL 9
REMARK VINA RESULT:      -8.0      2.954      8.022
REMARK  Name = 
REMARK  3 active torsions:
REMARK  status: ('A' for Active; 'I' for Inactive)
REMARK    1  A    between atoms: C_2  and  C_21
REMARK    2  A    between atoms: N_3  and  C_4
REMARK    3  A    between atoms: C_9  and  C_10
REMARK                            x       y       z     vdW  Elec       q    Type
REMARK                         _______ _______ _______ _____ _____    ______ ____
ROOT
ATOM      1  C   UNL     1       0.653   9.094  21.095  0.00  0.00    +0.000 A 
ATOM      2  C   UNL     1       0.419   8.896  22.461  0.00  0.00    +0.000 A 
ATOM      3  C   UNL     1      -0.385   9.808  23.187  0.00  0.00    +0.000 A 
ATOM      4  C   UNL     1      -0.946  10.923  22.563  0.00  0.00    +0.000 A 
ATOM      5  C   UNL     1      -0.776  11.086  21.197  0.00  0.00    +0.000 A 
ATOM      6  C   UNL     1      -0.026  10.149  20.457  0.00  0.00    +0.000 A 
ENDROOT
BRANCH   6   7
ATOM      7  C   UNL     1       0.215  10.419  19.016  0.00  0.00    +0.000 A 
ATOM      8  N   UNL     1       1.375  10.935  18.681  0.00  0.00    +0.000 NA
ATOM      9  C   UNL     1       1.228  12.341  18.773  0.00  0.00    +0.000 A 
ATOM     10  C   UNL     1       2.151  13.042  19.538  0.00  0.00    +0.000 A 
ATOM     11  C   UNL     1       1.828  14.316  19.988  0.00  0.00    +0.000 A 
ATOM     12  C   UNL     1       0.617  14.916  19.613  0.00  0.00    +0.000 A 
ATOM     13  C   UNL     1      -0.283  14.254  18.775  0.00  0.00    +0.000 A 
ATOM     14  C   UNL     1       0.002  12.950  18.399  0.00  0.00    +0.000 A 
ATOM     15  N   UNL     1      -1.014  12.131  17.856  0.00  0.00    +0.000 N 
ATOM     16  C   UNL     1      -0.971  10.775  18.127  0.00  0.00    +0.000 A 
ATOM     17  O   UNL     1      -1.819   9.959  17.816  0.00  0.00    +0.000 OA
ATOM     18  H   UNL     1      -1.876  12.513  17.496  0.00  0.00    +0.000 HD
ENDBRANCH   6   7
BRANCH   1  21
ATOM     19  O   UNL     1       1.127   6.247  20.797  0.00  0.00    +0.000 OA
ATOM     20  C   UNL     1       1.862   7.052  20.237  0.00  0.00    +0.000 C 
ATOM     21  N   UNL     1       1.707   8.428  20.382  0.00  0.00    +0.000 N 
ATOM     22  H   UNL     1       2.081   8.994  19.627  0.00  0.00    +0.000 HD
BRANCH  20  23
ATOM     23  C   UNL     1       2.961   6.566  19.294  0.00  0.00    +0.000 A 
ATOM     24  C   UNL     1       3.902   5.564  19.616  0.00  0.00    +0.000 A 
ATOM     25  C   UNL     1       4.868   5.135  18.679  0.00  0.00    +0.000 A 
ATOM     26  C   UNL     1       4.923   5.700  17.403  0.00  0.00    +0.000 A 
ATOM     27  C   UNL     1       4.028   6.711  17.081  0.00  0.00    +0.000 A 
ATOM     28  C   UNL     1       3.073   7.143  18.017  0.00  0.00    +0.000 A 
ATOM     29  F   UNL     1       2.260   8.134  17.632  0.00  0.00    +0.000 F 
ENDBRANCH  20  23
ENDBRANCH   1  21
TORSDOF 3
ENDMDL
