MODEL 1
REMARK VINA RESULT:      -8.4      0.000      0.000
REMARK  Name = 
REMARK  3 active torsions:
REMARK  status: ('A' for Active; 'I' for Inactive)
REMARK    1  A    between atoms: C_5  and  C_7
REMARK    2  A    between atoms: C_10  and  S_11
REMARK    3  A    between atoms: S_11  and  N_14
REMARK                            x       y       z     vdW  Elec       q    Type
REMARK                         _______ _______ _______ _____ _____    ______ ____
ROOT
ATOM      1  C   UNL     1       1.353   8.932  18.967  0.00  0.00    +0.000 A 
ATOM      2  C   UNL     1       2.159   9.127  17.832  0.00  0.00    +0.000 A 
ATOM      3  C   UNL     1       3.171   8.216  17.502  0.00  0.00    +0.000 A 
ATOM      4  C   UNL     1       3.371   7.099  18.312  0.00  0.00    +0.000 A 
ATOM      5  C   UNL     1       2.600   6.910  19.461  0.00  0.00    +0.000 A 
ATOM      6  C   UNL     1       1.639   7.862  19.822  0.00  0.00    +0.000 A 
ENDROOT
BRANCH   1  11
ATOM      7  O   UNL     1       0.615   9.406  23.942  0.00  0.00    +0.000 OA
ATOM      8  C   UNL     1       0.137  10.006  22.987  0.00  0.00    +0.000 C 
ATOM      9  C   UNL     1       0.877  10.163  21.671  0.00  0.00    +0.000 C 
ATOM     10  N   UNL     1       0.056  10.482  20.487  0.00  0.00    +0.000 N 
ATOM     11  C   UNL     1       0.228   9.898  19.222  0.00  0.00    +0.000 C 
ATOM     12  O   UNL     1      -0.539  10.039  18.267  0.00  0.00    +0.000 OA
ATOM     13  C   UNL     1      -1.034  11.390  20.756  0.00  0.00    +0.000 A 
ATOM     14  C   UNL     1      -1.637  12.167  19.760  0.00  0.00    +0.000 A 
ATOM     15  C   UNL     1      -2.710  13.017  20.061  0.00  0.00    +0.000 A 
ATOM     16  C   UNL     1      -3.207  13.093  21.358  0.00  0.00    +0.000 A 
ATOM     17  C   UNL     1      -2.627  12.326  22.365  0.00  0.00    +0.000 A 
ATOM     18  C   UNL     1      -1.540  11.497  22.068  0.00  0.00    +0.000 A 
ATOM     19  N   UNL     1      -1.002  10.740  23.115  0.00  0.00    +0.000 N 
ATOM     20  H   UNL     1      -1.442  10.730  24.027  0.00  0.00    +0.000 HD
ENDBRANCH   1  11
BRANCH   4  21
ATOM     21  S   UNL     1       4.557   5.838  17.837  0.00  0.00    +0.000 S 
ATOM     22  O   UNL     1       4.618   5.845  16.390  0.00  0.00    +0.000 OA
ATOM     23  O   UNL     1       5.740   6.038  18.641  0.00  0.00    +0.000 OA
BRANCH  21  24
ATOM     24  N   UNL     1       3.809   4.373  18.333  0.00  0.00    +0.000 NA
ATOM     25  C   UNL     1       3.101   3.643  17.250  0.00  0.00    +0.000 C 
ATOM     26  C   UNL     1       2.317   2.456  17.801  0.00  0.00    +0.000 C 
ATOM     27  C   UNL     1       3.216   1.542  18.618  0.00  0.00    +0.000 C 
ATOM     28  C   UNL     1       3.827   2.332  19.765  0.00  0.00    +0.000 C 
ATOM     29  C   UNL     1       4.621   3.525  19.245  0.00  0.00    +0.000 C 
ENDBRANCH  21  24
ENDBRANCH   4  21
TORSDOF 3
ENDMDL
MODEL 2
REMARK VINA RESULT:      -8.4      2.115      3.621
REMARK  Name = 
REMARK  3 active torsions:
REMARK  status: ('A' for Active; 'I' for Inactive)
REMARK    1  A    between atoms: C_5  and  C_7
REMARK    2  A    between atoms: C_10  and  S_11
REMARK    3  A    between atoms: S_11  and  N_14
REMARK                            x       y       z     vdW  Elec       q    Type
REMARK                         _______ _______ _______ _____ _____    ______ ____
ROOT
ATOM      1  C   UNL     1       1.248   8.725  20.311  0.00  0.00    +0.000 A 
ATOM      2  C   UNL     1       1.148   7.523  21.035  0.00  0.00    +0.000 A 
ATOM      3  C   UNL     1       1.686   6.332  20.531  0.00  0.00    +0.000 A 
ATOM      4  C   UNL     1       2.335   6.347  19.296  0.00  0.00    +0.000 A 
ATOM      5  C   UNL     1       2.411   7.526  18.551  0.00  0.00    +0.000 A 
ATOM      6  C   UNL     1       1.810   8.696  19.030  0.00  0.00    +0.000 A 
ENDROOT
BRANCH   1  11
ATOM      7  O   UNL     1      -1.895  11.049  17.112  0.00  0.00    +0.000 OA
ATOM      8  C   UNL     1      -1.611  11.274  18.282  0.00  0.00    +0.000 C 
ATOM      9  C   UNL     1      -1.153  10.183  19.233  0.00  0.00    +0.000 C 
ATOM     10  N   UNL     1      -0.419  10.622  20.435  0.00  0.00    +0.000 N 
ATOM     11  C   UNL     1       0.726   9.987  20.942  0.00  0.00    +0.000 C 
ATOM     12  O   UNL     1       1.436  10.425  21.850  0.00  0.00    +0.000 OA
ATOM     13  C   UNL     1      -0.917  11.849  21.011  0.00  0.00    +0.000 A 
ATOM     14  C   UNL     1      -0.700  12.202  22.349  0.00  0.00    +0.000 A 
ATOM     15  C   UNL     1      -1.180  13.414  22.860  0.00  0.00    +0.000 A 
ATOM     16  C   UNL     1      -1.872  14.300  22.042  0.00  0.00    +0.000 A 
ATOM     17  C   UNL     1      -2.097  13.974  20.706  0.00  0.00    +0.000 A 
ATOM     18  C   UNL     1      -1.638  12.753  20.204  0.00  0.00    +0.000 A 
ATOM     19  N   UNL     1      -1.882  12.480  18.853  0.00  0.00    +0.000 N 
ATOM     20  H   UNL     1      -2.293  13.180  18.248  0.00  0.00    +0.000 HD
ENDBRANCH   1  11
BRANCH   4  21
ATOM     21  S   UNL     1       3.162   4.874  18.691  0.00  0.00    +0.000 S 
ATOM     22  O   UNL     1       3.655   4.163  19.854  0.00  0.00    +0.000 OA
ATOM     23  O   UNL     1       2.275   4.242  17.744  0.00  0.00    +0.000 OA
BRANCH  21  24
ATOM     24  N   UNL     1       4.515   5.495  17.834  0.00  0.00    +0.000 NA
ATOM     25  C   UNL     1       5.754   5.627  18.643  0.00  0.00    +0.000 C 
ATOM     26  C   UNL     1       6.851   6.347  17.867  0.00  0.00    +0.000 C 
ATOM     27  C   UNL     1       7.108   5.668  16.530  0.00  0.00    +0.000 C 
ATOM     28  C   UNL     1       5.822   5.659  15.717  0.00  0.00    +0.000 C 
ATOM     29  C   UNL     1       4.706   4.942  16.466  0.00  0.00    +0.000 C 
ENDBRANCH  21  24
ENDBRANCH   4  21
TORSDOF 3
ENDMDL
MODEL 3
REMARK VINA RESULT:      -8.4      2.324      3.693
REMARK  Name = 
REMARK  3 active torsions:
REMARK  status: ('A' for Active; 'I' for Inactive)
REMARK    1  A    between atoms: C_5  and  C_7
REMARK    2  A    between atoms: C_10  and  S_11
REMARK    3  A    between atoms: S_11  and  N_14
REMARK                            x       y       z     vdW  Elec       q    Type
REMARK                         _______ _______ _______ _____ _____    ______ ____
ROOT
ATOM      1  C   UNL     1       1.755   7.657  20.142  0.00  0.00    +0.000 A 
ATOM      2  C   UNL     1       1.863   6.384  20.728  0.00  0.00    +0.000 A 
ATOM      3  C   UNL     1       2.539   5.346  20.075  0.00  0.00    +0.000 A 
ATOM      4  C   UNL     1       3.117   5.588  18.829  0.00  0.00    +0.000 A 
ATOM      5  C   UNL     1       2.989   6.838  18.220  0.00  0.00    +0.000 A 
ATOM      6  C   UNL     1       2.251   7.849  18.848  0.00  0.00    +0.000 A 
ENDROOT
BRANCH   1  11
ATOM      7  O   UNL     1       2.481  12.087  17.826  0.00  0.00    +0.000 OA
ATOM      8  C   UNL     1       1.794  11.776  18.792  0.00  0.00    +0.000 C 
ATOM      9  C   UNL     1       1.229  10.379  18.971  0.00  0.00    +0.000 C 
ATOM     10  N   UNL     1       0.828  10.002  20.340  0.00  0.00    +0.000 N 
ATOM     11  C   UNL     1       1.091   8.754  20.930  0.00  0.00    +0.000 C 
ATOM     12  O   UNL     1       0.899   8.476  22.115  0.00  0.00    +0.000 OA
ATOM     13  C   UNL     1       0.217  11.074  21.089  0.00  0.00    +0.000 A 
ATOM     14  C   UNL     1      -0.625  10.851  22.185  0.00  0.00    +0.000 A 
ATOM     15  C   UNL     1      -1.178  11.922  22.899  0.00  0.00    +0.000 A 
ATOM     16  C   UNL     1      -0.886  13.233  22.541  0.00  0.00    +0.000 A 
ATOM     17  C   UNL     1      -0.047  13.482  21.458  0.00  0.00    +0.000 A 
ATOM     18  C   UNL     1       0.484  12.411  20.730  0.00  0.00    +0.000 A 
ATOM     19  N   UNL     1       1.329  12.717  19.658  0.00  0.00    +0.000 N 
ATOM     20  H   UNL     1       1.613  13.672  19.477  0.00  0.00    +0.000 HD
ENDBRANCH   1  11
BRANCH   4  21
ATOM     21  S   UNL     1       4.115   4.326  18.033  0.00  0.00    +0.000 S 
ATOM     22  O   UNL     1       4.136   3.185  18.927  0.00  0.00    +0.000 OA
ATOM     23  O   UNL     1       3.650   4.206  16.672  0.00  0.00    +0.000 OA
BRANCH  21  24
ATOM     24  N   UNL     1       5.689   5.013  18.008  0.00  0.00    +0.000 NA
ATOM     25  C   UNL     1       5.894   6.055  16.968  0.00  0.00    +0.000 C 
ATOM     26  C   UNL     1       7.354   6.485  16.892  0.00  0.00    +0.000 C 
ATOM     27  C   UNL     1       7.864   6.927  18.255  0.00  0.00    +0.000 C 
ATOM     28  C   UNL     1       7.716   5.779  19.243  0.00  0.00    +0.000 C 
ATOM     29  C   UNL     1       6.264   5.329  19.344  0.00  0.00    +0.000 C 
ENDBRANCH  21  24
ENDBRANCH   4  21
TORSDOF 3
ENDMDL
MODEL 4
REMARK VINA RESULT:      -8.4      2.337      3.764
REMARK  Name = 
REMARK  3 active torsions:
REMARK  status: ('A' for Active; 'I' for Inactive)
REMARK    1  A    between atoms: C_5  and  C_7
REMARK    2  A    between atoms: C_10  and  S_11
REMARK    3  A    between atoms: S_11  and  N_14
REMARK                            x       y       z     vdW  Elec       q    Type
REMARK                         _______ _______ _______ _____ _____    ______ ____
ROOT
ATOM      1  C   UNL     1       1.804   7.272  20.316  0.00  0.00    +0.000 A 
ATOM      2  C   UNL     1       1.614   5.967  20.805  0.00  0.00    +0.000 A 
ATOM      3  C   UNL     1       2.261   4.875  20.214  0.00  0.00    +0.000 A 
ATOM      4  C   UNL     1       3.111   5.094  19.130  0.00  0.00    +0.000 A 
ATOM      5  C   UNL     1       3.283   6.379  18.612  0.00  0.00    +0.000 A 
ATOM      6  C   UNL     1       2.577   7.455  19.164  0.00  0.00    +0.000 A 
ENDROOT
BRANCH   1  11
ATOM      7  O   UNL     1       2.411  11.541  17.685  0.00  0.00    +0.000 OA
ATOM      8  C   UNL     1       1.755  11.289  18.688  0.00  0.00    +0.000 C 
ATOM      9  C   UNL     1       1.212   9.902  18.978  0.00  0.00    +0.000 C 
ATOM     10  N   UNL     1       0.854   9.615  20.380  0.00  0.00    +0.000 N 
ATOM     11  C   UNL     1       1.148   8.413  21.046  0.00  0.00    +0.000 C 
ATOM     12  O   UNL     1       0.992   8.215  22.252  0.00  0.00    +0.000 OA
ATOM     13  C   UNL     1       0.250  10.729  21.072  0.00  0.00    +0.000 A 
ATOM     14  C   UNL     1      -0.559  10.572  22.204  0.00  0.00    +0.000 A 
ATOM     15  C   UNL     1      -1.104  11.684  22.859  0.00  0.00    +0.000 A 
ATOM     16  C   UNL     1      -0.839  12.971  22.404  0.00  0.00    +0.000 A 
ATOM     17  C   UNL     1      -0.033  13.154  21.283  0.00  0.00    +0.000 A 
ATOM     18  C   UNL     1       0.491  12.042  20.615  0.00  0.00    +0.000 A 
ATOM     19  N   UNL     1       1.302  12.282  19.501  0.00  0.00    +0.000 N 
ATOM     20  H   UNL     1       1.569  13.226  19.247  0.00  0.00    +0.000 HD
ENDBRANCH   1  11
BRANCH   4  21
ATOM     21  S   UNL     1       4.069   3.739  18.444  0.00  0.00    +0.000 S 
ATOM     22  O   UNL     1       4.936   3.262  19.503  0.00  0.00    +0.000 OA
ATOM     23  O   UNL     1       3.144   2.856  17.774  0.00  0.00    +0.000 OA
BRANCH  21  24
ATOM     24  N   UNL     1       5.048   4.500  17.255  0.00  0.00    +0.000 NA
ATOM     25  C   UNL     1       6.454   4.741  17.672  0.00  0.00    +0.000 C 
ATOM     26  C   UNL     1       7.205   5.574  16.639  0.00  0.00    +0.000 C 
ATOM     27  C   UNL     1       7.116   4.940  15.260  0.00  0.00    +0.000 C 
ATOM     28  C   UNL     1       5.654   4.817  14.857  0.00  0.00    +0.000 C 
ATOM     29  C   UNL     1       4.876   3.985  15.870  0.00  0.00    +0.000 C 
ENDBRANCH  21  24
ENDBRANCH   4  21
TORSDOF 3
ENDMDL
MODEL 5
REMARK VINA RESULT:      -8.3      1.974      3.365
REMARK  Name = 
REMARK  3 active torsions:
REMARK  status: ('A' for Active; 'I' for Inactive)
REMARK    1  A    between atoms: C_5  and  C_7
REMARK    2  A    between atoms: C_10  and  S_11
REMARK    3  A    between atoms: S_11  and  N_14
REMARK                            x       y       z     vdW  Elec       q    Type
REMARK                         _______ _______ _______ _____ _____    ______ ____
ROOT
ATOM      1  C   UNL     1       1.364   8.446  20.482  0.00  0.00    +0.000 A 
ATOM      2  C   UNL     1       1.992   8.489  19.224  0.00  0.00    +0.000 A 
ATOM      3  C   UNL     1       2.504   7.326  18.635  0.00  0.00    +0.000 A 
ATOM      4  C   UNL     1       2.379   6.111  19.307  0.00  0.00    +0.000 A 
ATOM      5  C   UNL     1       1.789   6.059  20.572  0.00  0.00    +0.000 A 
ATOM      6  C   UNL     1       1.344   7.236  21.184  0.00  0.00    +0.000 A 
ENDROOT
BRANCH   1  11
ATOM      7  O   UNL     1      -1.758  10.439  17.047  0.00  0.00    +0.000 OA
ATOM      8  C   UNL     1      -1.531  10.740  18.213  0.00  0.00    +0.000 C 
ATOM      9  C   UNL     1      -1.059   9.725  19.238  0.00  0.00    +0.000 C 
ATOM     10  N   UNL     1      -0.394  10.263  20.440  0.00  0.00    +0.000 N 
ATOM     11  C   UNL     1       0.759   9.713  21.023  0.00  0.00    +0.000 C 
ATOM     12  O   UNL     1       1.410  10.233  21.931  0.00  0.00    +0.000 OA
ATOM     13  C   UNL     1      -0.972  11.492  20.930  0.00  0.00    +0.000 A 
ATOM     14  C   UNL     1      -0.825  11.926  22.253  0.00  0.00    +0.000 A 
ATOM     15  C   UNL     1      -1.383  13.138  22.680  0.00  0.00    +0.000 A 
ATOM     16  C   UNL     1      -2.083  13.944  21.789  0.00  0.00    +0.000 A 
ATOM     17  C   UNL     1      -2.239  13.537  20.466  0.00  0.00    +0.000 A 
ATOM     18  C   UNL     1      -1.703  12.314  20.048  0.00  0.00    +0.000 A 
ATOM     19  N   UNL     1      -1.881  11.959  18.707  0.00  0.00    +0.000 N 
ATOM     20  H   UNL     1      -2.301  12.605  18.050  0.00  0.00    +0.000 HD
ENDBRANCH   1  11
BRANCH   4  21
ATOM     21  S   UNL     1       2.891   4.583  18.517  0.00  0.00    +0.000 S 
ATOM     22  O   UNL     1       2.984   3.582  19.561  0.00  0.00    +0.000 OA
ATOM     23  O   UNL     1       2.044   4.392  17.364  0.00  0.00    +0.000 OA
BRANCH  21  24
ATOM     24  N   UNL     1       4.482   4.928  17.966  0.00  0.00    +0.000 NA
ATOM     25  C   UNL     1       5.494   5.068  19.046  0.00  0.00    +0.000 C 
ATOM     26  C   UNL     1       6.832   5.547  18.495  0.00  0.00    +0.000 C 
ATOM     27  C   UNL     1       7.313   4.643  17.370  0.00  0.00    +0.000 C 
ATOM     28  C   UNL     1       6.274   4.627  16.259  0.00  0.00    +0.000 C 
ATOM     29  C   UNL     1       4.924   4.148  16.779  0.00  0.00    +0.000 C 
ENDBRANCH  21  24
ENDBRANCH   4  21
TORSDOF 3
ENDMDL
MODEL 6
REMARK VINA RESULT:      -8.3      1.895      2.511
REMARK  Name = 
REMARK  3 active torsions:
REMARK  status: ('A' for Active; 'I' for Inactive)
REMARK    1  A    between atoms: C_5  and  C_7
REMARK    2  A    between atoms: C_10  and  S_11
REMARK    3  A    between atoms: S_11  and  N_14
REMARK                            x       y       z     vdW  Elec       q    Type
REMARK                         _______ _______ _______ _____ _____    ______ ____
ROOT
ATOM      1  C   UNL     1       1.838   8.295  19.041  0.00  0.00    +0.000 A 
ATOM      2  C   UNL     1       2.756   8.198  17.979  0.00  0.00    +0.000 A 
ATOM      3  C   UNL     1       3.645   7.119  17.893  0.00  0.00    +0.000 A 
ATOM      4  C   UNL     1       3.609   6.127  18.872  0.00  0.00    +0.000 A 
ATOM      5  C   UNL     1       2.726   6.228  19.949  0.00  0.00    +0.000 A 
ATOM      6  C   UNL     1       1.891   7.344  20.066  0.00  0.00    +0.000 A 
ENDROOT
BRANCH   1  11
ATOM      7  O   UNL     1       0.486   9.398  23.781  0.00  0.00    +0.000 OA
ATOM      8  C   UNL     1       0.247   9.953  22.716  0.00  0.00    +0.000 C 
ATOM      9  C   UNL     1       1.181   9.863  21.523  0.00  0.00    +0.000 C 
ATOM     10  N   UNL     1       0.596  10.165  20.203  0.00  0.00    +0.000 N 
ATOM     11  C   UNL     1       0.852   9.431  19.033  0.00  0.00    +0.000 C 
ATOM     12  O   UNL     1       0.259   9.575  17.962  0.00  0.00    +0.000 OA
ATOM     13  C   UNL     1      -0.367  11.241  20.220  0.00  0.00    +0.000 A 
ATOM     14  C   UNL     1      -0.696  11.984  19.080  0.00  0.00    +0.000 A 
ATOM     15  C   UNL     1      -1.655  13.004  19.137  0.00  0.00    +0.000 A 
ATOM     16  C   UNL     1      -2.313  13.287  20.329  0.00  0.00    +0.000 A 
ATOM     17  C   UNL     1      -2.008  12.558  21.476  0.00  0.00    +0.000 A 
ATOM     18  C   UNL     1      -1.032  11.558  21.423  0.00  0.00    +0.000 A 
ATOM     19  N   UNL     1      -0.771  10.850  22.602  0.00  0.00    +0.000 N 
ATOM     20  H   UNL     1      -1.332  10.999  23.432  0.00  0.00    +0.000 HD
ENDBRANCH   1  11
BRANCH   4  21
ATOM     21  S   UNL     1       4.630   4.660  18.711  0.00  0.00    +0.000 S 
ATOM     22  O   UNL     1       5.678   4.768  19.707  0.00  0.00    +0.000 OA
ATOM     23  O   UNL     1       3.743   3.521  18.673  0.00  0.00    +0.000 OA
BRANCH  21  24
ATOM     24  N   UNL     1       5.348   4.837  17.160  0.00  0.00    +0.000 NA
ATOM     25  C   UNL     1       6.834   4.824  17.161  0.00  0.00    +0.000 C 
ATOM     26  C   UNL     1       7.393   5.164  15.784  0.00  0.00    +0.000 C 
ATOM     27  C   UNL     1       6.812   4.248  14.719  0.00  0.00    +0.000 C 
ATOM     28  C   UNL     1       5.297   4.388  14.708  0.00  0.00    +0.000 C 
ATOM     29  C   UNL     1       4.707   4.051  16.073  0.00  0.00    +0.000 C 
ENDBRANCH  21  24
ENDBRANCH   4  21
TORSDOF 3
ENDMDL
MODEL 7
REMARK VINA RESULT:      -8.3      1.373      2.761
REMARK  Name = 
REMARK  3 active torsions:
REMARK  status: ('A' for Active; 'I' for Inactive)
REMARK    1  A    between atoms: C_5  and  C_7
REMARK    2  A    between atoms: C_10  and  S_11
REMARK    3  A    between atoms: S_11  and  N_14
REMARK                            x       y       z     vdW  Elec       q    Type
REMARK                         _______ _______ _______ _____ _____    ______ ____
ROOT
ATOM      1  C   UNL     1       1.217   9.140  20.021  0.00  0.00    +0.000 A 
ATOM      2  C   UNL     1       1.465   7.957  20.741  0.00  0.00    +0.000 A 
ATOM      3  C   UNL     1       2.243   6.930  20.193  0.00  0.00    +0.000 A 
ATOM      4  C   UNL     1       2.783   7.092  18.917  0.00  0.00    +0.000 A 
ATOM      5  C   UNL     1       2.517   8.246  18.178  0.00  0.00    +0.000 A 
ATOM      6  C   UNL     1       1.681   9.237  18.705  0.00  0.00    +0.000 A 
ENDROOT
BRANCH   1  11
ATOM      7  O   UNL     1      -2.165  11.062  16.800  0.00  0.00    +0.000 OA
ATOM      8  C   UNL     1      -1.976  11.257  17.995  0.00  0.00    +0.000 C 
ATOM      9  C   UNL     1      -1.365  10.207  18.904  0.00  0.00    +0.000 C 
ATOM     10  N   UNL     1      -0.775  10.690  20.166  0.00  0.00    +0.000 N 
ATOM     11  C   UNL     1       0.446  10.241  20.696  0.00  0.00    +0.000 C 
ATOM     12  O   UNL     1       1.024  10.739  21.664  0.00  0.00    +0.000 OA
ATOM     13  C   UNL     1      -1.514  11.765  20.786  0.00  0.00    +0.000 A 
ATOM     14  C   UNL     1      -1.422  12.062  22.151  0.00  0.00    +0.000 A 
ATOM     15  C   UNL     1      -2.139  13.129  22.706  0.00  0.00    +0.000 A 
ATOM     16  C   UNL     1      -2.948  13.928  21.905  0.00  0.00    +0.000 A 
ATOM     17  C   UNL     1      -3.052  13.656  20.542  0.00  0.00    +0.000 A 
ATOM     18  C   UNL     1      -2.356  12.574  19.995  0.00  0.00    +0.000 A 
ATOM     19  N   UNL     1      -2.488  12.352  18.620  0.00  0.00    +0.000 N 
ATOM     20  H   UNL     1      -2.997  13.005  18.035  0.00  0.00    +0.000 HD
ENDBRANCH   1  11
BRANCH   4  21
ATOM     21  S   UNL     1       3.904   5.861  18.246  0.00  0.00    +0.000 S 
ATOM     22  O   UNL     1       3.909   6.039  16.808  0.00  0.00    +0.000 OA
ATOM     23  O   UNL     1       5.124   5.927  19.017  0.00  0.00    +0.000 OA
BRANCH  21  24
ATOM     24  N   UNL     1       3.123   4.372  18.598  0.00  0.00    +0.000 NA
ATOM     25  C   UNL     1       1.776   4.221  17.989  0.00  0.00    +0.000 C 
ATOM     26  C   UNL     1       1.078   2.961  18.489  0.00  0.00    +0.000 C 
ATOM     27  C   UNL     1       1.948   1.733  18.269  0.00  0.00    +0.000 C 
ATOM     28  C   UNL     1       3.269   1.916  19.002  0.00  0.00    +0.000 C 
ATOM     29  C   UNL     1       3.993   3.168  18.520  0.00  0.00    +0.000 C 
ENDBRANCH  21  24
ENDBRANCH   4  21
TORSDOF 3
ENDMDL
MODEL 8
REMARK VINA RESULT:      -8.3      0.903      1.327
REMARK  Name = 
REMARK  3 active torsions:
REMARK  status: ('A' for Active; 'I' for Inactive)
REMARK    1  A    between atoms: C_5  and  C_7
REMARK    2  A    between atoms: C_10  and  S_11
REMARK    3  A    between atoms: S_11  and  N_14
REMARK                            x       y       z     vdW  Elec       q    Type
REMARK                         _______ _______ _______ _____ _____    ______ ____
ROOT
ATOM      1  C   UNL     1       1.274   9.013  19.154  0.00  0.00    +0.000 A 
ATOM      2  C   UNL     1       1.967   8.947  17.931  0.00  0.00    +0.000 A 
ATOM      3  C   UNL     1       2.864   7.904  17.668  0.00  0.00    +0.000 A 
ATOM      4  C   UNL     1       3.063   6.917  18.632  0.00  0.00    +0.000 A 
ATOM      5  C   UNL     1       2.408   6.989  19.863  0.00  0.00    +0.000 A 
ATOM      6  C   UNL     1       1.567   8.071  20.146  0.00  0.00    +0.000 A 
ENDROOT
BRANCH   1  11
ATOM      7  O   UNL     1       0.093   9.396  24.049  0.00  0.00    +0.000 OA
ATOM      8  C   UNL     1      -0.204  10.089  23.084  0.00  0.00    +0.000 C 
ATOM      9  C   UNL     1       0.682  10.196  21.856  0.00  0.00    +0.000 C 
ATOM     10  N   UNL     1       0.035  10.663  20.615  0.00  0.00    +0.000 N 
ATOM     11  C   UNL     1       0.261  10.108  19.344  0.00  0.00    +0.000 C 
ATOM     12  O   UNL     1      -0.379  10.383  18.328  0.00  0.00    +0.000 OA
ATOM     13  C   UNL     1      -0.953  11.695  20.821  0.00  0.00    +0.000 A 
ATOM     14  C   UNL     1      -1.347  12.581  19.811  0.00  0.00    +0.000 A 
ATOM     15  C   UNL     1      -2.328  13.553  20.048  0.00  0.00    +0.000 A 
ATOM     16  C   UNL     1      -2.942  13.646  21.291  0.00  0.00    +0.000 A 
ATOM     17  C   UNL     1      -2.572  12.773  22.311  0.00  0.00    +0.000 A 
ATOM     18  C   UNL     1      -1.574  11.820  22.081  0.00  0.00    +0.000 A 
ATOM     19  N   UNL     1      -1.248  10.961  23.136  0.00  0.00    +0.000 N 
ATOM     20  H   UNL     1      -1.778  10.975  23.999  0.00  0.00    +0.000 HD
ENDBRANCH   1  11
BRANCH   4  21
ATOM     21  S   UNL     1       4.091   5.491  18.269  0.00  0.00    +0.000 S 
ATOM     22  O   UNL     1       4.243   5.441  16.829  0.00  0.00    +0.000 OA
ATOM     23  O   UNL     1       5.238   5.555  19.145  0.00  0.00    +0.000 OA
BRANCH  21  24
ATOM     24  N   UNL     1       3.118   4.160  18.750  0.00  0.00    +0.000 NA
ATOM     25  C   UNL     1       3.153   3.861  20.205  0.00  0.00    +0.000 C 
ATOM     26  C   UNL     1       2.412   2.568  20.525  0.00  0.00    +0.000 C 
ATOM     27  C   UNL     1       0.993   2.603  19.980  0.00  0.00    +0.000 C 
ATOM     28  C   UNL     1       1.039   2.812  18.474  0.00  0.00    +0.000 C 
ATOM     29  C   UNL     1       1.771   4.101  18.122  0.00  0.00    +0.000 C 
ENDBRANCH  21  24
ENDBRANCH   4  21
TORSDOF 3
ENDMDL
MODEL 9
REMARK VINA RESULT:      -8.2      2.085      3.584
REMARK  Name = 
REMARK  3 active torsions:
REMARK  status: ('A' for Active; 'I' for Inactive)
REMARK    1  A    between atoms: C_5  and  C_7
REMARK    2  A    between atoms: C_10  and  S_11
REMARK    3  A    between atoms: S_11  and  N_14
REMARK                            x       y       z     vdW  Elec       q    Type
REMARK                         _______ _______ _______ _____ _____    ______ ____
ROOT
ATOM      1  C   UNL     1       1.645   7.926  20.166  0.00  0.00    +0.000 A 
ATOM      2  C   UNL     1       1.605   6.674  20.805  0.00  0.00    +0.000 A 
ATOM      3  C   UNL     1       2.216   5.553  20.230  0.00  0.00    +0.000 A 
ATOM      4  C   UNL     1       2.878   5.689  19.010  0.00  0.00    +0.000 A 
ATOM      5  C   UNL     1       2.896   6.918  18.348  0.00  0.00    +0.000 A 
ATOM      6  C   UNL     1       2.223   8.017  18.895  0.00  0.00    +0.000 A 
ENDROOT
BRANCH   1  11
ATOM      7  O   UNL     1      -1.517  10.338  17.052  0.00  0.00    +0.000 OA
ATOM      8  C   UNL     1      -1.277  10.487  18.244  0.00  0.00    +0.000 C 
ATOM      9  C   UNL     1      -0.793   9.349  19.124  0.00  0.00    +0.000 C 
ATOM     10  N   UNL     1      -0.115   9.729  20.379  0.00  0.00    +0.000 N 
ATOM     11  C   UNL     1       1.045   9.111  20.873  0.00  0.00    +0.000 C 
ATOM     12  O   UNL     1       1.706   9.511  21.834  0.00  0.00    +0.000 OA
ATOM     13  C   UNL     1      -0.689  10.883  21.029  0.00  0.00    +0.000 A 
ATOM     14  C   UNL     1      -0.527  11.143  22.396  0.00  0.00    +0.000 A 
ATOM     15  C   UNL     1      -1.080  12.289  22.981  0.00  0.00    +0.000 A 
ATOM     16  C   UNL     1      -1.791  13.202  22.210  0.00  0.00    +0.000 A 
ATOM     17  C   UNL     1      -1.962  12.969  20.848  0.00  0.00    +0.000 A 
ATOM     18  C   UNL     1      -1.430  11.811  20.270  0.00  0.00    +0.000 A 
ATOM     19  N   UNL     1      -1.622  11.631  18.895  0.00  0.00    +0.000 N 
ATOM     20  H   UNL     1      -2.051  12.356  18.332  0.00  0.00    +0.000 HD
ENDBRANCH   1  11
BRANCH   4  21
ATOM     21  S   UNL     1       3.795   4.309  18.319  0.00  0.00    +0.000 S 
ATOM     22  O   UNL     1       3.838   3.282  19.341  0.00  0.00    +0.000 OA
ATOM     23  O   UNL     1       3.250   4.045  17.008  0.00  0.00    +0.000 OA
BRANCH  21  24
ATOM     24  N   UNL     1       5.383   4.937  18.128  0.00  0.00    +0.000 NA
ATOM     25  C   UNL     1       5.552   5.849  16.966  0.00  0.00    +0.000 C 
ATOM     26  C   UNL     1       7.016   6.219  16.759  0.00  0.00    +0.000 C 
ATOM     27  C   UNL     1       7.618   6.793  18.032  0.00  0.00    +0.000 C 
ATOM     28  C   UNL     1       7.500   5.768  19.150  0.00  0.00    +0.000 C 
ATOM     29  C   UNL     1       6.044   5.380  19.384  0.00  0.00    +0.000 C 
ENDBRANCH  21  24
ENDBRANCH   4  21
TORSDOF 3
ENDMDL
