MODEL 1
REMARK VINA RESULT:      -8.8      0.000      0.000
REMARK  Name = 
REMARK  5 active torsions:
REMARK  status: ('A' for Active; 'I' for Inactive)
REMARK    1  A    between atoms: C_2  and  O_3
REMARK    2  A    between atoms: C_2  and  C_19
REMARK    3  A    between atoms: O_3  and  C_4
REMARK    4  A    between atoms: C_4  and  C_5
REMARK    5  A    between atoms: C_19  and  C_20
REMARK                            x       y       z     vdW  Elec       q    Type
REMARK                         _______ _______ _______ _____ _____    ______ ____
ROOT
ATOM      1  C   UNL     1       4.785   3.417  17.397  0.00  0.00    +0.000 A 
ATOM      2  C   UNL     1       5.205   3.871  18.592  0.00  0.00    +0.000 A 
ATOM      3  C   UNL     1       6.273   4.863  18.759  0.00  0.00    +0.000 A 
ATOM      4  O   UNL     1       6.715   5.134  19.869  0.00  0.00    +0.000 OA
ATOM      5  O   UNL     1       6.677   5.516  17.618  0.00  0.00    +0.000 OA
ATOM      6  C   UNL     1       6.378   4.973  16.356  0.00  0.00    +0.000 A 
ATOM      7  C   UNL     1       7.076   5.565  15.309  0.00  0.00    +0.000 A 
ATOM      8  C   UNL     1       6.973   4.991  14.064  0.00  0.00    +0.000 A 
ATOM      9  C   UNL     1       6.167   3.868  13.851  0.00  0.00    +0.000 A 
ATOM     10  C   UNL     1       5.408   3.320  14.897  0.00  0.00    +0.000 A 
ATOM     11  C   UNL     1       5.507   3.879  16.190  0.00  0.00    +0.000 A 
ATOM     12  C   UNL     1       6.272   3.446  12.409  0.00  0.00    +0.000 C 
ATOM     13  C   UNL     1       7.514   4.226  11.922  0.00  0.00    +0.000 C 
ATOM     14  C   UNL     1       7.672   5.447  12.828  0.00  0.00    +0.000 C 
ENDROOT
BRANCH   1  15
ATOM     15  C   UNL     1       3.614   2.465  17.347  0.00  0.00    +0.000 C 
BRANCH  15  16
ATOM     16  O   UNL     1       3.188   2.150  18.678  0.00  0.00    +0.000 OA
BRANCH  16  18
ATOM     17  O   UNL     1       0.913   2.210  18.346  0.00  0.00    +0.000 OA
ATOM     18  C   UNL     1       1.919   2.531  18.962  0.00  0.00    +0.000 C 
BRANCH  18  19
ATOM     19  C   UNL     1       1.849   3.520  20.102  0.00  0.00    +0.000 C 
ATOM     20  C   UNL     1       2.656   3.151  21.349  0.00  0.00    +0.000 C 
ATOM     21  C   UNL     1       1.164   3.101  21.413  0.00  0.00    +0.000 C 
BRANCH  19  22
ATOM     22  C   UNL     1       1.784   5.011  19.766  0.00  0.00    +0.000 A 
ATOM     23  C   UNL     1       1.627   5.990  20.762  0.00  0.00    +0.000 A 
ATOM     24  C   UNL     1       1.869   7.340  20.491  0.00  0.00    +0.000 A 
ATOM     25  C   UNL     1       2.242   7.738  19.209  0.00  0.00    +0.000 A 
ATOM     26  C   UNL     1       2.299   6.799  18.184  0.00  0.00    +0.000 A 
ATOM     27  C   UNL     1       2.049   5.455  18.458  0.00  0.00    +0.000 A 
ENDBRANCH  19  22
ENDBRANCH  18  19
ENDBRANCH  16  18
ENDBRANCH  15  16
ENDBRANCH   1  15
TORSDOF 5
ENDMDL
MODEL 2
REMARK VINA RESULT:      -8.6      1.275      1.824
REMARK  Name = 
REMARK  5 active torsions:
REMARK  status: ('A' for Active; 'I' for Inactive)
REMARK    1  A    between atoms: C_2  and  O_3
REMARK    2  A    between atoms: C_2  and  C_19
REMARK    3  A    between atoms: O_3  and  C_4
REMARK    4  A    between atoms: C_4  and  C_5
REMARK    5  A    between atoms: C_19  and  C_20
REMARK                            x       y       z     vdW  Elec       q    Type
REMARK                         _______ _______ _______ _____ _____    ______ ____
ROOT
ATOM      1  C   UNL     1       5.742   4.449  17.585  0.00  0.00    +0.000 A 
ATOM      2  C   UNL     1       6.444   5.216  18.438  0.00  0.00    +0.000 A 
ATOM      3  C   UNL     1       7.500   6.146  18.020  0.00  0.00    +0.000 A 
ATOM      4  O   UNL     1       8.205   6.713  18.846  0.00  0.00    +0.000 OA
ATOM      5  O   UNL     1       7.586   6.398  16.671  0.00  0.00    +0.000 OA
ATOM      6  C   UNL     1       6.986   5.517  15.753  0.00  0.00    +0.000 A 
ATOM      7  C   UNL     1       7.383   5.722  14.436  0.00  0.00    +0.000 A 
ATOM      8  C   UNL     1       6.976   4.805  13.495  0.00  0.00    +0.000 A 
ATOM      9  C   UNL     1       6.164   3.722  13.845  0.00  0.00    +0.000 A 
ATOM     10  C   UNL     1       5.708   3.563  15.163  0.00  0.00    +0.000 A 
ATOM     11  C   UNL     1       6.123   4.480  16.154  0.00  0.00    +0.000 A 
ATOM     12  C   UNL     1       5.906   2.878  12.625  0.00  0.00    +0.000 C 
ATOM     13  C   UNL     1       6.968   3.397  11.629  0.00  0.00    +0.000 C 
ATOM     14  C   UNL     1       7.328   4.823  12.045  0.00  0.00    +0.000 C 
ENDROOT
BRANCH   1  15
ATOM     15  C   UNL     1       4.616   3.599  18.122  0.00  0.00    +0.000 C 
BRANCH  15  16
ATOM     16  O   UNL     1       4.507   3.779  19.539  0.00  0.00    +0.000 OA
BRANCH  16  18
ATOM     17  O   UNL     1       3.132   2.482  20.850  0.00  0.00    +0.000 OA
ATOM     18  C   UNL     1       3.315   3.397  20.061  0.00  0.00    +0.000 C 
BRANCH  18  19
ATOM     19  C   UNL     1       2.153   4.168  19.481  0.00  0.00    +0.000 C 
ATOM     20  C   UNL     1       0.765   3.595  19.775  0.00  0.00    +0.000 C 
ATOM     21  C   UNL     1       1.298   3.515  18.382  0.00  0.00    +0.000 C 
BRANCH  19  22
ATOM     22  C   UNL     1       2.248   5.694  19.429  0.00  0.00    +0.000 A 
ATOM     23  C   UNL     1       2.549   6.379  18.239  0.00  0.00    +0.000 A 
ATOM     24  C   UNL     1       2.340   7.758  18.128  0.00  0.00    +0.000 A 
ATOM     25  C   UNL     1       1.854   8.479  19.216  0.00  0.00    +0.000 A 
ATOM     26  C   UNL     1       1.650   7.839  20.434  0.00  0.00    +0.000 A 
ATOM     27  C   UNL     1       1.869   6.465  20.542  0.00  0.00    +0.000 A 
ENDBRANCH  19  22
ENDBRANCH  18  19
ENDBRANCH  16  18
ENDBRANCH  15  16
ENDBRANCH   1  15
TORSDOF 5
ENDMDL
MODEL 3
REMARK VINA RESULT:      -8.5      0.670      1.145
REMARK  Name = 
REMARK  5 active torsions:
REMARK  status: ('A' for Active; 'I' for Inactive)
REMARK    1  A    between atoms: C_2  and  O_3
REMARK    2  A    between atoms: C_2  and  C_19
REMARK    3  A    between atoms: O_3  and  C_4
REMARK    4  A    between atoms: C_4  and  C_5
REMARK    5  A    between atoms: C_19  and  C_20
REMARK                            x       y       z     vdW  Elec       q    Type
REMARK                         _______ _______ _______ _____ _____    ______ ____
ROOT
ATOM      1  C   UNL     1       5.001   3.701  17.630  0.00  0.00    +0.000 A 
ATOM      2  C   UNL     1       5.527   4.198  18.765  0.00  0.00    +0.000 A 
ATOM      3  C   UNL     1       6.647   5.144  18.800  0.00  0.00    +0.000 A 
ATOM      4  O   UNL     1       7.181   5.453  19.858  0.00  0.00    +0.000 OA
ATOM      5  O   UNL     1       6.994   5.716  17.598  0.00  0.00    +0.000 OA
ATOM      6  C   UNL     1       6.581   5.121  16.392  0.00  0.00    +0.000 A 
ATOM      7  C   UNL     1       7.226   5.623  15.268  0.00  0.00    +0.000 A 
ATOM      8  C   UNL     1       7.006   4.989  14.067  0.00  0.00    +0.000 A 
ATOM      9  C   UNL     1       6.138   3.896  13.975  0.00  0.00    +0.000 A 
ATOM     10  C   UNL     1       5.434   3.442  15.102  0.00  0.00    +0.000 A 
ATOM     11  C   UNL     1       5.652   4.064  16.351  0.00  0.00    +0.000 A 
ATOM     12  C   UNL     1       6.118   3.394  12.556  0.00  0.00    +0.000 C 
ATOM     13  C   UNL     1       7.354   4.086  11.939  0.00  0.00    +0.000 C 
ATOM     14  C   UNL     1       7.632   5.344  12.760  0.00  0.00    +0.000 C 
ENDROOT
BRANCH   1  15
ATOM     15  C   UNL     1       3.788   2.806  17.717  0.00  0.00    +0.000 C 
BRANCH  15  16
ATOM     16  O   UNL     1       2.605   3.563  17.439  0.00  0.00    +0.000 OA
BRANCH  16  18
ATOM     17  O   UNL     1       0.579   2.746  18.157  0.00  0.00    +0.000 OA
ATOM     18  C   UNL     1       1.605   3.386  18.337  0.00  0.00    +0.000 C 
BRANCH  18  19
ATOM     19  C   UNL     1       1.821   4.168  19.610  0.00  0.00    +0.000 C 
ATOM     20  C   UNL     1       2.601   3.443  20.709  0.00  0.00    +0.000 C 
ATOM     21  C   UNL     1       1.141   3.690  20.904  0.00  0.00    +0.000 C 
BRANCH  19  22
ATOM     22  C   UNL     1       2.063   5.675  19.505  0.00  0.00    +0.000 A 
ATOM     23  C   UNL     1       2.453   6.281  18.298  0.00  0.00    +0.000 A 
ATOM     24  C   UNL     1       2.380   7.668  18.131  0.00  0.00    +0.000 A 
ATOM     25  C   UNL     1       1.944   8.474  19.179  0.00  0.00    +0.000 A 
ATOM     26  C   UNL     1       1.655   7.904  20.415  0.00  0.00    +0.000 A 
ATOM     27  C   UNL     1       1.738   6.522  20.579  0.00  0.00    +0.000 A 
ENDBRANCH  19  22
ENDBRANCH  18  19
ENDBRANCH  16  18
ENDBRANCH  15  16
ENDBRANCH   1  15
TORSDOF 5
ENDMDL
MODEL 4
REMARK VINA RESULT:      -8.5      3.529      5.789
REMARK  Name = 
REMARK  5 active torsions:
REMARK  status: ('A' for Active; 'I' for Inactive)
REMARK    1  A    between atoms: C_2  and  O_3
REMARK    2  A    between atoms: C_2  and  C_19
REMARK    3  A    between atoms: O_3  and  C_4
REMARK    4  A    between atoms: C_4  and  C_5
REMARK    5  A    between atoms: C_19  and  C_20
REMARK                            x       y       z     vdW  Elec       q    Type
REMARK                         _______ _______ _______ _____ _____    ______ ____
ROOT
ATOM      1  C   UNL     1       2.219   5.940  20.139  0.00  0.00    +0.000 A 
ATOM      2  C   UNL     1       1.498   4.987  20.756  0.00  0.00    +0.000 A 
ATOM      3  C   UNL     1       1.581   3.560  20.428  0.00  0.00    +0.000 A 
ATOM      4  O   UNL     1       0.800   2.753  20.918  0.00  0.00    +0.000 OA
ATOM      5  O   UNL     1       2.626   3.184  19.618  0.00  0.00    +0.000 OA
ATOM      6  C   UNL     1       3.296   4.149  18.844  0.00  0.00    +0.000 A 
ATOM      7  C   UNL     1       4.127   3.610  17.869  0.00  0.00    +0.000 A 
ATOM      8  C   UNL     1       4.693   4.474  16.961  0.00  0.00    +0.000 A 
ATOM      9  C   UNL     1       4.465   5.851  17.034  0.00  0.00    +0.000 A 
ATOM     10  C   UNL     1       3.683   6.395  18.066  0.00  0.00    +0.000 A 
ATOM     11  C   UNL     1       3.076   5.531  19.004  0.00  0.00    +0.000 A 
ATOM     12  C   UNL     1       5.183   6.537  15.902  0.00  0.00    +0.000 C 
ATOM     13  C   UNL     1       5.531   5.358  14.965  0.00  0.00    +0.000 C 
ATOM     14  C   UNL     1       5.576   4.091  15.820  0.00  0.00    +0.000 C 
ENDROOT
BRANCH   1  15
ATOM     15  C   UNL     1       2.117   7.366  20.626  0.00  0.00    +0.000 C 
BRANCH  15  16
ATOM     16  O   UNL     1       0.905   7.957  20.143  0.00  0.00    +0.000 OA
BRANCH  16  18
ATOM     17  O   UNL     1       0.942  10.027  21.145  0.00  0.00    +0.000 OA
ATOM     18  C   UNL     1       0.903   9.313  20.153  0.00  0.00    +0.000 C 
BRANCH  18  19
ATOM     19  C   UNL     1       0.736   9.905  18.774  0.00  0.00    +0.000 C 
ATOM     20  C   UNL     1       1.523   9.216  17.657  0.00  0.00    +0.000 C 
ATOM     21  C   UNL     1       1.943  10.579  18.100  0.00  0.00    +0.000 C 
BRANCH  19  22
ATOM     22  C   UNL     1      -0.637  10.455  18.382  0.00  0.00    +0.000 A 
ATOM     23  C   UNL     1      -1.448   9.814  17.430  0.00  0.00    +0.000 A 
ATOM     24  C   UNL     1      -2.802  10.142  17.298  0.00  0.00    +0.000 A 
ATOM     25  C   UNL     1      -3.358  11.139  18.096  0.00  0.00    +0.000 A 
ATOM     26  C   UNL     1      -2.548  11.858  18.968  0.00  0.00    +0.000 A 
ATOM     27  C   UNL     1      -1.197  11.533  19.090  0.00  0.00    +0.000 A 
ENDBRANCH  19  22
ENDBRANCH  18  19
ENDBRANCH  16  18
ENDBRANCH  15  16
ENDBRANCH   1  15
TORSDOF 5
ENDMDL
MODEL 5
REMARK VINA RESULT:      -8.3      3.683      5.742
REMARK  Name = 
REMARK  5 active torsions:
REMARK  status: ('A' for Active; 'I' for Inactive)
REMARK    1  A    between atoms: C_2  and  O_3
REMARK    2  A    between atoms: C_2  and  C_19
REMARK    3  A    between atoms: O_3  and  C_4
REMARK    4  A    between atoms: C_4  and  C_5
REMARK    5  A    between atoms: C_19  and  C_20
REMARK                            x       y       z     vdW  Elec       q    Type
REMARK                         _______ _______ _______ _____ _____    ______ ____
ROOT
ATOM      1  C   UNL     1       2.400   6.360  19.667  0.00  0.00    +0.000 A 
ATOM      2  C   UNL     1       1.752   5.537  20.511  0.00  0.00    +0.000 A 
ATOM      3  C   UNL     1       1.949   4.084  20.548  0.00  0.00    +0.000 A 
ATOM      4  O   UNL     1       1.232   3.367  21.234  0.00  0.00    +0.000 OA
ATOM      5  O   UNL     1       3.026   3.601  19.842  0.00  0.00    +0.000 OA
ATOM      6  C   UNL     1       3.623   4.392  18.844  0.00  0.00    +0.000 A 
ATOM      7  C   UNL     1       4.500   3.693  18.023  0.00  0.00    +0.000 A 
ATOM      8  C   UNL     1       5.002   4.344  16.920  0.00  0.00    +0.000 A 
ATOM      9  C   UNL     1       4.666   5.675  16.651  0.00  0.00    +0.000 A 
ATOM     10  C   UNL     1       3.837   6.396  17.526  0.00  0.00    +0.000 A 
ATOM     11  C   UNL     1       3.294   5.748  18.657  0.00  0.00    +0.000 A 
ATOM     12  C   UNL     1       5.335   6.110  15.374  0.00  0.00    +0.000 C 
ATOM     13  C   UNL     1       5.780   4.766  14.756  0.00  0.00    +0.000 C 
ATOM     14  C   UNL     1       5.919   3.760  15.899  0.00  0.00    +0.000 C 
ENDROOT
BRANCH   1  15
ATOM     15  C   UNL     1       2.183   7.849  19.785  0.00  0.00    +0.000 C 
BRANCH  15  16
ATOM     16  O   UNL     1       1.399   8.314  18.680  0.00  0.00    +0.000 OA
BRANCH  16  18
ATOM     17  O   UNL     1       2.078  10.443  18.136  0.00  0.00    +0.000 OA
ATOM     18  C   UNL     1       1.269   9.662  18.615  0.00  0.00    +0.000 C 
BRANCH  18  19
ATOM     19  C   UNL     1       0.025  10.161  19.310  0.00  0.00    +0.000 C 
ATOM     20  C   UNL     1       0.260  11.056  20.529  0.00  0.00    +0.000 C 
ATOM     21  C   UNL     1      -0.277   9.678  20.739  0.00  0.00    +0.000 C 
BRANCH  19  22
ATOM     22  C   UNL     1      -1.196  10.507  18.455  0.00  0.00    +0.000 A 
ATOM     23  C   UNL     1      -1.521   9.778  17.298  0.00  0.00    +0.000 A 
ATOM     24  C   UNL     1      -2.780   9.899  16.700  0.00  0.00    +0.000 A 
ATOM     25  C   UNL     1      -3.723  10.776  17.231  0.00  0.00    +0.000 A 
ATOM     26  C   UNL     1      -3.383  11.584  18.311  0.00  0.00    +0.000 A 
ATOM     27  C   UNL     1      -2.124  11.465  18.899  0.00  0.00    +0.000 A 
ENDBRANCH  19  22
ENDBRANCH  18  19
ENDBRANCH  16  18
ENDBRANCH  15  16
ENDBRANCH   1  15
TORSDOF 5
ENDMDL
MODEL 6
REMARK VINA RESULT:      -8.3      3.646      5.776
REMARK  Name = 
REMARK  5 active torsions:
REMARK  status: ('A' for Active; 'I' for Inactive)
REMARK    1  A    between atoms: C_2  and  O_3
REMARK    2  A    between atoms: C_2  and  C_19
REMARK    3  A    between atoms: O_3  and  C_4
REMARK    4  A    between atoms: C_4  and  C_5
REMARK    5  A    between atoms: C_19  and  C_20
REMARK                            x       y       z     vdW  Elec       q    Type
REMARK                         _______ _______ _______ _____ _____    ______ ____
ROOT
ATOM      1  C   UNL     1       2.365   6.311  19.679  0.00  0.00    +0.000 A 
ATOM      2  C   UNL     1       1.657   5.477  20.463  0.00  0.00    +0.000 A 
ATOM      3  C   UNL     1       1.777   4.016  20.419  0.00  0.00    +0.000 A 
ATOM      4  O   UNL     1       1.009   3.300  21.050  0.00  0.00    +0.000 OA
ATOM      5  O   UNL     1       2.842   3.517  19.706  0.00  0.00    +0.000 OA
ATOM      6  C   UNL     1       3.500   4.330  18.766  0.00  0.00    +0.000 A 
ATOM      7  C   UNL     1       4.357   3.634  17.922  0.00  0.00    +0.000 A 
ATOM      8  C   UNL     1       4.915   4.319  16.868  0.00  0.00    +0.000 A 
ATOM      9  C   UNL     1       4.654   5.679  16.671  0.00  0.00    +0.000 A 
ATOM     10  C   UNL     1       3.846   6.392  17.571  0.00  0.00    +0.000 A 
ATOM     11  C   UNL     1       3.247   5.711  18.653  0.00  0.00    +0.000 A 
ATOM     12  C   UNL     1       5.372   6.150  15.434  0.00  0.00    +0.000 C 
ATOM     13  C   UNL     1       5.760   4.821  14.747  0.00  0.00    +0.000 C 
ATOM     14  C   UNL     1       5.822   3.745  15.832  0.00  0.00    +0.000 C 
ENDROOT
BRANCH   1  15
ATOM     15  C   UNL     1       2.223   7.801  19.880  0.00  0.00    +0.000 C 
BRANCH  15  16
ATOM     16  O   UNL     1       1.059   8.273  19.192  0.00  0.00    +0.000 OA
BRANCH  16  18
ATOM     17  O   UNL     1       2.084   9.457  17.508  0.00  0.00    +0.000 OA
ATOM     18  C   UNL     1       1.273   9.365  18.418  0.00  0.00    +0.000 C 
BRANCH  18  19
ATOM     19  C   UNL     1       0.458  10.559  18.856  0.00  0.00    +0.000 C 
ATOM     20  C   UNL     1       1.185  11.906  18.823  0.00  0.00    +0.000 C 
ATOM     21  C   UNL     1       0.852  11.298  20.146  0.00  0.00    +0.000 C 
BRANCH  19  22
ATOM     22  C   UNL     1      -1.029  10.594  18.498  0.00  0.00    +0.000 A 
ATOM     23  C   UNL     1      -1.913  11.513  19.090  0.00  0.00    +0.000 A 
ATOM     24  C   UNL     1      -3.182  11.742  18.550  0.00  0.00    +0.000 A 
ATOM     25  C   UNL     1      -3.600  11.034  17.426  0.00  0.00    +0.000 A 
ATOM     26  C   UNL     1      -2.782  10.045  16.889  0.00  0.00    +0.000 A 
ATOM     27  C   UNL     1      -1.520   9.814  17.437  0.00  0.00    +0.000 A 
ENDBRANCH  19  22
ENDBRANCH  18  19
ENDBRANCH  16  18
ENDBRANCH  15  16
ENDBRANCH   1  15
TORSDOF 5
ENDMDL
MODEL 7
REMARK VINA RESULT:      -8.2      2.219      7.227
REMARK  Name = 
REMARK  5 active torsions:
REMARK  status: ('A' for Active; 'I' for Inactive)
REMARK    1  A    between atoms: C_2  and  O_3
REMARK    2  A    between atoms: C_2  and  C_19
REMARK    3  A    between atoms: O_3  and  C_4
REMARK    4  A    between atoms: C_4  and  C_5
REMARK    5  A    between atoms: C_19  and  C_20
REMARK                            x       y       z     vdW  Elec       q    Type
REMARK                         _______ _______ _______ _____ _____    ______ ____
ROOT
ATOM      1  C   UNL     1       3.380   7.379  17.911  0.00  0.00    +0.000 A 
ATOM      2  C   UNL     1       2.721   8.551  17.947  0.00  0.00    +0.000 A 
ATOM      3  C   UNL     1       1.616   8.839  18.868  0.00  0.00    +0.000 A 
ATOM      4  O   UNL     1       0.957   9.866  18.763  0.00  0.00    +0.000 OA
ATOM      5  O   UNL     1       1.429   7.938  19.890  0.00  0.00    +0.000 OA
ATOM      6  C   UNL     1       1.984   6.649  19.799  0.00  0.00    +0.000 A 
ATOM      7  C   UNL     1       1.492   5.756  20.745  0.00  0.00    +0.000 A 
ATOM      8  C   UNL     1       1.854   4.435  20.628  0.00  0.00    +0.000 A 
ATOM      9  C   UNL     1       2.714   4.008  19.611  0.00  0.00    +0.000 A 
ATOM     10  C   UNL     1       3.266   4.928  18.705  0.00  0.00    +0.000 A 
ATOM     11  C   UNL     1       2.899   6.290  18.791  0.00  0.00    +0.000 A 
ATOM     12  C   UNL     1       2.907   2.519  19.714  0.00  0.00    +0.000 C 
ATOM     13  C   UNL     1       1.766   2.099  20.667  0.00  0.00    +0.000 C 
ATOM     14  C   UNL     1       1.401   3.321  21.510  0.00  0.00    +0.000 C 
ENDROOT
BRANCH   1  15
ATOM     15  C   UNL     1       4.562   7.232  16.983  0.00  0.00    +0.000 C 
BRANCH  15  16
ATOM     16  O   UNL     1       5.759   7.051  17.748  0.00  0.00    +0.000 OA
BRANCH  16  18
ATOM     17  O   UNL     1       7.702   7.560  16.627  0.00  0.00    +0.000 OA
ATOM     18  C   UNL     1       6.857   6.763  17.006  0.00  0.00    +0.000 C 
BRANCH  18  19
ATOM     19  C   UNL     1       6.903   5.316  16.574  0.00  0.00    +0.000 C 
ATOM     20  C   UNL     1       6.364   4.304  17.587  0.00  0.00    +0.000 C 
ATOM     21  C   UNL     1       7.833   4.344  17.319  0.00  0.00    +0.000 C 
BRANCH  19  22
ATOM     22  C   UNL     1       6.643   4.990  15.102  0.00  0.00    +0.000 A 
ATOM     23  C   UNL     1       7.579   5.294  14.098  0.00  0.00    +0.000 A 
ATOM     24  C   UNL     1       7.474   4.733  12.821  0.00  0.00    +0.000 A 
ATOM     25  C   UNL     1       6.415   3.880  12.519  0.00  0.00    +0.000 A 
ATOM     26  C   UNL     1       5.421   3.651  13.465  0.00  0.00    +0.000 A 
ATOM     27  C   UNL     1       5.525   4.220  14.734  0.00  0.00    +0.000 A 
ENDBRANCH  19  22
ENDBRANCH  18  19
ENDBRANCH  16  18
ENDBRANCH  15  16
ENDBRANCH   1  15
TORSDOF 5
ENDMDL
MODEL 8
REMARK VINA RESULT:      -8.1      1.533      6.886
REMARK  Name = 
REMARK  5 active torsions:
REMARK  status: ('A' for Active; 'I' for Inactive)
REMARK    1  A    between atoms: C_2  and  O_3
REMARK    2  A    between atoms: C_2  and  C_19
REMARK    3  A    between atoms: O_3  and  C_4
REMARK    4  A    between atoms: C_4  and  C_5
REMARK    5  A    between atoms: C_19  and  C_20
REMARK                            x       y       z     vdW  Elec       q    Type
REMARK                         _______ _______ _______ _____ _____    ______ ____
ROOT
ATOM      1  C   UNL     1       3.121   4.054  18.506  0.00  0.00    +0.000 A 
ATOM      2  C   UNL     1       3.281   3.112  19.453  0.00  0.00    +0.000 A 
ATOM      3  C   UNL     1       2.885   3.287  20.855  0.00  0.00    +0.000 A 
ATOM      4  O   UNL     1       3.183   2.457  21.704  0.00  0.00    +0.000 OA
ATOM      5  O   UNL     1       2.099   4.382  21.129  0.00  0.00    +0.000 OA
ATOM      6  C   UNL     1       2.041   5.450  20.217  0.00  0.00    +0.000 A 
ATOM      7  C   UNL     1       1.451   6.599  20.732  0.00  0.00    +0.000 A 
ATOM      8  C   UNL     1       1.498   7.742  19.969  0.00  0.00    +0.000 A 
ATOM      9  C   UNL     1       2.092   7.741  18.703  0.00  0.00    +0.000 A 
ATOM     10  C   UNL     1       2.620   6.559  18.159  0.00  0.00    +0.000 A 
ATOM     11  C   UNL     1       2.600   5.374  18.927  0.00  0.00    +0.000 A 
ATOM     12  C   UNL     1       2.023   9.127  18.119  0.00  0.00    +0.000 C 
ATOM     13  C   UNL     1       1.662   9.990  19.349  0.00  0.00    +0.000 C 
ATOM     14  C   UNL     1       0.964   9.079  20.359  0.00  0.00    +0.000 C 
ENDROOT
BRANCH   1  15
ATOM     15  C   UNL     1       3.482   3.724  17.078  0.00  0.00    +0.000 C 
BRANCH  15  16
ATOM     16  O   UNL     1       4.842   3.278  17.012  0.00  0.00    +0.000 OA
BRANCH  16  18
ATOM     17  O   UNL     1       6.353   4.401  18.333  0.00  0.00    +0.000 OA
ATOM     18  C   UNL     1       5.759   4.241  17.277  0.00  0.00    +0.000 C 
BRANCH  18  19
ATOM     19  C   UNL     1       5.923   5.218  16.136  0.00  0.00    +0.000 C 
ATOM     20  C   UNL     1       6.446   6.604  16.521  0.00  0.00    +0.000 C 
ATOM     21  C   UNL     1       5.024   6.465  16.086  0.00  0.00    +0.000 C 
BRANCH  19  22
ATOM     22  C   UNL     1       6.390   4.681  14.782  0.00  0.00    +0.000 A 
ATOM     23  C   UNL     1       5.635   3.744  14.055  0.00  0.00    +0.000 A 
ATOM     24  C   UNL     1       5.907   3.490  12.707  0.00  0.00    +0.000 A 
ATOM     25  C   UNL     1       6.959   4.145  12.072  0.00  0.00    +0.000 A 
ATOM     26  C   UNL     1       7.784   4.995  12.802  0.00  0.00    +0.000 A 
ATOM     27  C   UNL     1       7.514   5.240  14.148  0.00  0.00    +0.000 A 
ENDBRANCH  19  22
ENDBRANCH  18  19
ENDBRANCH  16  18
ENDBRANCH  15  16
ENDBRANCH   1  15
TORSDOF 5
ENDMDL
MODEL 9
REMARK VINA RESULT:      -8.1      3.464      6.434
REMARK  Name = 
REMARK  5 active torsions:
REMARK  status: ('A' for Active; 'I' for Inactive)
REMARK    1  A    between atoms: C_2  and  O_3
REMARK    2  A    between atoms: C_2  and  C_19
REMARK    3  A    between atoms: O_3  and  C_4
REMARK    4  A    between atoms: C_4  and  C_5
REMARK    5  A    between atoms: C_19  and  C_20
REMARK                            x       y       z     vdW  Elec       q    Type
REMARK                         _______ _______ _______ _____ _____    ______ ____
ROOT
ATOM      1  C   UNL     1       3.987   7.015  17.332  0.00  0.00    +0.000 A 
ATOM      2  C   UNL     1       4.950   6.840  16.409  0.00  0.00    +0.000 A 
ATOM      3  C   UNL     1       5.334   5.533  15.866  0.00  0.00    +0.000 A 
ATOM      4  O   UNL     1       6.311   5.413  15.138  0.00  0.00    +0.000 OA
ATOM      5  O   UNL     1       4.490   4.486  16.156  0.00  0.00    +0.000 OA
ATOM      6  C   UNL     1       3.579   4.593  17.221  0.00  0.00    +0.000 A 
ATOM      7  C   UNL     1       2.996   3.385  17.587  0.00  0.00    +0.000 A 
ATOM      8  C   UNL     1       2.219   3.366  18.722  0.00  0.00    +0.000 A 
ATOM      9  C   UNL     1       1.998   4.529  19.466  0.00  0.00    +0.000 A 
ATOM     10  C   UNL     1       2.530   5.760  19.049  0.00  0.00    +0.000 A 
ATOM     11  C   UNL     1       3.345   5.807  17.896  0.00  0.00    +0.000 A 
ATOM     12  C   UNL     1       1.141   4.201  20.660  0.00  0.00    +0.000 C 
ATOM     13  C   UNL     1       1.217   2.659  20.712  0.00  0.00    +0.000 C 
ATOM     14  C   UNL     1       1.544   2.169  19.302  0.00  0.00    +0.000 C 
ENDROOT
BRANCH   1  15
ATOM     15  C   UNL     1       3.617   8.419  17.746  0.00  0.00    +0.000 C 
BRANCH  15  16
ATOM     16  O   UNL     1       2.192   8.564  17.747  0.00  0.00    +0.000 OA
BRANCH  16  18
ATOM     17  O   UNL     1       2.235  10.855  17.561  0.00  0.00    +0.000 OA
ATOM     18  C   UNL     1       1.759   9.822  18.007  0.00  0.00    +0.000 C 
BRANCH  18  19
ATOM     19  C   UNL     1       0.644   9.856  19.025  0.00  0.00    +0.000 C 
ATOM     20  C   UNL     1       1.026  10.392  20.407  0.00  0.00    +0.000 C 
ATOM     21  C   UNL     1       0.729   8.936  20.255  0.00  0.00    +0.000 C 
BRANCH  19  22
ATOM     22  C   UNL     1      -0.768  10.195  18.545  0.00  0.00    +0.000 A 
ATOM     23  C   UNL     1      -1.555  11.170  19.183  0.00  0.00    +0.000 A 
ATOM     24  C   UNL     1      -2.703  11.684  18.571  0.00  0.00    +0.000 A 
ATOM     25  C   UNL     1      -3.100  11.209  17.324  0.00  0.00    +0.000 A 
ATOM     26  C   UNL     1      -2.396  10.169  16.724  0.00  0.00    +0.000 A 
ATOM     27  C   UNL     1      -1.256   9.654  17.343  0.00  0.00    +0.000 A 
ENDBRANCH  19  22
ENDBRANCH  18  19
ENDBRANCH  16  18
ENDBRANCH  15  16
ENDBRANCH   1  15
TORSDOF 5
ENDMDL
