MODEL 1
REMARK VINA RESULT:     -10.1      0.000      0.000
REMARK  Name = 
REMARK  6 active torsions:
REMARK  status: ('A' for Active; 'I' for Inactive)
REMARK    1  A    between atoms: C_1  and  C_2
REMARK    2  A    between atoms: N_5  and  C_6
REMARK    3  A    between atoms: C_6  and  C_7
REMARK    4  A    between atoms: C_11  and  C_12
REMARK    5  A    between atoms: N_18  and  C_19
REMARK    6  A    between atoms: C_23  and  C_24
REMARK                            x       y       z     vdW  Elec       q    Type
REMARK                         _______ _______ _______ _____ _____    ______ ____
ROOT
ATOM      1  C   UNL     1       4.131   4.475  17.655  0.00  0.00    +0.000 A 
ATOM      2  C   UNL     1       3.753   5.804  17.437  0.00  0.00    +0.000 A 
ATOM      3  C   UNL     1       2.937   6.403  18.371  0.00  0.00    +0.000 A 
ATOM      4  C   UNL     1       2.436   5.748  19.490  0.00  0.00    +0.000 A 
ATOM      5  C   UNL     1       2.731   4.403  19.696  0.00  0.00    +0.000 A 
ATOM      6  C   UNL     1       3.610   3.783  18.775  0.00  0.00    +0.000 A 
ATOM      7  C   UNL     1       1.638   6.721  20.303  0.00  0.00    +0.000 C 
ATOM      8  N   UNL     1       1.731   7.965  19.543  0.00  0.00    +0.000 N 
ATOM      9  C   UNL     1       2.490   7.797  18.383  0.00  0.00    +0.000 C 
ATOM     10  O   UNL     1       2.802   8.568  17.499  0.00  0.00    +0.000 OA
ENDROOT
BRANCH   8  11
ATOM     11  C   UNL     1       1.059   9.154  19.927  0.00  0.00    +0.000 A 
ATOM     12  C   UNL     1       0.886  10.218  19.033  0.00  0.00    +0.000 A 
ATOM     13  C   UNL     1       0.163  11.358  19.387  0.00  0.00    +0.000 A 
ATOM     14  C   UNL     1      -0.392  11.464  20.657  0.00  0.00    +0.000 A 
ATOM     15  C   UNL     1      -0.210  10.436  21.588  0.00  0.00    +0.000 A 
ATOM     16  C   UNL     1       0.517   9.292  21.215  0.00  0.00    +0.000 A 
BRANCH  15  17
ATOM     17  C   UNL     1      -0.804  10.557  22.963  0.00  0.00    +0.000 C 
ATOM     18  F   UNL     1      -0.248   9.703  23.871  0.00  0.00    +0.000 F 
ENDBRANCH  15  17
ENDBRANCH   8  11
BRANCH   5  19
ATOM     19  C   UNL     1       2.151   3.609  20.839  0.00  0.00    +0.000 C 
ATOM     20  F   UNL     1       2.457   4.120  22.065  0.00  0.00    +0.000 F 
ATOM     21  F   UNL     1       0.792   3.552  20.794  0.00  0.00    +0.000 F 
ATOM     22  F   UNL     1       2.583   2.318  20.859  0.00  0.00    +0.000 F 
ENDBRANCH   5  19
BRANCH   1  23
ATOM     23  C   UNL     1       5.162   3.862  16.730  0.00  0.00    +0.000 C 
BRANCH  23  28
ATOM     24  C   UNL     1       8.011   8.295  17.852  0.00  0.00    +0.000 C 
ATOM     25  C   UNL     1       7.588   6.883  17.535  0.00  0.00    +0.000 C 
ATOM     26  N   UNL     1       7.343   6.580  16.316  0.00  0.00    +0.000 NA
ATOM     27  C   UNL     1       7.043   5.209  15.947  0.00  0.00    +0.000 C 
ATOM     28  N   UNL     1       6.549   4.283  16.953  0.00  0.00    +0.000 NA
ATOM     29  C   UNL     1       6.741   4.661  18.347  0.00  0.00    +0.000 C 
ATOM     30  C   UNL     1       7.517   5.918  18.672  0.00  0.00    +0.000 C 
ENDBRANCH  23  28
ENDBRANCH   1  23
TORSDOF 5
ENDMDL
MODEL 2
REMARK VINA RESULT:      -9.8      1.255      1.711
REMARK  Name = 
REMARK  6 active torsions:
REMARK  status: ('A' for Active; 'I' for Inactive)
REMARK    1  A    between atoms: C_1  and  C_2
REMARK    2  A    between atoms: N_5  and  C_6
REMARK    3  A    between atoms: C_6  and  C_7
REMARK    4  A    between atoms: C_11  and  C_12
REMARK    5  A    between atoms: N_18  and  C_19
REMARK    6  A    between atoms: C_23  and  C_24
REMARK                            x       y       z     vdW  Elec       q    Type
REMARK                         _______ _______ _______ _____ _____    ______ ____
ROOT
ATOM      1  C   UNL     1       4.052   4.496  17.761  0.00  0.00    +0.000 A 
ATOM      2  C   UNL     1       3.665   5.830  17.594  0.00  0.00    +0.000 A 
ATOM      3  C   UNL     1       2.857   6.392  18.558  0.00  0.00    +0.000 A 
ATOM      4  C   UNL     1       2.374   5.696  19.659  0.00  0.00    +0.000 A 
ATOM      5  C   UNL     1       2.678   4.346  19.815  0.00  0.00    +0.000 A 
ATOM      6  C   UNL     1       3.548   3.763  18.862  0.00  0.00    +0.000 A 
ATOM      7  C   UNL     1       1.581   6.635  20.515  0.00  0.00    +0.000 C 
ATOM      8  N   UNL     1       1.658   7.905  19.797  0.00  0.00    +0.000 N 
ATOM      9  C   UNL     1       2.404   7.782  18.624  0.00  0.00    +0.000 C 
ATOM     10  O   UNL     1       2.701   8.585  17.764  0.00  0.00    +0.000 OA
ENDROOT
BRANCH   8  11
ATOM     11  C   UNL     1       0.984   9.077  20.231  0.00  0.00    +0.000 A 
ATOM     12  C   UNL     1       0.854   9.384  21.592  0.00  0.00    +0.000 A 
ATOM     13  C   UNL     1       0.256  10.572  22.016  0.00  0.00    +0.000 A 
ATOM     14  C   UNL     1      -0.242  11.473  21.083  0.00  0.00    +0.000 A 
ATOM     15  C   UNL     1      -0.161  11.182  19.717  0.00  0.00    +0.000 A 
ATOM     16  C   UNL     1       0.449   9.985  19.304  0.00  0.00    +0.000 A 
BRANCH  15  17
ATOM     17  C   UNL     1      -0.708  12.156  18.710  0.00  0.00    +0.000 C 
ATOM     18  F   UNL     1       0.236  13.002  18.206  0.00  0.00    +0.000 F 
ENDBRANCH  15  17
ENDBRANCH   8  11
BRANCH   5  19
ATOM     19  C   UNL     1       2.116   3.510  20.937  0.00  0.00    +0.000 C 
ATOM     20  F   UNL     1       2.437   3.977  22.176  0.00  0.00    +0.000 F 
ATOM     21  F   UNL     1       0.757   3.449  20.908  0.00  0.00    +0.000 F 
ATOM     22  F   UNL     1       2.552   2.221  20.905  0.00  0.00    +0.000 F 
ENDBRANCH   5  19
BRANCH   1  23
ATOM     23  C   UNL     1       5.076   3.922  16.803  0.00  0.00    +0.000 C 
BRANCH  23  28
ATOM     24  C   UNL     1       7.995   8.337  17.812  0.00  0.00    +0.000 C 
ATOM     25  C   UNL     1       7.548   6.922  17.541  0.00  0.00    +0.000 C 
ATOM     26  N   UNL     1       7.322   6.576  16.330  0.00  0.00    +0.000 NA
ATOM     27  C   UNL     1       7.000   5.198  16.009  0.00  0.00    +0.000 C 
ATOM     28  N   UNL     1       6.466   4.322  17.040  0.00  0.00    +0.000 NA
ATOM     29  C   UNL     1       6.637   4.751  18.421  0.00  0.00    +0.000 C 
ATOM     30  C   UNL     1       7.433   6.004  18.714  0.00  0.00    +0.000 C 
ENDBRANCH  23  28
ENDBRANCH   1  23
TORSDOF 5
ENDMDL
MODEL 3
REMARK VINA RESULT:      -8.7      1.065      1.312
REMARK  Name = 
REMARK  6 active torsions:
REMARK  status: ('A' for Active; 'I' for Inactive)
REMARK    1  A    between atoms: C_1  and  C_2
REMARK    2  A    between atoms: N_5  and  C_6
REMARK    3  A    between atoms: C_6  and  C_7
REMARK    4  A    between atoms: C_11  and  C_12
REMARK    5  A    between atoms: N_18  and  C_19
REMARK    6  A    between atoms: C_23  and  C_24
REMARK                            x       y       z     vdW  Elec       q    Type
REMARK                         _______ _______ _______ _____ _____    ______ ____
ROOT
ATOM      1  C   UNL     1       4.379   4.649  17.828  0.00  0.00    +0.000 A 
ATOM      2  C   UNL     1       3.945   5.904  17.388  0.00  0.00    +0.000 A 
ATOM      3  C   UNL     1       3.033   6.580  18.168  0.00  0.00    +0.000 A 
ATOM      4  C   UNL     1       2.492   6.067  19.340  0.00  0.00    +0.000 A 
ATOM      5  C   UNL     1       2.846   4.789  19.766  0.00  0.00    +0.000 A 
ATOM      6  C   UNL     1       3.819   4.098  19.006  0.00  0.00    +0.000 A 
ATOM      7  C   UNL     1       1.587   7.095  19.946  0.00  0.00    +0.000 C 
ATOM      8  N   UNL     1       1.664   8.216  19.012  0.00  0.00    +0.000 N 
ATOM      9  C   UNL     1       2.511   7.929  17.941  0.00  0.00    +0.000 C 
ATOM     10  O   UNL     1       2.842   8.579  16.971  0.00  0.00    +0.000 OA
ENDROOT
BRANCH   8  11
ATOM     11  C   UNL     1       0.902   9.403  19.170  0.00  0.00    +0.000 A 
ATOM     12  C   UNL     1       0.044   9.861  18.161  0.00  0.00    +0.000 A 
ATOM     13  C   UNL     1      -0.759  10.988  18.343  0.00  0.00    +0.000 A 
ATOM     14  C   UNL     1      -0.709  11.692  19.540  0.00  0.00    +0.000 A 
ATOM     15  C   UNL     1       0.162  11.285  20.556  0.00  0.00    +0.000 A 
ATOM     16  C   UNL     1       0.961  10.145  20.360  0.00  0.00    +0.000 A 
BRANCH  15  17
ATOM     17  C   UNL     1       0.220  12.055  21.846  0.00  0.00    +0.000 C 
ATOM     18  F   UNL     1       0.874  13.247  21.737  0.00  0.00    +0.000 F 
ENDBRANCH  15  17
ENDBRANCH   8  11
BRANCH   5  19
ATOM     19  C   UNL     1       2.231   4.137  20.979  0.00  0.00    +0.000 C 
ATOM     20  F   UNL     1       0.871   4.077  20.933  0.00  0.00    +0.000 F 
ATOM     21  F   UNL     1       2.650   2.853  21.146  0.00  0.00    +0.000 F 
ATOM     22  F   UNL     1       2.532   4.786  22.137  0.00  0.00    +0.000 F 
ENDBRANCH   5  19
BRANCH   1  23
ATOM     23  C   UNL     1       5.506   3.975  17.072  0.00  0.00    +0.000 C 
BRANCH  23  28
ATOM     24  C   UNL     1       8.002   8.678  17.897  0.00  0.00    +0.000 C 
ATOM     25  C   UNL     1       7.687   7.216  17.697  0.00  0.00    +0.000 C 
ATOM     26  N   UNL     1       7.527   6.786  16.503  0.00  0.00    +0.000 NA
ATOM     27  C   UNL     1       7.335   5.369  16.253  0.00  0.00    +0.000 C 
ATOM     28  N   UNL     1       6.849   4.508  17.319  0.00  0.00    +0.000 NA
ATOM     29  C   UNL     1       6.941   5.025  18.678  0.00  0.00    +0.000 C 
ATOM     30  C   UNL     1       7.617   6.358  18.917  0.00  0.00    +0.000 C 
ENDBRANCH  23  28
ENDBRANCH   1  23
TORSDOF 5
ENDMDL
MODEL 4
REMARK VINA RESULT:      -8.6      1.508      2.296
REMARK  Name = 
REMARK  6 active torsions:
REMARK  status: ('A' for Active; 'I' for Inactive)
REMARK    1  A    between atoms: C_1  and  C_2
REMARK    2  A    between atoms: N_5  and  C_6
REMARK    3  A    between atoms: C_6  and  C_7
REMARK    4  A    between atoms: C_11  and  C_12
REMARK    5  A    between atoms: N_18  and  C_19
REMARK    6  A    between atoms: C_23  and  C_24
REMARK                            x       y       z     vdW  Elec       q    Type
REMARK                         _______ _______ _______ _____ _____    ______ ____
ROOT
ATOM      1  C   UNL     1       4.189   6.247  17.002  0.00  0.00    +0.000 A 
ATOM      2  C   UNL     1       3.513   7.451  17.235  0.00  0.00    +0.000 A 
ATOM      3  C   UNL     1       2.757   7.553  18.381  0.00  0.00    +0.000 A 
ATOM      4  C   UNL     1       2.594   6.518  19.292  0.00  0.00    +0.000 A 
ATOM      5  C   UNL     1       3.192   5.283  19.052  0.00  0.00    +0.000 A 
ATOM      6  C   UNL     1       4.015   5.172  17.906  0.00  0.00    +0.000 A 
ATOM      7  C   UNL     1       1.758   7.005  20.435  0.00  0.00    +0.000 C 
ATOM      8  N   UNL     1       1.464   8.391  20.081  0.00  0.00    +0.000 N 
ATOM      9  C   UNL     1       2.040   8.737  18.857  0.00  0.00    +0.000 C 
ATOM     10  O   UNL     1       2.035   9.771  18.221  0.00  0.00    +0.000 OA
ENDROOT
BRANCH   8  11
ATOM     11  C   UNL     1       0.633   9.228  20.870  0.00  0.00    +0.000 A 
ATOM     12  C   UNL     1       0.517   9.048  22.255  0.00  0.00    +0.000 A 
ATOM     13  C   UNL     1      -0.243   9.915  23.042  0.00  0.00    +0.000 A 
ATOM     14  C   UNL     1      -0.920  10.977  22.453  0.00  0.00    +0.000 A 
ATOM     15  C   UNL     1      -0.855  11.166  21.069  0.00  0.00    +0.000 A 
ATOM     16  C   UNL     1      -0.082  10.288  20.290  0.00  0.00    +0.000 A 
BRANCH  15  17
ATOM     17  C   UNL     1      -1.596  12.311  20.435  0.00  0.00    +0.000 C 
ATOM     18  F   UNL     1      -2.732  11.928  19.784  0.00  0.00    +0.000 F 
ENDBRANCH  15  17
ENDBRANCH   8  11
BRANCH   5  19
ATOM     19  C   UNL     1       2.985   4.091  19.953  0.00  0.00    +0.000 C 
ATOM     20  F   UNL     1       1.965   3.280  19.556  0.00  0.00    +0.000 F 
ATOM     21  F   UNL     1       4.086   3.292  20.017  0.00  0.00    +0.000 F 
ATOM     22  F   UNL     1       2.700   4.442  21.237  0.00  0.00    +0.000 F 
ENDBRANCH   5  19
BRANCH   1  23
ATOM     23  C   UNL     1       5.159   6.183  15.840  0.00  0.00    +0.000 C 
BRANCH  23  28
ATOM     24  C   UNL     1       8.302   5.426  20.150  0.00  0.00    +0.000 C 
ATOM     25  C   UNL     1       7.786   5.670  18.754  0.00  0.00    +0.000 C 
ATOM     26  N   UNL     1       7.418   6.855  18.440  0.00  0.00    +0.000 NA
ATOM     27  C   UNL     1       7.021   7.163  17.079  0.00  0.00    +0.000 C 
ATOM     28  N   UNL     1       6.578   6.095  16.197  0.00  0.00    +0.000 NA
ATOM     29  C   UNL     1       6.913   4.733  16.592  0.00  0.00    +0.000 C 
ATOM     30  C   UNL     1       7.773   4.509  17.816  0.00  0.00    +0.000 C 
ENDBRANCH  23  28
ENDBRANCH   1  23
TORSDOF 5
ENDMDL
MODEL 5
REMARK VINA RESULT:      -8.6      2.319      7.682
REMARK  Name = 
REMARK  6 active torsions:
REMARK  status: ('A' for Active; 'I' for Inactive)
REMARK    1  A    between atoms: C_1  and  C_2
REMARK    2  A    between atoms: N_5  and  C_6
REMARK    3  A    between atoms: C_6  and  C_7
REMARK    4  A    between atoms: C_11  and  C_12
REMARK    5  A    between atoms: N_18  and  C_19
REMARK    6  A    between atoms: C_23  and  C_24
REMARK                            x       y       z     vdW  Elec       q    Type
REMARK                         _______ _______ _______ _____ _____    ______ ____
ROOT
ATOM      1  C   UNL     1       1.707   6.431  20.479  0.00  0.00    +0.000 A 
ATOM      2  C   UNL     1       2.496   6.935  19.439  0.00  0.00    +0.000 A 
ATOM      3  C   UNL     1       3.218   6.036  18.686  0.00  0.00    +0.000 A 
ATOM      4  C   UNL     1       3.241   4.669  18.929  0.00  0.00    +0.000 A 
ATOM      5  C   UNL     1       2.527   4.144  20.003  0.00  0.00    +0.000 A 
ATOM      6  C   UNL     1       1.737   5.043  20.759  0.00  0.00    +0.000 A 
ATOM      7  C   UNL     1       4.083   4.005  17.883  0.00  0.00    +0.000 C 
ATOM      8  N   UNL     1       4.532   5.115  17.045  0.00  0.00    +0.000 N 
ATOM      9  C   UNL     1       4.037   6.335  17.510  0.00  0.00    +0.000 C 
ATOM     10  O   UNL     1       4.172   7.471  17.105  0.00  0.00    +0.000 OA
ENDROOT
BRANCH   8  11
ATOM     11  C   UNL     1       5.417   4.943  15.950  0.00  0.00    +0.000 A 
ATOM     12  C   UNL     1       6.728   5.438  15.984  0.00  0.00    +0.000 A 
ATOM     13  C   UNL     1       7.621   5.207  14.937  0.00  0.00    +0.000 A 
ATOM     14  C   UNL     1       7.214   4.486  13.820  0.00  0.00    +0.000 A 
ATOM     15  C   UNL     1       5.902   4.008  13.736  0.00  0.00    +0.000 A 
ATOM     16  C   UNL     1       5.015   4.244  14.800  0.00  0.00    +0.000 A 
BRANCH  15  17
ATOM     17  C   UNL     1       5.463   3.236  12.523  0.00  0.00    +0.000 C 
ATOM     18  F   UNL     1       4.270   3.660  12.013  0.00  0.00    +0.000 F 
ENDBRANCH  15  17
ENDBRANCH   8  11
BRANCH   5  19
ATOM     19  C   UNL     1       2.578   2.684  20.377  0.00  0.00    +0.000 C 
ATOM     20  F   UNL     1       1.890   2.390  21.516  0.00  0.00    +0.000 F 
ATOM     21  F   UNL     1       2.049   1.883  19.412  0.00  0.00    +0.000 F 
ATOM     22  F   UNL     1       3.846   2.235  20.586  0.00  0.00    +0.000 F 
ENDBRANCH   5  19
BRANCH   1  23
ATOM     23  C   UNL     1       0.777   7.384  21.201  0.00  0.00    +0.000 C 
BRANCH  23  28
ATOM     24  C   UNL     1      -1.698  12.142  20.687  0.00  0.00    +0.000 C 
ATOM     25  C   UNL     1      -0.669  11.046  20.804  0.00  0.00    +0.000 C 
ATOM     26  N   UNL     1      -0.383  10.365  19.758  0.00  0.00    +0.000 NA
ATOM     27  C   UNL     1       0.680   9.378  19.794  0.00  0.00    +0.000 C 
ATOM     28  N   UNL     1       1.094   8.809  21.067  0.00  0.00    +0.000 NA
ATOM     29  C   UNL     1       0.696   9.527  22.270  0.00  0.00    +0.000 C 
ATOM     30  C   UNL     1      -0.024  10.852  22.136  0.00  0.00    +0.000 C 
ENDBRANCH  23  28
ENDBRANCH   1  23
TORSDOF 5
ENDMDL
MODEL 6
REMARK VINA RESULT:      -8.6      2.506      7.775
REMARK  Name = 
REMARK  6 active torsions:
REMARK  status: ('A' for Active; 'I' for Inactive)
REMARK    1  A    between atoms: C_1  and  C_2
REMARK    2  A    between atoms: N_5  and  C_6
REMARK    3  A    between atoms: C_6  and  C_7
REMARK    4  A    between atoms: C_11  and  C_12
REMARK    5  A    between atoms: N_18  and  C_19
REMARK    6  A    between atoms: C_23  and  C_24
REMARK                            x       y       z     vdW  Elec       q    Type
REMARK                         _______ _______ _______ _____ _____    ______ ____
ROOT
ATOM      1  C   UNL     1       1.824   6.245  20.306  0.00  0.00    +0.000 A 
ATOM      2  C   UNL     1       2.757   6.726  19.380  0.00  0.00    +0.000 A 
ATOM      3  C   UNL     1       3.284   5.832  18.474  0.00  0.00    +0.000 A 
ATOM      4  C   UNL     1       2.974   4.479  18.457  0.00  0.00    +0.000 A 
ATOM      5  C   UNL     1       2.107   3.954  19.413  0.00  0.00    +0.000 A 
ATOM      6  C   UNL     1       1.515   4.863  20.322  0.00  0.00    +0.000 A 
ATOM      7  C   UNL     1       3.685   3.833  17.308  0.00  0.00    +0.000 C 
ATOM      8  N   UNL     1       4.420   4.936  16.693  0.00  0.00    +0.000 N 
ATOM      9  C   UNL     1       4.204   6.134  17.377  0.00  0.00    +0.000 C 
ATOM     10  O   UNL     1       4.620   7.260  17.192  0.00  0.00    +0.000 OA
ENDROOT
BRANCH   8  11
ATOM     11  C   UNL     1       5.291   4.759  15.587  0.00  0.00    +0.000 A 
ATOM     12  C   UNL     1       6.638   5.141  15.648  0.00  0.00    +0.000 A 
ATOM     13  C   UNL     1       7.512   4.902  14.587  0.00  0.00    +0.000 A 
ATOM     14  C   UNL     1       7.050   4.286  13.429  0.00  0.00    +0.000 A 
ATOM     15  C   UNL     1       5.703   3.924  13.320  0.00  0.00    +0.000 A 
ATOM     16  C   UNL     1       4.836   4.167  14.398  0.00  0.00    +0.000 A 
BRANCH  15  17
ATOM     17  C   UNL     1       5.205   3.267  12.063  0.00  0.00    +0.000 C 
ATOM     18  F   UNL     1       5.781   2.055  11.819  0.00  0.00    +0.000 F 
ENDBRANCH  15  17
ENDBRANCH   8  11
BRANCH   5  19
ATOM     19  C   UNL     1       1.797   2.481  19.507  0.00  0.00    +0.000 C 
ATOM     20  F   UNL     1       2.882   1.682  19.306  0.00  0.00    +0.000 F 
ATOM     21  F   UNL     1       1.305   2.131  20.727  0.00  0.00    +0.000 F 
ATOM     22  F   UNL     1       0.868   2.077  18.596  0.00  0.00    +0.000 F 
ENDBRANCH   5  19
BRANCH   1  23
ATOM     23  C   UNL     1       1.111   7.246  21.191  0.00  0.00    +0.000 C 
BRANCH  23  28
ATOM     24  C   UNL     1      -1.494  11.860  20.215  0.00  0.00    +0.000 C 
ATOM     25  C   UNL     1      -0.435  10.809  20.435  0.00  0.00    +0.000 C 
ATOM     26  N   UNL     1      -0.136  10.034  19.462  0.00  0.00    +0.000 NA
ATOM     27  C   UNL     1       0.953   9.083  19.590  0.00  0.00    +0.000 C 
ATOM     28  N   UNL     1       1.389   8.658  20.911  0.00  0.00    +0.000 NA
ATOM     29  C   UNL     1       0.976   9.484  22.038  0.00  0.00    +0.000 C 
ATOM     30  C   UNL     1       0.221  10.768  21.776  0.00  0.00    +0.000 C 
ENDBRANCH  23  28
ENDBRANCH   1  23
TORSDOF 5
ENDMDL
MODEL 7
REMARK VINA RESULT:      -8.5      2.998      8.143
REMARK  Name = 
REMARK  6 active torsions:
REMARK  status: ('A' for Active; 'I' for Inactive)
REMARK    1  A    between atoms: C_1  and  C_2
REMARK    2  A    between atoms: N_5  and  C_6
REMARK    3  A    between atoms: C_6  and  C_7
REMARK    4  A    between atoms: C_11  and  C_12
REMARK    5  A    between atoms: N_18  and  C_19
REMARK    6  A    between atoms: C_23  and  C_24
REMARK                            x       y       z     vdW  Elec       q    Type
REMARK                         _______ _______ _______ _____ _____    ______ ____
ROOT
ATOM      1  C   UNL     1       0.604  11.514  19.262  0.00  0.00    +0.000 A 
ATOM      2  C   UNL     1       1.359  10.592  18.530  0.00  0.00    +0.000 A 
ATOM      3  C   UNL     1       1.571   9.349  19.083  0.00  0.00    +0.000 A 
ATOM      4  C   UNL     1       1.114   8.978  20.342  0.00  0.00    +0.000 A 
ATOM      5  C   UNL     1       0.425   9.897  21.128  0.00  0.00    +0.000 A 
ATOM      6  C   UNL     1       0.152  11.164  20.557  0.00  0.00    +0.000 A 
ATOM      7  C   UNL     1       1.480   7.546  20.586  0.00  0.00    +0.000 C 
ATOM      8  N   UNL     1       2.182   7.155  19.367  0.00  0.00    +0.000 N 
ATOM      9  C   UNL     1       2.257   8.215  18.461  0.00  0.00    +0.000 C 
ATOM     10  O   UNL     1       2.746   8.303  17.354  0.00  0.00    +0.000 OA
ENDROOT
BRANCH   8  11
ATOM     11  C   UNL     1       2.764   5.873  19.190  0.00  0.00    +0.000 A 
ATOM     12  C   UNL     1       4.148   5.679  19.286  0.00  0.00    +0.000 A 
ATOM     13  C   UNL     1       4.715   4.407  19.184  0.00  0.00    +0.000 A 
ATOM     14  C   UNL     1       3.904   3.299  18.967  0.00  0.00    +0.000 A 
ATOM     15  C   UNL     1       2.521   3.460  18.831  0.00  0.00    +0.000 A 
ATOM     16  C   UNL     1       1.964   4.746  18.941  0.00  0.00    +0.000 A 
BRANCH  15  17
ATOM     17  C   UNL     1       1.648   2.261  18.587  0.00  0.00    +0.000 C 
ATOM     18  F   UNL     1       0.320   2.509  18.779  0.00  0.00    +0.000 F 
ENDBRANCH  15  17
ENDBRANCH   8  11
BRANCH   5  19
ATOM     19  C   UNL     1      -0.022   9.590  22.536  0.00  0.00    +0.000 C 
ATOM     20  F   UNL     1       1.003   9.264  23.372  0.00  0.00    +0.000 F 
ATOM     21  F   UNL     1      -0.653  10.644  23.121  0.00  0.00    +0.000 F 
ATOM     22  F   UNL     1      -0.895   8.547  22.597  0.00  0.00    +0.000 F 
ENDBRANCH   5  19
BRANCH   1  23
ATOM     23  C   UNL     1       0.219  12.818  18.594  0.00  0.00    +0.000 C 
BRANCH  23  28
ATOM     24  C   UNL     1       1.110  18.072  17.806  0.00  0.00    +0.000 C 
ATOM     25  C   UNL     1       0.925  16.707  18.419  0.00  0.00    +0.000 C 
ATOM     26  N   UNL     1       1.907  15.887  18.386  0.00  0.00    +0.000 NA
ATOM     27  C   UNL     1       1.816  14.605  19.060  0.00  0.00    +0.000 C 
ATOM     28  N   UNL     1       0.510  14.036  19.354  0.00  0.00    +0.000 NA
ATOM     29  C   UNL     1      -0.629  14.943  19.306  0.00  0.00    +0.000 C 
ATOM     30  C   UNL     1      -0.392  16.416  19.058  0.00  0.00    +0.000 C 
ENDBRANCH  23  28
ENDBRANCH   1  23
TORSDOF 5
ENDMDL
MODEL 8
REMARK VINA RESULT:      -8.5      2.599      7.601
REMARK  Name = 
REMARK  6 active torsions:
REMARK  status: ('A' for Active; 'I' for Inactive)
REMARK    1  A    between atoms: C_1  and  C_2
REMARK    2  A    between atoms: N_5  and  C_6
REMARK    3  A    between atoms: C_6  and  C_7
REMARK    4  A    between atoms: C_11  and  C_12
REMARK    5  A    between atoms: N_18  and  C_19
REMARK    6  A    between atoms: C_23  and  C_24
REMARK                            x       y       z     vdW  Elec       q    Type
REMARK                         _______ _______ _______ _____ _____    ______ ____
ROOT
ATOM      1  C   UNL     1       0.360  11.546  19.330  0.00  0.00    +0.000 A 
ATOM      2  C   UNL     1       1.131  10.662  18.566  0.00  0.00    +0.000 A 
ATOM      3  C   UNL     1       1.411   9.424  19.102  0.00  0.00    +0.000 A 
ATOM      4  C   UNL     1       1.009   9.025  20.370  0.00  0.00    +0.000 A 
ATOM      5  C   UNL     1       0.306   9.908  21.185  0.00  0.00    +0.000 A 
ATOM      6  C   UNL     1      -0.036  11.167  20.635  0.00  0.00    +0.000 A 
ATOM      7  C   UNL     1       1.442   7.608  20.591  0.00  0.00    +0.000 C 
ATOM      8  N   UNL     1       2.122   7.256  19.347  0.00  0.00    +0.000 N 
ATOM      9  C   UNL     1       2.125   8.326  18.449  0.00  0.00    +0.000 C 
ATOM     10  O   UNL     1       2.576   8.442  17.328  0.00  0.00    +0.000 OA
ENDROOT
BRANCH   8  11
ATOM     11  C   UNL     1       2.752   6.001  19.141  0.00  0.00    +0.000 A 
ATOM     12  C   UNL     1       4.134   5.842  19.302  0.00  0.00    +0.000 A 
ATOM     13  C   UNL     1       4.744   4.593  19.171  0.00  0.00    +0.000 A 
ATOM     14  C   UNL     1       3.980   3.475  18.858  0.00  0.00    +0.000 A 
ATOM     15  C   UNL     1       2.602   3.604  18.655  0.00  0.00    +0.000 A 
ATOM     16  C   UNL     1       2.001   4.866  18.795  0.00  0.00    +0.000 A 
BRANCH  15  17
ATOM     17  C   UNL     1       1.780   2.393  18.307  0.00  0.00    +0.000 C 
ATOM     18  F   UNL     1       0.515   2.432  18.818  0.00  0.00    +0.000 F 
ENDBRANCH  15  17
ENDBRANCH   8  11
BRANCH   5  19
ATOM     19  C   UNL     1      -0.084   9.572  22.603  0.00  0.00    +0.000 C 
ATOM     20  F   UNL     1      -0.734  10.584  23.242  0.00  0.00    +0.000 F 
ATOM     21  F   UNL     1      -0.918   8.498  22.670  0.00  0.00    +0.000 F 
ATOM     22  F   UNL     1       0.987   9.267  23.387  0.00  0.00    +0.000 F 
ENDBRANCH   5  19
BRANCH   1  23
ATOM     23  C   UNL     1      -0.100  12.837  18.685  0.00  0.00    +0.000 C 
BRANCH  23  28
ATOM     24  C   UNL     1       4.154  14.316  21.642  0.00  0.00    +0.000 C 
ATOM     25  C   UNL     1       2.977  14.297  20.700  0.00  0.00    +0.000 C 
ATOM     26  N   UNL     1       1.800  14.388  21.194  0.00  0.00    +0.000 NA
ATOM     27  C   UNL     1       0.644  14.488  20.323  0.00  0.00    +0.000 C 
ATOM     28  N   UNL     1       0.731  14.015  18.951  0.00  0.00    +0.000 NA
ATOM     29  C   UNL     1       2.068  13.820  18.405  0.00  0.00    +0.000 C 
ATOM     30  C   UNL     1       3.270  14.207  19.238  0.00  0.00    +0.000 C 
ENDBRANCH  23  28
ENDBRANCH   1  23
TORSDOF 5
ENDMDL
MODEL 9
REMARK VINA RESULT:      -8.4      2.681      7.836
REMARK  Name = 
REMARK  6 active torsions:
REMARK  status: ('A' for Active; 'I' for Inactive)
REMARK    1  A    between atoms: C_1  and  C_2
REMARK    2  A    between atoms: N_5  and  C_6
REMARK    3  A    between atoms: C_6  and  C_7
REMARK    4  A    between atoms: C_11  and  C_12
REMARK    5  A    between atoms: N_18  and  C_19
REMARK    6  A    between atoms: C_23  and  C_24
REMARK                            x       y       z     vdW  Elec       q    Type
REMARK                         _______ _______ _______ _____ _____    ______ ____
ROOT
ATOM      1  C   UNL     1       2.228   6.424  20.223  0.00  0.00    +0.000 A 
ATOM      2  C   UNL     1       3.176   6.829  19.277  0.00  0.00    +0.000 A 
ATOM      3  C   UNL     1       3.558   5.918  18.317  0.00  0.00    +0.000 A 
ATOM      4  C   UNL     1       3.088   4.612  18.264  0.00  0.00    +0.000 A 
ATOM      5  C   UNL     1       2.201   4.154  19.236  0.00  0.00    +0.000 A 
ATOM      6  C   UNL     1       1.757   5.089  20.201  0.00  0.00    +0.000 A 
ATOM      7  C   UNL     1       3.674   3.935  17.064  0.00  0.00    +0.000 C 
ATOM      8  N   UNL     1       4.512   4.968  16.460  0.00  0.00    +0.000 N 
ATOM      9  C   UNL     1       4.467   6.154  17.194  0.00  0.00    +0.000 C 
ATOM     10  O   UNL     1       5.007   7.229  17.033  0.00  0.00    +0.000 OA
ENDROOT
BRANCH   8  11
ATOM     11  C   UNL     1       5.314   4.735  15.312  0.00  0.00    +0.000 A 
ATOM     12  C   UNL     1       6.657   5.132  15.265  0.00  0.00    +0.000 A 
ATOM     13  C   UNL     1       7.466   4.840  14.166  0.00  0.00    +0.000 A 
ATOM     14  C   UNL     1       6.940   4.154  13.078  0.00  0.00    +0.000 A 
ATOM     15  C   UNL     1       5.594   3.773  13.075  0.00  0.00    +0.000 A 
ATOM     16  C   UNL     1       4.793   4.070  14.191  0.00  0.00    +0.000 A 
BRANCH  15  17
ATOM     17  C   UNL     1       5.025   3.039  11.892  0.00  0.00    +0.000 C 
ATOM     18  F   UNL     1       4.116   3.771  11.186  0.00  0.00    +0.000 F 
ENDBRANCH  15  17
ENDBRANCH   8  11
BRANCH   5  19
ATOM     19  C   UNL     1       1.720   2.726  19.289  0.00  0.00    +0.000 C 
ATOM     20  F   UNL     1       0.969   2.447  20.391  0.00  0.00    +0.000 F 
ATOM     21  F   UNL     1       0.942   2.401  18.221  0.00  0.00    +0.000 F 
ATOM     22  F   UNL     1       2.741   1.825  19.300  0.00  0.00    +0.000 F 
ENDBRANCH   5  19
BRANCH   1  23
ATOM     23  C   UNL     1       1.672   7.466  21.172  0.00  0.00    +0.000 C 
BRANCH  23  28
ATOM     24  C   UNL     1      -0.269  12.474  21.592  0.00  0.00    +0.000 C 
ATOM     25  C   UNL     1      -0.045  11.030  21.218  0.00  0.00    +0.000 C 
ATOM     26  N   UNL     1      -0.457  10.122  22.021  0.00  0.00    +0.000 NA
ATOM     27  C   UNL     1      -0.366   8.721  21.653  0.00  0.00    +0.000 C 
ATOM     28  N   UNL     1       0.591   8.302  20.642  0.00  0.00    +0.000 NA
ATOM     29  C   UNL     1       1.138   9.342  19.781  0.00  0.00    +0.000 C 
ATOM     30  C   UNL     1       0.618  10.757  19.909  0.00  0.00    +0.000 C 
ENDBRANCH  23  28
ENDBRANCH   1  23
TORSDOF 5
ENDMDL
