MODEL 1
REMARK VINA RESULT:      -8.8      0.000      0.000
REMARK  Name = 
REMARK  4 active torsions:
REMARK  status: ('A' for Active; 'I' for Inactive)
REMARK    1  A    between atoms: C_4  and  C_5
REMARK    2  A    between atoms: C_7  and  N_8
REMARK    3  A    between atoms: N_8  and  C_9
REMARK    4  A    between atoms: C_11  and  C_12
REMARK                            x       y       z     vdW  Elec       q    Type
REMARK                         _______ _______ _______ _____ _____    ______ ____
ROOT
ATOM      1  C   UNL     1       2.944   6.013  19.217  0.00  0.00    +0.000 A 
ATOM      2  N   UNL     1       3.907   6.007  18.270  0.00  0.00    +0.000 NA
ATOM      3  C   UNL     1       4.214   4.818  17.676  0.00  0.00    +0.000 A 
ATOM      4  N   UNL     1       3.641   3.633  17.969  0.00  0.00    +0.000 NA
ATOM      5  C   UNL     1       2.711   3.684  18.918  0.00  0.00    +0.000 A 
ATOM      6  C   UNL     1       2.324   4.834  19.568  0.00  0.00    +0.000 A 
ATOM      7  C   UNL     1       1.244   4.549  20.557  0.00  0.00    +0.000 C 
ATOM      8  C   UNL     1       1.351   3.022  20.700  0.00  0.00    +0.000 C 
ATOM      9  C   UNL     1       1.914   2.496  19.376  0.00  0.00    +0.000 C 
ENDROOT
BRANCH   3  10
ATOM     10  C   UNL     1       5.240   4.805  16.622  0.00  0.00    +0.000 A 
ATOM     11  C   UNL     1       5.168   3.962  15.507  0.00  0.00    +0.000 A 
ATOM     12  C   UNL     1       6.158   3.987  14.524  0.00  0.00    +0.000 A 
ATOM     13  C   UNL     1       7.214   4.866  14.678  0.00  0.00    +0.000 A 
ATOM     14  N   UNL     1       7.343   5.695  15.732  0.00  0.00    +0.000 NA
ATOM     15  C   UNL     1       6.360   5.642  16.669  0.00  0.00    +0.000 A 
ENDBRANCH   3  10
BRANCH   1  16
ATOM     16  N   UNL     1       2.484   7.225  19.797  0.00  0.00    +0.000 N 
ATOM     17  H   UNL     1       3.279   7.800  20.055  0.00  0.00    +0.000 HD
BRANCH  16  20
ATOM     18  C   UNL     1       1.372   9.520  19.135  0.00  0.00    +0.000 C 
ATOM     19  C   UNL     1       1.804   8.777  17.899  0.00  0.00    +0.000 C 
ATOM     20  C   UNL     1       1.420   8.007  19.138  0.00  0.00    +0.000 C 
BRANCH  18  24
ATOM     21  C   UNL     1      -2.324  11.800  19.051  0.00  0.00    +0.000 A 
ATOM     22  C   UNL     1      -1.518  11.814  20.185  0.00  0.00    +0.000 A 
ATOM     23  C   UNL     1      -0.346  11.051  20.219  0.00  0.00    +0.000 A 
ATOM     24  C   UNL     1       0.053  10.265  19.128  0.00  0.00    +0.000 A 
ATOM     25  C   UNL     1      -0.794  10.250  18.005  0.00  0.00    +0.000 A 
ATOM     26  C   UNL     1      -1.969  11.008  17.964  0.00  0.00    +0.000 A 
ENDBRANCH  18  24
ENDBRANCH  16  20
ENDBRANCH   1  16
TORSDOF 4
ENDMDL
MODEL 2
REMARK VINA RESULT:      -8.7      0.450      1.060
REMARK  Name = 
REMARK  4 active torsions:
REMARK  status: ('A' for Active; 'I' for Inactive)
REMARK    1  A    between atoms: C_4  and  C_5
REMARK    2  A    between atoms: C_7  and  N_8
REMARK    3  A    between atoms: N_8  and  C_9
REMARK    4  A    between atoms: C_11  and  C_12
REMARK                            x       y       z     vdW  Elec       q    Type
REMARK                         _______ _______ _______ _____ _____    ______ ____
ROOT
ATOM      1  C   UNL     1       3.101   6.106  19.196  0.00  0.00    +0.000 A 
ATOM      2  N   UNL     1       3.994   6.091  18.182  0.00  0.00    +0.000 NA
ATOM      3  C   UNL     1       4.381   4.881  17.687  0.00  0.00    +0.000 A 
ATOM      4  N   UNL     1       3.956   3.685  18.140  0.00  0.00    +0.000 NA
ATOM      5  C   UNL     1       3.092   3.746  19.149  0.00  0.00    +0.000 A 
ATOM      6  C   UNL     1       2.633   4.917  19.709  0.00  0.00    +0.000 A 
ATOM      7  C   UNL     1       1.657   4.636  20.803  0.00  0.00    +0.000 C 
ATOM      8  C   UNL     1       1.931   3.151  21.088  0.00  0.00    +0.000 C 
ATOM      9  C   UNL     1       2.455   2.543  19.783  0.00  0.00    +0.000 C 
ENDROOT
BRANCH   3  10
ATOM     10  C   UNL     1       5.330   4.854  16.563  0.00  0.00    +0.000 A 
ATOM     11  C   UNL     1       5.098   4.120  15.394  0.00  0.00    +0.000 A 
ATOM     12  C   UNL     1       6.018   4.129  14.346  0.00  0.00    +0.000 A 
ATOM     13  C   UNL     1       7.169   4.882  14.490  0.00  0.00    +0.000 A 
ATOM     14  N   UNL     1       7.453   5.602  15.592  0.00  0.00    +0.000 NA
ATOM     15  C   UNL     1       6.533   5.568  16.592  0.00  0.00    +0.000 A 
ENDBRANCH   3  10
BRANCH   1  16
ATOM     16  N   UNL     1       2.559   7.323  19.687  0.00  0.00    +0.000 N 
ATOM     17  H   UNL     1       3.304   7.897  20.067  0.00  0.00    +0.000 HD
BRANCH  16  20
ATOM     18  C   UNL     1       1.366   9.584  19.051  0.00  0.00    +0.000 C 
ATOM     19  C   UNL     1       2.218   9.106  17.905  0.00  0.00    +0.000 C 
ATOM     20  C   UNL     1       1.619   8.104  18.860  0.00  0.00    +0.000 C 
BRANCH  18  24
ATOM     21  C   UNL     1      -2.598  11.200  18.314  0.00  0.00    +0.000 A 
ATOM     22  C   UNL     1      -2.042  10.280  17.431  0.00  0.00    +0.000 A 
ATOM     23  C   UNL     1      -0.751   9.789  17.654  0.00  0.00    +0.000 A 
ATOM     24  C   UNL     1       0.010  10.194  18.761  0.00  0.00    +0.000 A 
ATOM     25  C   UNL     1      -0.569  11.143  19.624  0.00  0.00    +0.000 A 
ATOM     26  C   UNL     1      -1.858  11.642  19.406  0.00  0.00    +0.000 A 
ENDBRANCH  18  24
ENDBRANCH  16  20
ENDBRANCH   1  16
TORSDOF 4
ENDMDL
MODEL 3
REMARK VINA RESULT:      -8.5      1.858      7.397
REMARK  Name = 
REMARK  4 active torsions:
REMARK  status: ('A' for Active; 'I' for Inactive)
REMARK    1  A    between atoms: C_4  and  C_5
REMARK    2  A    between atoms: C_7  and  N_8
REMARK    3  A    between atoms: N_8  and  C_9
REMARK    4  A    between atoms: C_11  and  C_12
REMARK                            x       y       z     vdW  Elec       q    Type
REMARK                         _______ _______ _______ _____ _____    ______ ____
ROOT
ATOM      1  C   UNL     1       4.677   4.795  18.773  0.00  0.00    +0.000 A 
ATOM      2  N   UNL     1       4.145   6.037  18.779  0.00  0.00    +0.000 NA
ATOM      3  C   UNL     1       2.804   6.159  18.992  0.00  0.00    +0.000 A 
ATOM      4  N   UNL     1       1.952   5.132  19.184  0.00  0.00    +0.000 NA
ATOM      5  C   UNL     1       2.515   3.927  19.153  0.00  0.00    +0.000 A 
ATOM      6  C   UNL     1       3.859   3.703  18.956  0.00  0.00    +0.000 A 
ATOM      7  C   UNL     1       4.166   2.243  19.002  0.00  0.00    +0.000 C 
ATOM      8  C   UNL     1       2.768   1.627  18.828  0.00  0.00    +0.000 C 
ATOM      9  C   UNL     1       1.768   2.645  19.383  0.00  0.00    +0.000 C 
ENDROOT
BRANCH   3  10
ATOM     10  C   UNL     1       2.219   7.508  19.030  0.00  0.00    +0.000 A 
ATOM     11  C   UNL     1       2.210   8.360  17.919  0.00  0.00    +0.000 A 
ATOM     12  C   UNL     1       1.637   9.630  17.993  0.00  0.00    +0.000 A 
ATOM     13  C   UNL     1       1.077  10.028  19.193  0.00  0.00    +0.000 A 
ATOM     14  N   UNL     1       1.062   9.257  20.298  0.00  0.00    +0.000 NA
ATOM     15  C   UNL     1       1.630   8.028  20.188  0.00  0.00    +0.000 A 
ENDBRANCH   3  10
BRANCH   1  16
ATOM     16  N   UNL     1       6.079   4.590  18.677  0.00  0.00    +0.000 N 
ATOM     17  H   UNL     1       6.334   3.751  19.188  0.00  0.00    +0.000 HD
BRANCH  16  20
ATOM     18  C   UNL     1       6.140   5.330  16.149  0.00  0.00    +0.000 C 
ATOM     19  C   UNL     1       7.223   6.034  16.922  0.00  0.00    +0.000 C 
ATOM     20  C   UNL     1       6.752   4.671  17.366  0.00  0.00    +0.000 C 
BRANCH  18  24
ATOM     21  C   UNL     1       6.881   4.018  12.075  0.00  0.00    +0.000 A 
ATOM     22  C   UNL     1       5.813   3.494  12.796  0.00  0.00    +0.000 A 
ATOM     23  C   UNL     1       5.599   3.894  14.119  0.00  0.00    +0.000 A 
ATOM     24  C   UNL     1       6.435   4.827  14.751  0.00  0.00    +0.000 A 
ATOM     25  C   UNL     1       7.522   5.321  14.006  0.00  0.00    +0.000 A 
ATOM     26  C   UNL     1       7.745   4.923  12.683  0.00  0.00    +0.000 A 
ENDBRANCH  18  24
ENDBRANCH  16  20
ENDBRANCH   1  16
TORSDOF 4
ENDMDL
MODEL 4
REMARK VINA RESULT:      -8.5      0.658      1.170
REMARK  Name = 
REMARK  4 active torsions:
REMARK  status: ('A' for Active; 'I' for Inactive)
REMARK    1  A    between atoms: C_4  and  C_5
REMARK    2  A    between atoms: C_7  and  N_8
REMARK    3  A    between atoms: N_8  and  C_9
REMARK    4  A    between atoms: C_11  and  C_12
REMARK                            x       y       z     vdW  Elec       q    Type
REMARK                         _______ _______ _______ _____ _____    ______ ____
ROOT
ATOM      1  C   UNL     1       3.094   5.717  18.908  0.00  0.00    +0.000 A 
ATOM      2  N   UNL     1       4.059   5.758  17.963  0.00  0.00    +0.000 NA
ATOM      3  C   UNL     1       4.233   4.659  17.175  0.00  0.00    +0.000 A 
ATOM      4  N   UNL     1       3.526   3.515  17.273  0.00  0.00    +0.000 NA
ATOM      5  C   UNL     1       2.599   3.511  18.227  0.00  0.00    +0.000 A 
ATOM      6  C   UNL     1       2.341   4.574  19.063  0.00  0.00    +0.000 A 
ATOM      7  C   UNL     1       1.227   4.252  20.002  0.00  0.00    +0.000 C 
ATOM      8  C   UNL     1       1.157   2.721  19.887  0.00  0.00    +0.000 C 
ATOM      9  C   UNL     1       1.669   2.362  18.488  0.00  0.00    +0.000 C 
ENDROOT
BRANCH   3  10
ATOM     10  C   UNL     1       5.260   4.705  16.124  0.00  0.00    +0.000 A 
ATOM     11  C   UNL     1       5.171   3.953  14.946  0.00  0.00    +0.000 A 
ATOM     12  C   UNL     1       6.163   4.032  13.968  0.00  0.00    +0.000 A 
ATOM     13  C   UNL     1       7.238   4.874  14.190  0.00  0.00    +0.000 A 
ATOM     14  N   UNL     1       7.383   5.615  15.305  0.00  0.00    +0.000 NA
ATOM     15  C   UNL     1       6.398   5.511  16.235  0.00  0.00    +0.000 A 
ENDBRANCH   3  10
BRANCH   1  16
ATOM     16  N   UNL     1       2.770   6.859  19.687  0.00  0.00    +0.000 N 
ATOM     17  H   UNL     1       3.622   7.353  19.932  0.00  0.00    +0.000 HD
BRANCH  16  20
ATOM     18  C   UNL     1       1.853   9.280  19.197  0.00  0.00    +0.000 C 
ATOM     19  C   UNL     1       1.888   8.471  17.927  0.00  0.00    +0.000 C 
ATOM     20  C   UNL     1       1.698   7.775  19.252  0.00  0.00    +0.000 C 
BRANCH  18  24
ATOM     21  C   UNL     1      -1.615  11.779  19.968  0.00  0.00    +0.000 A 
ATOM     22  C   UNL     1      -1.338  11.345  18.675  0.00  0.00    +0.000 A 
ATOM     23  C   UNL     1      -0.201  10.568  18.427  0.00  0.00    +0.000 A 
ATOM     24  C   UNL     1       0.680  10.201  19.456  0.00  0.00    +0.000 A 
ATOM     25  C   UNL     1       0.388  10.675  20.748  0.00  0.00    +0.000 A 
ATOM     26  C   UNL     1      -0.746  11.455  21.004  0.00  0.00    +0.000 A 
ENDBRANCH  18  24
ENDBRANCH  16  20
ENDBRANCH   1  16
TORSDOF 4
ENDMDL
MODEL 5
REMARK VINA RESULT:      -8.3      1.622      7.730
REMARK  Name = 
REMARK  4 active torsions:
REMARK  status: ('A' for Active; 'I' for Inactive)
REMARK    1  A    between atoms: C_4  and  C_5
REMARK    2  A    between atoms: C_7  and  N_8
REMARK    3  A    between atoms: N_8  and  C_9
REMARK    4  A    between atoms: C_11  and  C_12
REMARK                            x       y       z     vdW  Elec       q    Type
REMARK                         _______ _______ _______ _____ _____    ______ ____
ROOT
ATOM      1  C   UNL     1       3.903   5.601  18.971  0.00  0.00    +0.000 A 
ATOM      2  N   UNL     1       3.290   6.806  18.997  0.00  0.00    +0.000 NA
ATOM      3  C   UNL     1       2.230   6.967  19.840  0.00  0.00    +0.000 A 
ATOM      4  N   UNL     1       1.726   6.011  20.645  0.00  0.00    +0.000 NA
ATOM      5  C   UNL     1       2.348   4.837  20.574  0.00  0.00    +0.000 A 
ATOM      6  C   UNL     1       3.431   4.580  19.765  0.00  0.00    +0.000 A 
ATOM      7  C   UNL     1       3.904   3.175  19.941  0.00  0.00    +0.000 C 
ATOM      8  C   UNL     1       2.696   2.528  20.639  0.00  0.00    +0.000 C 
ATOM      9  C   UNL     1       1.985   3.644  21.409  0.00  0.00    +0.000 C 
ENDROOT
BRANCH   3  10
ATOM     10  C   UNL     1       1.576   8.283  19.898  0.00  0.00    +0.000 A 
ATOM     11  C   UNL     1       0.993   8.787  21.067  0.00  0.00    +0.000 A 
ATOM     12  C   UNL     1       0.390  10.045  21.084  0.00  0.00    +0.000 A 
ATOM     13  C   UNL     1       0.382  10.784  19.915  0.00  0.00    +0.000 A 
ATOM     14  N   UNL     1       0.919  10.351  18.759  0.00  0.00    +0.000 NA
ATOM     15  C   UNL     1       1.496   9.121  18.781  0.00  0.00    +0.000 A 
ENDBRANCH   3  10
BRANCH   1  16
ATOM     16  N   UNL     1       5.083   5.387  18.212  0.00  0.00    +0.000 N 
ATOM     17  H   UNL     1       5.688   4.737  18.703  0.00  0.00    +0.000 HD
BRANCH  16  20
ATOM     18  C   UNL     1       5.861   4.057  16.074  0.00  0.00    +0.000 C 
ATOM     19  C   UNL     1       4.422   3.744  16.385  0.00  0.00    +0.000 C 
ATOM     20  C   UNL     1       4.994   5.085  16.770  0.00  0.00    +0.000 C 
BRANCH  18  24
ATOM     21  C   UNL     1       7.195   4.431  11.957  0.00  0.00    +0.000 A 
ATOM     22  C   UNL     1       7.812   5.168  12.963  0.00  0.00    +0.000 A 
ATOM     23  C   UNL     1       7.356   5.070  14.282  0.00  0.00    +0.000 A 
ATOM     24  C   UNL     1       6.285   4.234  14.631  0.00  0.00    +0.000 A 
ATOM     25  C   UNL     1       5.664   3.520  13.589  0.00  0.00    +0.000 A 
ATOM     26  C   UNL     1       6.112   3.615  12.267  0.00  0.00    +0.000 A 
ENDBRANCH  18  24
ENDBRANCH  16  20
ENDBRANCH   1  16
TORSDOF 4
ENDMDL
MODEL 6
REMARK VINA RESULT:      -8.2      1.924      7.483
REMARK  Name = 
REMARK  4 active torsions:
REMARK  status: ('A' for Active; 'I' for Inactive)
REMARK    1  A    between atoms: C_4  and  C_5
REMARK    2  A    between atoms: C_7  and  N_8
REMARK    3  A    between atoms: N_8  and  C_9
REMARK    4  A    between atoms: C_11  and  C_12
REMARK                            x       y       z     vdW  Elec       q    Type
REMARK                         _______ _______ _______ _____ _____    ______ ____
ROOT
ATOM      1  C   UNL     1       4.547   4.832  18.541  0.00  0.00    +0.000 A 
ATOM      2  N   UNL     1       4.062   6.086  18.675  0.00  0.00    +0.000 NA
ATOM      3  C   UNL     1       2.714   6.240  18.814  0.00  0.00    +0.000 A 
ATOM      4  N   UNL     1       1.814   5.237  18.812  0.00  0.00    +0.000 NA
ATOM      5  C   UNL     1       2.334   4.022  18.661  0.00  0.00    +0.000 A 
ATOM      6  C   UNL     1       3.679   3.764  18.524  0.00  0.00    +0.000 A 
ATOM      7  C   UNL     1       3.928   2.298  18.398  0.00  0.00    +0.000 C 
ATOM      8  C   UNL     1       2.525   1.774  18.053  0.00  0.00    +0.000 C 
ATOM      9  C   UNL     1       1.526   2.757  18.670  0.00  0.00    +0.000 C 
ENDROOT
BRANCH   3  10
ATOM     10  C   UNL     1       2.179   7.599  18.990  0.00  0.00    +0.000 A 
ATOM     11  C   UNL     1       1.570   8.024  20.177  0.00  0.00    +0.000 A 
ATOM     12  C   UNL     1       1.083   9.324  20.309  0.00  0.00    +0.000 A 
ATOM     13  C   UNL     1       1.217  10.186  19.235  0.00  0.00    +0.000 A 
ATOM     14  N   UNL     1       1.785   9.834  18.066  0.00  0.00    +0.000 NA
ATOM     15  C   UNL     1       2.246   8.559  17.975  0.00  0.00    +0.000 A 
ENDBRANCH   3  10
BRANCH   1  16
ATOM     16  N   UNL     1       5.944   4.578  18.510  0.00  0.00    +0.000 N 
ATOM     17  H   UNL     1       6.144   3.727  19.027  0.00  0.00    +0.000 HD
BRANCH  16  20
ATOM     18  C   UNL     1       6.159   5.340  15.997  0.00  0.00    +0.000 C 
ATOM     19  C   UNL     1       7.234   5.987  16.830  0.00  0.00    +0.000 C 
ATOM     20  C   UNL     1       6.683   4.642  17.235  0.00  0.00    +0.000 C 
BRANCH  18  24
ATOM     21  C   UNL     1       7.019   4.023  11.948  0.00  0.00    +0.000 A 
ATOM     22  C   UNL     1       5.991   3.430  12.674  0.00  0.00    +0.000 A 
ATOM     23  C   UNL     1       5.740   3.834  13.990  0.00  0.00    +0.000 A 
ATOM     24  C   UNL     1       6.499   4.839  14.609  0.00  0.00    +0.000 A 
ATOM     25  C   UNL     1       7.548   5.403  13.860  0.00  0.00    +0.000 A 
ATOM     26  C   UNL     1       7.807   5.002  12.545  0.00  0.00    +0.000 A 
ENDBRANCH  18  24
ENDBRANCH  16  20
ENDBRANCH   1  16
TORSDOF 4
ENDMDL
MODEL 7
REMARK VINA RESULT:      -8.2      1.576      7.777
REMARK  Name = 
REMARK  4 active torsions:
REMARK  status: ('A' for Active; 'I' for Inactive)
REMARK    1  A    between atoms: C_4  and  C_5
REMARK    2  A    between atoms: C_7  and  N_8
REMARK    3  A    between atoms: N_8  and  C_9
REMARK    4  A    between atoms: C_11  and  C_12
REMARK                            x       y       z     vdW  Elec       q    Type
REMARK                         _______ _______ _______ _____ _____    ______ ____
ROOT
ATOM      1  C   UNL     1       4.017   5.746  18.821  0.00  0.00    +0.000 A 
ATOM      2  N   UNL     1       3.371   6.932  18.819  0.00  0.00    +0.000 NA
ATOM      3  C   UNL     1       2.299   7.079  19.650  0.00  0.00    +0.000 A 
ATOM      4  N   UNL     1       1.816   6.124  20.470  0.00  0.00    +0.000 NA
ATOM      5  C   UNL     1       2.471   4.968  20.427  0.00  0.00    +0.000 A 
ATOM      6  C   UNL     1       3.569   4.726  19.631  0.00  0.00    +0.000 A 
ATOM      7  C   UNL     1       4.080   3.340  19.838  0.00  0.00    +0.000 C 
ATOM      8  C   UNL     1       2.886   2.671  20.538  0.00  0.00    +0.000 C 
ATOM      9  C   UNL     1       2.136   3.780  21.282  0.00  0.00    +0.000 C 
ENDROOT
BRANCH   3  10
ATOM     10  C   UNL     1       1.607   8.377  19.678  0.00  0.00    +0.000 A 
ATOM     11  C   UNL     1       1.516   9.210  18.557  0.00  0.00    +0.000 A 
ATOM     12  C   UNL     1       0.842  10.429  18.622  0.00  0.00    +0.000 A 
ATOM     13  C   UNL     1       0.263  10.796  19.823  0.00  0.00    +0.000 A 
ATOM     14  N   UNL     1       0.323  10.042  20.937  0.00  0.00    +0.000 NA
ATOM     15  C   UNL     1       0.989   8.861  20.835  0.00  0.00    +0.000 A 
ENDBRANCH   3  10
BRANCH   1  16
ATOM     16  N   UNL     1       5.210   5.551  18.076  0.00  0.00    +0.000 N 
ATOM     17  H   UNL     1       5.835   4.938  18.591  0.00  0.00    +0.000 HD
BRANCH  16  20
ATOM     18  C   UNL     1       5.971   4.107  16.007  0.00  0.00    +0.000 C 
ATOM     19  C   UNL     1       4.509   3.880  16.290  0.00  0.00    +0.000 C 
ATOM     20  C   UNL     1       5.142   5.203  16.643  0.00  0.00    +0.000 C 
BRANCH  18  24
ATOM     21  C   UNL     1       7.195   4.528  11.861  0.00  0.00    +0.000 A 
ATOM     22  C   UNL     1       6.195   3.625  12.208  0.00  0.00    +0.000 A 
ATOM     23  C   UNL     1       5.828   3.468  13.549  0.00  0.00    +0.000 A 
ATOM     24  C   UNL     1       6.440   4.209  14.571  0.00  0.00    +0.000 A 
ATOM     25  C   UNL     1       7.465   5.096  14.194  0.00  0.00    +0.000 A 
ATOM     26  C   UNL     1       7.839   5.257  12.855  0.00  0.00    +0.000 A 
ENDBRANCH  18  24
ENDBRANCH  16  20
ENDBRANCH   1  16
TORSDOF 4
ENDMDL
MODEL 8
REMARK VINA RESULT:      -8.0      2.019      2.648
REMARK  Name = 
REMARK  4 active torsions:
REMARK  status: ('A' for Active; 'I' for Inactive)
REMARK    1  A    between atoms: C_4  and  C_5
REMARK    2  A    between atoms: C_7  and  N_8
REMARK    3  A    between atoms: N_8  and  C_9
REMARK    4  A    between atoms: C_11  and  C_12
REMARK                            x       y       z     vdW  Elec       q    Type
REMARK                         _______ _______ _______ _____ _____    ______ ____
ROOT
ATOM      1  C   UNL     1       2.389   5.299  20.152  0.00  0.00    +0.000 A 
ATOM      2  N   UNL     1       3.565   5.858  19.789  0.00  0.00    +0.000 NA
ATOM      3  C   UNL     1       4.266   5.273  18.776  0.00  0.00    +0.000 A 
ATOM      4  N   UNL     1       3.889   4.163  18.110  0.00  0.00    +0.000 NA
ATOM      5  C   UNL     1       2.735   3.637  18.512  0.00  0.00    +0.000 A 
ATOM      6  C   UNL     1       1.951   4.159  19.515  0.00  0.00    +0.000 A 
ATOM      7  C   UNL     1       0.714   3.345  19.701  0.00  0.00    +0.000 C 
ATOM      8  C   UNL     1       1.086   2.046  18.968  0.00  0.00    +0.000 C 
ATOM      9  C   UNL     1       2.102   2.428  17.887  0.00  0.00    +0.000 C 
ENDROOT
BRANCH   3  10
ATOM     10  C   UNL     1       5.532   5.891  18.353  0.00  0.00    +0.000 A 
ATOM     11  C   UNL     1       6.736   5.697  19.041  0.00  0.00    +0.000 A 
ATOM     12  C   UNL     1       7.918   6.292  18.602  0.00  0.00    +0.000 A 
ATOM     13  C   UNL     1       7.872   7.081  17.467  0.00  0.00    +0.000 A 
ATOM     14  N   UNL     1       6.745   7.312  16.767  0.00  0.00    +0.000 NA
ATOM     15  C   UNL     1       5.613   6.716  17.226  0.00  0.00    +0.000 A 
ENDBRANCH   3  10
BRANCH   1  16
ATOM     16  N   UNL     1       1.543   5.912  21.114  0.00  0.00    +0.000 N 
ATOM     17  H   UNL     1       1.990   5.883  22.025  0.00  0.00    +0.000 HD
BRANCH  16  20
ATOM     18  C   UNL     1       1.405   8.521  21.457  0.00  0.00    +0.000 C 
ATOM     19  C   UNL     1       1.746   8.203  20.025  0.00  0.00    +0.000 C 
ATOM     20  C   UNL     1       0.931   7.225  20.834  0.00  0.00    +0.000 C 
BRANCH  18  24
ATOM     21  C   UNL     1      -1.493  11.659  22.245  0.00  0.00    +0.000 A 
ATOM     22  C   UNL     1      -0.817  11.619  21.029  0.00  0.00    +0.000 A 
ATOM     23  C   UNL     1       0.140  10.626  20.794  0.00  0.00    +0.000 A 
ATOM     24  C   UNL     1       0.441   9.650  21.755  0.00  0.00    +0.000 A 
ATOM     25  C   UNL     1      -0.239   9.730  22.984  0.00  0.00    +0.000 A 
ATOM     26  C   UNL     1      -1.196  10.721  23.229  0.00  0.00    +0.000 A 
ENDBRANCH  18  24
ENDBRANCH  16  20
ENDBRANCH   1  16
TORSDOF 4
ENDMDL
MODEL 9
REMARK VINA RESULT:      -8.0      0.698      1.048
REMARK  Name = 
REMARK  4 active torsions:
REMARK  status: ('A' for Active; 'I' for Inactive)
REMARK    1  A    between atoms: C_4  and  C_5
REMARK    2  A    between atoms: C_7  and  N_8
REMARK    3  A    between atoms: N_8  and  C_9
REMARK    4  A    between atoms: C_11  and  C_12
REMARK                            x       y       z     vdW  Elec       q    Type
REMARK                         _______ _______ _______ _____ _____    ______ ____
ROOT
ATOM      1  C   UNL     1       2.842   6.194  19.121  0.00  0.00    +0.000 A 
ATOM      2  N   UNL     1       3.812   6.134  18.181  0.00  0.00    +0.000 NA
ATOM      3  C   UNL     1       4.140   4.911  17.676  0.00  0.00    +0.000 A 
ATOM      4  N   UNL     1       3.585   3.742  18.051  0.00  0.00    +0.000 NA
ATOM      5  C   UNL     1       2.648   3.845  18.990  0.00  0.00    +0.000 A 
ATOM      6  C   UNL     1       2.240   5.033  19.552  0.00  0.00    +0.000 A 
ATOM      7  C   UNL     1       1.158   4.803  20.554  0.00  0.00    +0.000 C 
ATOM      8  C   UNL     1       1.288   3.292  20.808  0.00  0.00    +0.000 C 
ATOM      9  C   UNL     1       1.867   2.681  19.529  0.00  0.00    +0.000 C 
ENDROOT
BRANCH   3  10
ATOM     10  C   UNL     1       5.173   4.838  16.631  0.00  0.00    +0.000 A 
ATOM     11  C   UNL     1       6.432   5.434  16.769  0.00  0.00    +0.000 A 
ATOM     12  C   UNL     1       7.389   5.333  15.759  0.00  0.00    +0.000 A 
ATOM     13  C   UNL     1       7.061   4.630  14.614  0.00  0.00    +0.000 A 
ATOM     14  N   UNL     1       5.865   4.043  14.419  0.00  0.00    +0.000 NA
ATOM     15  C   UNL     1       4.959   4.163  15.425  0.00  0.00    +0.000 A 
ENDBRANCH   3  10
BRANCH   1  16
ATOM     16  N   UNL     1       2.360   7.437  19.610  0.00  0.00    +0.000 N 
ATOM     17  H   UNL     1       3.139   7.994  19.945  0.00  0.00    +0.000 HD
BRANCH  16  20
ATOM     18  C   UNL     1       1.109   9.692  19.071  0.00  0.00    +0.000 C 
ATOM     19  C   UNL     1       1.992   9.299  17.916  0.00  0.00    +0.000 C 
ATOM     20  C   UNL     1       1.410   8.232  18.808  0.00  0.00    +0.000 C 
BRANCH  18  24
ATOM     21  C   UNL     1      -2.739  11.501  18.182  0.00  0.00    +0.000 A 
ATOM     22  C   UNL     1      -2.069  11.822  19.359  0.00  0.00    +0.000 A 
ATOM     23  C   UNL     1      -0.846  11.211  19.656  0.00  0.00    +0.000 A 
ATOM     24  C   UNL     1      -0.261  10.275  18.790  0.00  0.00    +0.000 A 
ATOM     25  C   UNL     1      -0.972   9.951  17.621  0.00  0.00    +0.000 A 
ATOM     26  C   UNL     1      -2.197  10.556  17.317  0.00  0.00    +0.000 A 
ENDBRANCH  18  24
ENDBRANCH  16  20
ENDBRANCH   1  16
TORSDOF 4
ENDMDL
