MODEL 1
REMARK VINA RESULT:      -8.0      0.000      0.000
REMARK  Name = 
REMARK  5 active torsions:
REMARK  status: ('A' for Active; 'I' for Inactive)
REMARK    1  A    between atoms: C_1  and  N_2
REMARK    2  A    between atoms: C_6  and  C_7
REMARK    3  A    between atoms: C_7  and  C_8
REMARK    4  A    between atoms: C_7  and  C_10
REMARK    5  A    between atoms: C_14  and  N_15
REMARK                            x       y       z     vdW  Elec       q    Type
REMARK                         _______ _______ _______ _____ _____    ______ ____
ROOT
ATOM      1  C   UNL     1       4.136   6.608  17.160  0.00  0.00    +0.000 A 
ATOM      2  C   UNL     1       3.465   7.809  17.448  0.00  0.00    +0.000 A 
ATOM      3  C   UNL     1       2.420   7.843  18.361  0.00  0.00    +0.000 A 
ATOM      4  C   UNL     1       1.975   6.666  18.941  0.00  0.00    +0.000 A 
ATOM      5  C   UNL     1       2.420   5.439  18.427  0.00  0.00    +0.000 A 
ATOM      6  C   UNL     1       3.579   5.415  17.633  0.00  0.00    +0.000 A 
ENDROOT
BRANCH   5   7
ATOM      7  N   UNL     1       1.468   4.331  18.317  0.00  0.00    +0.000 N 
ATOM      8  C   UNL     1       1.055   3.904  19.680  0.00  0.00    +0.000 C 
ATOM      9  C   UNL     1       2.117   2.911  20.009  0.00  0.00    +0.000 A 
ATOM     10  C   UNL     1       2.849   2.768  21.167  0.00  0.00    +0.000 A 
ATOM     11  F   UNL     1       2.517   3.451  22.269  0.00  0.00    +0.000 F 
ATOM     12  C   UNL     1       4.030   2.027  21.134  0.00  0.00    +0.000 A 
ATOM     13  C   UNL     1       4.457   1.420  19.937  0.00  0.00    +0.000 A 
ATOM     14  C   UNL     1       3.721   1.573  18.758  0.00  0.00    +0.000 A 
ATOM     15  C   UNL     1       2.567   2.337  18.821  0.00  0.00    +0.000 A 
ATOM     16  C   UNL     1       1.992   3.147  17.712  0.00  0.00    +0.000 C 
ATOM     17  O   UNL     1       2.162   2.908  16.528  0.00  0.00    +0.000 OA
ENDBRANCH   5   7
BRANCH   1  18
ATOM     18  C   UNL     1       5.423   6.685  16.357  0.00  0.00    +0.000 C 
BRANCH  18  24
ATOM     19  C   UNL     1       7.018   4.808  18.524  0.00  0.00    +0.000 C 
ATOM     20  N   UNL     1       7.255   6.171  18.138  0.00  0.00    +0.000 N 
ATOM     21  C   UNL     1       8.233   6.939  18.699  0.00  0.00    +0.000 A 
ATOM     22  N   UNL     1       8.231   8.131  18.157  0.00  0.00    +0.000 NA
ATOM     23  N   UNL     1       7.227   8.156  17.230  0.00  0.00    +0.000 NA
ATOM     24  C   UNL     1       6.626   6.976  17.212  0.00  0.00    +0.000 A 
ENDBRANCH  18  24
BRANCH  18  25
ATOM     25  C   UNL     1       5.631   5.618  15.286  0.00  0.00    +0.000 C 
ATOM     26  F   UNL     1       6.947   5.370  15.062  0.00  0.00    +0.000 F 
ENDBRANCH  18  25
ENDBRANCH   1  18
TORSDOF 4
ENDMDL
MODEL 2
REMARK VINA RESULT:      -7.9      1.656      2.193
REMARK  Name = 
REMARK  5 active torsions:
REMARK  status: ('A' for Active; 'I' for Inactive)
REMARK    1  A    between atoms: C_1  and  N_2
REMARK    2  A    between atoms: C_6  and  C_7
REMARK    3  A    between atoms: C_7  and  C_8
REMARK    4  A    between atoms: C_7  and  C_10
REMARK    5  A    between atoms: C_14  and  N_15
REMARK                            x       y       z     vdW  Elec       q    Type
REMARK                         _______ _______ _______ _____ _____    ______ ____
ROOT
ATOM      1  C   UNL     1       4.928   6.090  17.766  0.00  0.00    +0.000 A 
ATOM      2  C   UNL     1       4.477   7.350  17.336  0.00  0.00    +0.000 A 
ATOM      3  C   UNL     1       3.204   7.802  17.656  0.00  0.00    +0.000 A 
ATOM      4  C   UNL     1       2.332   6.971  18.342  0.00  0.00    +0.000 A 
ATOM      5  C   UNL     1       2.655   5.615  18.494  0.00  0.00    +0.000 A 
ATOM      6  C   UNL     1       3.990   5.211  18.319  0.00  0.00    +0.000 A 
ENDROOT
BRANCH   5   7
ATOM      7  N   UNL     1       1.593   4.615  18.357  0.00  0.00    +0.000 N 
ATOM      8  C   UNL     1       1.161   4.174  19.711  0.00  0.00    +0.000 C 
ATOM      9  C   UNL     1       2.122   3.065  19.977  0.00  0.00    +0.000 A 
ATOM     10  C   UNL     1       2.854   2.799  21.112  0.00  0.00    +0.000 A 
ATOM     11  F   UNL     1       2.612   3.464  22.247  0.00  0.00    +0.000 F 
ATOM     12  C   UNL     1       3.953   1.944  21.024  0.00  0.00    +0.000 A 
ATOM     13  C   UNL     1       4.296   1.349  19.795  0.00  0.00    +0.000 A 
ATOM     14  C   UNL     1       3.560   1.626  18.638  0.00  0.00    +0.000 A 
ATOM     15  C   UNL     1       2.492   2.501  18.757  0.00  0.00    +0.000 A 
ATOM     16  C   UNL     1       1.984   3.411  17.694  0.00  0.00    +0.000 C 
ATOM     17  O   UNL     1       2.109   3.207  16.498  0.00  0.00    +0.000 OA
ENDBRANCH   5   7
BRANCH   1  18
ATOM     18  C   UNL     1       6.403   5.766  17.606  0.00  0.00    +0.000 C 
BRANCH  18  24
ATOM     19  C   UNL     1       5.449   3.274  15.699  0.00  0.00    +0.000 C 
ATOM     20  N   UNL     1       6.372   4.340  15.425  0.00  0.00    +0.000 N 
ATOM     21  C   UNL     1       7.061   4.439  14.252  0.00  0.00    +0.000 A 
ATOM     22  N   UNL     1       7.822   5.504  14.269  0.00  0.00    +0.000 NA
ATOM     23  N   UNL     1       7.642   6.114  15.479  0.00  0.00    +0.000 NA
ATOM     24  C   UNL     1       6.771   5.415  16.190  0.00  0.00    +0.000 A 
ENDBRANCH  18  24
BRANCH  18  25
ATOM     25  C   UNL     1       7.391   6.680  18.326  0.00  0.00    +0.000 C 
ATOM     26  F   UNL     1       8.320   5.978  19.022  0.00  0.00    +0.000 F 
ENDBRANCH  18  25
ENDBRANCH   1  18
TORSDOF 4
ENDMDL
MODEL 3
REMARK VINA RESULT:      -7.8      2.334      3.222
REMARK  Name = 
REMARK  5 active torsions:
REMARK  status: ('A' for Active; 'I' for Inactive)
REMARK    1  A    between atoms: C_1  and  N_2
REMARK    2  A    between atoms: C_6  and  C_7
REMARK    3  A    between atoms: C_7  and  C_8
REMARK    4  A    between atoms: C_7  and  C_10
REMARK    5  A    between atoms: C_14  and  N_15
REMARK                            x       y       z     vdW  Elec       q    Type
REMARK                         _______ _______ _______ _____ _____    ______ ____
ROOT
ATOM      1  C   UNL     1       5.536   4.954  16.386  0.00  0.00    +0.000 A 
ATOM      2  C   UNL     1       5.314   6.335  16.244  0.00  0.00    +0.000 A 
ATOM      3  C   UNL     1       4.238   6.954  16.865  0.00  0.00    +0.000 A 
ATOM      4  C   UNL     1       3.320   6.192  17.571  0.00  0.00    +0.000 A 
ATOM      5  C   UNL     1       3.355   4.794  17.451  0.00  0.00    +0.000 A 
ATOM      6  C   UNL     1       4.525   4.183  16.967  0.00  0.00    +0.000 A 
ENDROOT
BRANCH   5   7
ATOM      7  N   UNL     1       2.091   4.060  17.370  0.00  0.00    +0.000 N 
ATOM      8  C   UNL     1       1.082   4.728  18.235  0.00  0.00    +0.000 C 
ATOM      9  C   UNL     1       1.340   4.068  19.547  0.00  0.00    +0.000 A 
ATOM     10  C   UNL     1       1.460   4.630  20.798  0.00  0.00    +0.000 A 
ATOM     11  F   UNL     1       1.145   5.915  20.997  0.00  0.00    +0.000 F 
ATOM     12  C   UNL     1       2.060   3.893  21.818  0.00  0.00    +0.000 A 
ATOM     13  C   UNL     1       2.521   2.584  21.575  0.00  0.00    +0.000 A 
ATOM     14  C   UNL     1       2.411   2.014  20.302  0.00  0.00    +0.000 A 
ATOM     15  C   UNL     1       1.833   2.786  19.306  0.00  0.00    +0.000 A 
ATOM     16  C   UNL     1       2.146   2.716  17.853  0.00  0.00    +0.000 C 
ATOM     17  O   UNL     1       2.574   1.722  17.290  0.00  0.00    +0.000 OA
ENDBRANCH   5   7
BRANCH   1  18
ATOM     18  C   UNL     1       6.861   4.391  15.901  0.00  0.00    +0.000 C 
BRANCH  18  24
ATOM     19  C   UNL     1       5.588   3.399  13.045  0.00  0.00    +0.000 C 
ATOM     20  N   UNL     1       6.646   4.336  13.304  0.00  0.00    +0.000 N 
ATOM     21  C   UNL     1       7.345   4.956  12.310  0.00  0.00    +0.000 A 
ATOM     22  N   UNL     1       8.242   5.758  12.828  0.00  0.00    +0.000 NA
ATOM     23  N   UNL     1       8.142   5.657  14.188  0.00  0.00    +0.000 NA
ATOM     24  C   UNL     1       7.182   4.796  14.488  0.00  0.00    +0.000 A 
ENDBRANCH  18  24
BRANCH  18  25
ATOM     25  C   UNL     1       8.033   4.450  16.876  0.00  0.00    +0.000 C 
ATOM     26  F   UNL     1       7.621   4.474  18.169  0.00  0.00    +0.000 F 
ENDBRANCH  18  25
ENDBRANCH   1  18
TORSDOF 4
ENDMDL
MODEL 4
REMARK VINA RESULT:      -7.8      1.268      1.596
REMARK  Name = 
REMARK  5 active torsions:
REMARK  status: ('A' for Active; 'I' for Inactive)
REMARK    1  A    between atoms: C_1  and  N_2
REMARK    2  A    between atoms: C_6  and  C_7
REMARK    3  A    between atoms: C_7  and  C_8
REMARK    4  A    between atoms: C_7  and  C_10
REMARK    5  A    between atoms: C_14  and  N_15
REMARK                            x       y       z     vdW  Elec       q    Type
REMARK                         _______ _______ _______ _____ _____    ______ ____
ROOT
ATOM      1  C   UNL     1       5.132   6.108  16.824  0.00  0.00    +0.000 A 
ATOM      2  C   UNL     1       4.325   7.253  16.938  0.00  0.00    +0.000 A 
ATOM      3  C   UNL     1       3.103   7.204  17.594  0.00  0.00    +0.000 A 
ATOM      4  C   UNL     1       2.630   5.994  18.077  0.00  0.00    +0.000 A 
ATOM      5  C   UNL     1       3.270   4.806  17.693  0.00  0.00    +0.000 A 
ATOM      6  C   UNL     1       4.575   4.874  17.177  0.00  0.00    +0.000 A 
ENDROOT
BRANCH   5   7
ATOM      7  N   UNL     1       2.452   3.630  17.388  0.00  0.00    +0.000 N 
ATOM      8  C   UNL     1       1.107   3.798  18.001  0.00  0.00    +0.000 C 
ATOM      9  C   UNL     1       1.337   3.241  19.365  0.00  0.00    +0.000 A 
ATOM     10  C   UNL     1       0.964   3.749  20.588  0.00  0.00    +0.000 A 
ATOM     11  F   UNL     1       0.126   4.790  20.664  0.00  0.00    +0.000 F 
ATOM     12  C   UNL     1       1.589   3.272  21.740  0.00  0.00    +0.000 A 
ATOM     13  C   UNL     1       2.576   2.271  21.652  0.00  0.00    +0.000 A 
ATOM     14  C   UNL     1       2.965   1.761  20.409  0.00  0.00    +0.000 A 
ATOM     15  C   UNL     1       2.341   2.277  19.284  0.00  0.00    +0.000 A 
ATOM     16  C   UNL     1       2.943   2.401  17.929  0.00  0.00    +0.000 C 
ATOM     17  O   UNL     1       3.840   1.689  17.508  0.00  0.00    +0.000 OA
ENDBRANCH   5   7
BRANCH   1  18
ATOM     18  C   UNL     1       6.557   6.285  16.328  0.00  0.00    +0.000 C 
BRANCH  18  24
ATOM     19  C   UNL     1       7.887   5.522  19.227  0.00  0.00    +0.000 C 
ATOM     20  N   UNL     1       7.923   6.758  18.495  0.00  0.00    +0.000 N 
ATOM     21  C   UNL     1       8.533   7.883  18.971  0.00  0.00    +0.000 A 
ATOM     22  N   UNL     1       8.420   8.854  18.101  0.00  0.00    +0.000 NA
ATOM     23  N   UNL     1       7.713   8.368  17.036  0.00  0.00    +0.000 NA
ATOM     24  C   UNL     1       7.402   7.102  17.266  0.00  0.00    +0.000 A 
ENDBRANCH  18  24
BRANCH  18  25
ATOM     25  C   UNL     1       7.241   5.053  15.742  0.00  0.00    +0.000 C 
ATOM     26  F   UNL     1       7.615   5.242  14.452  0.00  0.00    +0.000 F 
ENDBRANCH  18  25
ENDBRANCH   1  18
TORSDOF 4
ENDMDL
MODEL 5
REMARK VINA RESULT:      -7.6      2.528      6.067
REMARK  Name = 
REMARK  5 active torsions:
REMARK  status: ('A' for Active; 'I' for Inactive)
REMARK    1  A    between atoms: C_1  and  N_2
REMARK    2  A    between atoms: C_6  and  C_7
REMARK    3  A    between atoms: C_7  and  C_8
REMARK    4  A    between atoms: C_7  and  C_10
REMARK    5  A    between atoms: C_14  and  N_15
REMARK                            x       y       z     vdW  Elec       q    Type
REMARK                         _______ _______ _______ _____ _____    ______ ____
ROOT
ATOM      1  C   UNL     1       3.342   5.241  19.465  0.00  0.00    +0.000 A 
ATOM      2  C   UNL     1       3.053   4.123  18.662  0.00  0.00    +0.000 A 
ATOM      3  C   UNL     1       4.065   3.292  18.202  0.00  0.00    +0.000 A 
ATOM      4  C   UNL     1       5.388   3.608  18.468  0.00  0.00    +0.000 A 
ATOM      5  C   UNL     1       5.699   4.874  18.985  0.00  0.00    +0.000 A 
ATOM      6  C   UNL     1       4.680   5.629  19.592  0.00  0.00    +0.000 A 
ENDROOT
BRANCH   5   7
ATOM      7  N   UNL     1       6.889   5.568  18.489  0.00  0.00    +0.000 N 
ATOM      8  C   UNL     1       6.468   6.743  17.679  0.00  0.00    +0.000 C 
ATOM      9  C   UNL     1       6.308   6.126  16.331  0.00  0.00    +0.000 A 
ATOM     10  C   UNL     1       5.285   6.270  15.422  0.00  0.00    +0.000 A 
ATOM     11  F   UNL     1       4.344   7.204  15.601  0.00  0.00    +0.000 F 
ATOM     12  C   UNL     1       5.152   5.333  14.397  0.00  0.00    +0.000 A 
ATOM     13  C   UNL     1       6.063   4.264  14.287  0.00  0.00    +0.000 A 
ATOM     14  C   UNL     1       7.096   4.109  15.216  0.00  0.00    +0.000 A 
ATOM     15  C   UNL     1       7.183   5.044  16.235  0.00  0.00    +0.000 A 
ATOM     16  C   UNL     1       7.708   4.798  17.606  0.00  0.00    +0.000 C 
ATOM     17  O   UNL     1       8.524   3.935  17.884  0.00  0.00    +0.000 OA
ENDBRANCH   5   7
BRANCH   1  18
ATOM     18  C   UNL     1       2.184   5.952  20.142  0.00  0.00    +0.000 C 
BRANCH  18  24
ATOM     19  C   UNL     1       1.010   8.662  21.568  0.00  0.00    +0.000 C 
ATOM     20  N   UNL     1       1.417   8.442  20.208  0.00  0.00    +0.000 N 
ATOM     21  C   UNL     1       1.322   9.401  19.242  0.00  0.00    +0.000 A 
ATOM     22  N   UNL     1       1.768   8.933  18.103  0.00  0.00    +0.000 NA
ATOM     23  N   UNL     1       2.153   7.639  18.316  0.00  0.00    +0.000 NA
ATOM     24  C   UNL     1       1.941   7.329  19.586  0.00  0.00    +0.000 A 
ENDBRANCH  18  24
BRANCH  18  25
ATOM     25  C   UNL     1       0.926   5.127  20.404  0.00  0.00    +0.000 C 
ATOM     26  F   UNL     1       1.186   4.027  21.156  0.00  0.00    +0.000 F 
ENDBRANCH  18  25
ENDBRANCH   1  18
TORSDOF 4
ENDMDL
MODEL 6
REMARK VINA RESULT:      -7.6      0.780      1.304
REMARK  Name = 
REMARK  5 active torsions:
REMARK  status: ('A' for Active; 'I' for Inactive)
REMARK    1  A    between atoms: C_1  and  N_2
REMARK    2  A    between atoms: C_6  and  C_7
REMARK    3  A    between atoms: C_7  and  C_8
REMARK    4  A    between atoms: C_7  and  C_10
REMARK    5  A    between atoms: C_14  and  N_15
REMARK                            x       y       z     vdW  Elec       q    Type
REMARK                         _______ _______ _______ _____ _____    ______ ____
ROOT
ATOM      1  C   UNL     1       4.425   6.381  17.330  0.00  0.00    +0.000 A 
ATOM      2  C   UNL     1       3.773   7.626  17.279  0.00  0.00    +0.000 A 
ATOM      3  C   UNL     1       2.569   7.830  17.941  0.00  0.00    +0.000 A 
ATOM      4  C   UNL     1       1.957   6.773  18.596  0.00  0.00    +0.000 A 
ATOM      5  C   UNL     1       2.432   5.470  18.386  0.00  0.00    +0.000 A 
ATOM      6  C   UNL     1       3.724   5.294  17.861  0.00  0.00    +0.000 A 
ENDROOT
BRANCH   5   7
ATOM      7  N   UNL     1       1.464   4.378  18.258  0.00  0.00    +0.000 N 
ATOM      8  C   UNL     1       1.016   3.962  19.614  0.00  0.00    +0.000 C 
ATOM      9  C   UNL     1       2.055   2.953  19.969  0.00  0.00    +0.000 A 
ATOM     10  C   UNL     1       2.759   2.802  21.142  0.00  0.00    +0.000 A 
ATOM     11  F   UNL     1       2.415   3.494  22.234  0.00  0.00    +0.000 F 
ATOM     12  C   UNL     1       3.929   2.042  21.137  0.00  0.00    +0.000 A 
ATOM     13  C   UNL     1       4.372   1.425  19.951  0.00  0.00    +0.000 A 
ATOM     14  C   UNL     1       3.664   1.585  18.756  0.00  0.00    +0.000 A 
ATOM     15  C   UNL     1       2.521   2.368  18.792  0.00  0.00    +0.000 A 
ATOM     16  C   UNL     1       1.983   3.183  17.669  0.00  0.00    +0.000 C 
ATOM     17  O   UNL     1       2.174   2.938  16.489  0.00  0.00    +0.000 OA
ENDBRANCH   5   7
BRANCH   1  18
ATOM     18  C   UNL     1       5.849   6.300  16.808  0.00  0.00    +0.000 C 
BRANCH  18  24
ATOM     19  C   UNL     1       8.079   8.453  17.880  0.00  0.00    +0.000 C 
ATOM     20  N   UNL     1       7.813   7.110  18.316  0.00  0.00    +0.000 N 
ATOM     21  C   UNL     1       8.542   6.490  19.289  0.00  0.00    +0.000 A 
ATOM     22  N   UNL     1       8.081   5.282  19.490  0.00  0.00    +0.000 NA
ATOM     23  N   UNL     1       7.036   5.095  18.629  0.00  0.00    +0.000 NA
ATOM     24  C   UNL     1       6.868   6.193  17.910  0.00  0.00    +0.000 A 
ENDBRANCH  18  24
BRANCH  18  25
ATOM     25  C   UNL     1       6.092   5.388  15.608  0.00  0.00    +0.000 C 
ATOM     26  F   UNL     1       5.187   5.596  14.619  0.00  0.00    +0.000 F 
ENDBRANCH  18  25
ENDBRANCH   1  18
TORSDOF 4
ENDMDL
MODEL 7
REMARK VINA RESULT:      -7.5      3.815      6.282
REMARK  Name = 
REMARK  5 active torsions:
REMARK  status: ('A' for Active; 'I' for Inactive)
REMARK    1  A    between atoms: C_1  and  N_2
REMARK    2  A    between atoms: C_6  and  C_7
REMARK    3  A    between atoms: C_7  and  C_8
REMARK    4  A    between atoms: C_7  and  C_10
REMARK    5  A    between atoms: C_14  and  N_15
REMARK                            x       y       z     vdW  Elec       q    Type
REMARK                         _______ _______ _______ _____ _____    ______ ____
ROOT
ATOM      1  C   UNL     1       1.437   8.803  19.673  0.00  0.00    +0.000 A 
ATOM      2  C   UNL     1       1.923   9.159  18.403  0.00  0.00    +0.000 A 
ATOM      3  C   UNL     1       2.541   8.223  17.585  0.00  0.00    +0.000 A 
ATOM      4  C   UNL     1       2.755   6.936  18.054  0.00  0.00    +0.000 A 
ATOM      5  C   UNL     1       2.565   6.663  19.416  0.00  0.00    +0.000 A 
ATOM      6  C   UNL     1       1.796   7.552  20.187  0.00  0.00    +0.000 A 
ENDROOT
BRANCH   5   7
ATOM      7  N   UNL     1       3.510   5.776  20.098  0.00  0.00    +0.000 N 
ATOM      8  C   UNL     1       4.523   5.296  19.120  0.00  0.00    +0.000 C 
ATOM      9  C   UNL     1       3.844   4.090  18.565  0.00  0.00    +0.000 A 
ATOM     10  C   UNL     1       3.709   3.690  17.255  0.00  0.00    +0.000 A 
ATOM     11  F   UNL     1       4.393   4.305  16.283  0.00  0.00    +0.000 F 
ATOM     12  C   UNL     1       2.736   2.744  16.932  0.00  0.00    +0.000 A 
ATOM     13  C   UNL     1       1.916   2.194  17.937  0.00  0.00    +0.000 A 
ATOM     14  C   UNL     1       2.044   2.606  19.267  0.00  0.00    +0.000 A 
ATOM     15  C   UNL     1       3.003   3.567  19.547  0.00  0.00    +0.000 A 
ATOM     16  C   UNL     1       2.933   4.582  20.633  0.00  0.00    +0.000 C 
ATOM     17  O   UNL     1       2.301   4.439  21.667  0.00  0.00    +0.000 OA
ENDBRANCH   5   7
BRANCH   1  18
ATOM     18  C   UNL     1       0.552   9.798  20.403  0.00  0.00    +0.000 C 
BRANCH  18  24
ATOM     19  C   UNL     1       0.881  12.879  19.328  0.00  0.00    +0.000 C 
ATOM     20  N   UNL     1      -0.152  11.917  19.060  0.00  0.00    +0.000 N 
ATOM     21  C   UNL     1      -1.243  12.198  18.291  0.00  0.00    +0.000 A 
ATOM     22  N   UNL     1      -2.014  11.143  18.208  0.00  0.00    +0.000 NA
ATOM     23  N   UNL     1      -1.430  10.152  18.945  0.00  0.00    +0.000 NA
ATOM     24  C   UNL     1      -0.304  10.610  19.470  0.00  0.00    +0.000 A 
ENDBRANCH  18  24
BRANCH  18  25
ATOM     25  C   UNL     1      -0.153   9.300  21.662  0.00  0.00    +0.000 C 
ATOM     26  F   UNL     1      -0.865   8.167  21.433  0.00  0.00    +0.000 F 
ENDBRANCH  18  25
ENDBRANCH   1  18
TORSDOF 4
ENDMDL
MODEL 8
REMARK VINA RESULT:      -7.5      2.268      3.037
REMARK  Name = 
REMARK  5 active torsions:
REMARK  status: ('A' for Active; 'I' for Inactive)
REMARK    1  A    between atoms: C_1  and  N_2
REMARK    2  A    between atoms: C_6  and  C_7
REMARK    3  A    between atoms: C_7  and  C_8
REMARK    4  A    between atoms: C_7  and  C_10
REMARK    5  A    between atoms: C_14  and  N_15
REMARK                            x       y       z     vdW  Elec       q    Type
REMARK                         _______ _______ _______ _____ _____    ______ ____
ROOT
ATOM      1  C   UNL     1       5.146   5.678  18.401  0.00  0.00    +0.000 A 
ATOM      2  C   UNL     1       4.310   6.281  17.445  0.00  0.00    +0.000 A 
ATOM      3  C   UNL     1       3.074   6.803  17.803  0.00  0.00    +0.000 A 
ATOM      4  C   UNL     1       2.618   6.659  19.104  0.00  0.00    +0.000 A 
ATOM      5  C   UNL     1       3.294   5.791  19.975  0.00  0.00    +0.000 A 
ATOM      6  C   UNL     1       4.609   5.406  19.664  0.00  0.00    +0.000 A 
ENDROOT
BRANCH   5   7
ATOM      7  N   UNL     1       2.511   4.953  20.886  0.00  0.00    +0.000 N 
ATOM      8  C   UNL     1       3.313   3.757  21.260  0.00  0.00    +0.000 C 
ATOM      9  C   UNL     1       2.967   2.817  20.155  0.00  0.00    +0.000 A 
ATOM     10  C   UNL     1       3.795   2.017  19.399  0.00  0.00    +0.000 A 
ATOM     11  F   UNL     1       5.079   1.857  19.739  0.00  0.00    +0.000 F 
ATOM     12  C   UNL     1       3.323   1.503  18.191  0.00  0.00    +0.000 A 
ATOM     13  C   UNL     1       2.012   1.786  17.761  0.00  0.00    +0.000 A 
ATOM     14  C   UNL     1       1.173   2.606  18.521  0.00  0.00    +0.000 A 
ATOM     15  C   UNL     1       1.684   3.121  19.703  0.00  0.00    +0.000 A 
ATOM     16  C   UNL     1       1.309   4.419  20.326  0.00  0.00    +0.000 C 
ATOM     17  O   UNL     1       0.233   4.972  20.167  0.00  0.00    +0.000 OA
ENDBRANCH   5   7
BRANCH   1  18
ATOM     18  C   UNL     1       6.577   5.364  18.001  0.00  0.00    +0.000 C 
BRANCH  18  24
ATOM     19  C   UNL     1       5.331   3.117  15.962  0.00  0.00    +0.000 C 
ATOM     20  N   UNL     1       6.223   4.209  15.692  0.00  0.00    +0.000 N 
ATOM     21  C   UNL     1       6.744   4.450  14.454  0.00  0.00    +0.000 A 
ATOM     22  N   UNL     1       7.516   5.507  14.492  0.00  0.00    +0.000 NA
ATOM     23  N   UNL     1       7.515   5.967  15.779  0.00  0.00    +0.000 NA
ATOM     24  C   UNL     1       6.740   5.186  16.516  0.00  0.00    +0.000 A 
ENDBRANCH  18  24
BRANCH  18  25
ATOM     25  C   UNL     1       7.677   6.173  18.682  0.00  0.00    +0.000 C 
ATOM     26  F   UNL     1       8.309   5.461  19.649  0.00  0.00    +0.000 F 
ENDBRANCH  18  25
ENDBRANCH   1  18
TORSDOF 4
ENDMDL
MODEL 9
REMARK VINA RESULT:      -7.4      8.226     11.248
REMARK  Name = 
REMARK  5 active torsions:
REMARK  status: ('A' for Active; 'I' for Inactive)
REMARK    1  A    between atoms: C_1  and  N_2
REMARK    2  A    between atoms: C_6  and  C_7
REMARK    3  A    between atoms: C_7  and  C_8
REMARK    4  A    between atoms: C_7  and  C_10
REMARK    5  A    between atoms: C_14  and  N_15
REMARK                            x       y       z     vdW  Elec       q    Type
REMARK                         _______ _______ _______ _____ _____    ______ ____
ROOT
ATOM      1  C   UNL     1      -4.131  11.238  17.665  0.00  0.00    +0.000 A 
ATOM      2  C   UNL     1      -3.625  10.451  16.615  0.00  0.00    +0.000 A 
ATOM      3  C   UNL     1      -2.344   9.919  16.675  0.00  0.00    +0.000 A 
ATOM      4  C   UNL     1      -1.519  10.231  17.744  0.00  0.00    +0.000 A 
ATOM      5  C   UNL     1      -1.896  11.258  18.623  0.00  0.00    +0.000 A 
ATOM      6  C   UNL     1      -3.240  11.666  18.654  0.00  0.00    +0.000 A 
ENDROOT
BRANCH   5   7
ATOM      7  N   UNL     1      -0.868  12.177  19.118  0.00  0.00    +0.000 N 
ATOM      8  C   UNL     1       0.409  11.434  19.291  0.00  0.00    +0.000 C 
ATOM      9  C   UNL     1       0.257  10.912  20.679  0.00  0.00    +0.000 A 
ATOM     10  C   UNL     1       0.504   9.649  21.168  0.00  0.00    +0.000 A 
ATOM     11  F   UNL     1       1.133   8.740  20.413  0.00  0.00    +0.000 F 
ATOM     12  C   UNL     1      -0.047   9.277  22.394  0.00  0.00    +0.000 A 
ATOM     13  C   UNL     1      -0.830  10.189  23.129  0.00  0.00    +0.000 A 
ATOM     14  C   UNL     1      -1.091  11.469  22.630  0.00  0.00    +0.000 A 
ATOM     15  C   UNL     1      -0.549  11.795  21.396  0.00  0.00    +0.000 A 
ATOM     16  C   UNL     1      -1.135  12.738  20.405  0.00  0.00    +0.000 C 
ATOM     17  O   UNL     1      -1.875  13.664  20.693  0.00  0.00    +0.000 OA
ENDBRANCH   5   7
BRANCH   1  18
ATOM     18  C   UNL     1      -5.613  11.570  17.656  0.00  0.00    +0.000 C 
BRANCH  18  24
ATOM     19  C   UNL     1      -5.845  13.658  20.174  0.00  0.00    +0.000 C 
ATOM     20  N   UNL     1      -6.307  12.303  20.058  0.00  0.00    +0.000 N 
ATOM     21  C   UNL     1      -6.918  11.639  21.082  0.00  0.00    +0.000 A 
ATOM     22  N   UNL     1      -7.240  10.429  20.700  0.00  0.00    +0.000 NA
ATOM     23  N   UNL     1      -6.824  10.285  19.406  0.00  0.00    +0.000 NA
ATOM     24  C   UNL     1      -6.253  11.411  19.008  0.00  0.00    +0.000 A 
ENDBRANCH  18  24
BRANCH  18  25
ATOM     25  C   UNL     1      -6.037  12.814  16.879  0.00  0.00    +0.000 C 
ATOM     26  F   UNL     1      -7.370  13.047  16.977  0.00  0.00    +0.000 F 
ENDBRANCH  18  25
ENDBRANCH   1  18
TORSDOF 4
ENDMDL
