MODEL 1
REMARK VINA RESULT:      -8.8      0.000      0.000
REMARK  Name = 
REMARK  6 active torsions:
REMARK  status: ('A' for Active; 'I' for Inactive)
REMARK    1  A    between atoms: C_1  and  C_2
REMARK    2  A    between atoms: N_4  and  C_5
REMARK    3  A    between atoms: C_8  and  N_9
REMARK    4  A    between atoms: C_10  and  C_12
REMARK    5  A    between atoms: C_15  and  C_16
REMARK    6  A    between atoms: C_24  and  C_25
REMARK                            x       y       z     vdW  Elec       q    Type
REMARK                         _______ _______ _______ _____ _____    ______ ____
ROOT
ATOM      1  N   UNL     1       1.693   8.056  20.015  0.00  0.00    +0.000 N 
ATOM      2  C   UNL     1       0.879   9.159  19.759  0.00  0.00    +0.000 C 
ATOM      3  O   UNL     1       0.693   9.653  18.652  0.00  0.00    +0.000 OA
ATOM      4  H   UNL     1       1.762   7.808  20.999  0.00  0.00    +0.000 HD
ENDROOT
BRANCH   1   8
ATOM      5  C   UNL     1       4.073   5.799  17.307  0.00  0.00    +0.000 A 
ATOM      6  C   UNL     1       3.909   7.168  17.152  0.00  0.00    +0.000 A 
ATOM      7  C   UNL     1       3.113   7.900  18.032  0.00  0.00    +0.000 A 
ATOM      8  C   UNL     1       2.443   7.290  19.095  0.00  0.00    +0.000 A 
ATOM      9  C   UNL     1       2.542   5.888  19.227  0.00  0.00    +0.000 A 
ATOM     10  C   UNL     1       3.359   5.157  18.322  0.00  0.00    +0.000 A 
BRANCH   5  14
ATOM     11  C   UNL     1       6.849   4.431  15.152  0.00  0.00    +0.000 C 
ATOM     12  C   UNL     1       6.211   5.410  16.099  0.00  0.00    +0.000 C 
ATOM     13  O   UNL     1       6.827   6.408  16.458  0.00  0.00    +0.000 OA
ATOM     14  N   UNL     1       4.926   5.042  16.477  0.00  0.00    +0.000 N 
ATOM     15  H   UNL     1       4.623   4.107  16.232  0.00  0.00    +0.000 HD
ENDBRANCH   5  14
BRANCH   9  16
ATOM     16  C   UNL     1       1.829   5.099  20.295  0.00  0.00    +0.000 C 
ATOM     17  F   UNL     1       2.618   4.722  21.341  0.00  0.00    +0.000 F 
ATOM     18  F   UNL     1       0.793   5.791  20.850  0.00  0.00    +0.000 F 
ATOM     19  F   UNL     1       1.283   3.945  19.817  0.00  0.00    +0.000 F 
ENDBRANCH   9  16
ENDBRANCH   1   8
BRANCH   2  20
ATOM     20  C   UNL     1       0.237   9.729  20.939  0.00  0.00    +0.000 A 
ATOM     21  C   UNL     1       0.249   9.214  22.220  0.00  0.00    +0.000 A 
ATOM     22  C   UNL     1      -0.463  10.036  23.143  0.00  0.00    +0.000 A 
ATOM     23  C   UNL     1      -1.015  11.156  22.546  0.00  0.00    +0.000 A 
ATOM     24  S   UNL     1      -0.640  11.189  20.873  0.00  0.00    +0.000 S 
BRANCH  23  25
ATOM     25  C   UNL     1      -1.789  12.256  23.142  0.00  0.00    +0.000 A 
ATOM     26  C   UNL     1      -3.095  12.049  23.623  0.00  0.00    +0.000 A 
ATOM     27  C   UNL     1      -3.848  13.104  24.145  0.00  0.00    +0.000 A 
ATOM     28  C   UNL     1      -3.302  14.384  24.210  0.00  0.00    +0.000 A 
ATOM     29  C   UNL     1      -2.004  14.605  23.756  0.00  0.00    +0.000 A 
ATOM     30  C   UNL     1      -1.260  13.551  23.230  0.00  0.00    +0.000 A 
ATOM     31  F   UNL     1      -0.022  13.817  22.786  0.00  0.00    +0.000 F 
ENDBRANCH  23  25
ENDBRANCH   2  20
TORSDOF 5
ENDMDL
MODEL 2
REMARK VINA RESULT:      -8.7      3.231      9.861
REMARK  Name = 
REMARK  6 active torsions:
REMARK  status: ('A' for Active; 'I' for Inactive)
REMARK    1  A    between atoms: C_1  and  C_2
REMARK    2  A    between atoms: N_4  and  C_5
REMARK    3  A    between atoms: C_8  and  N_9
REMARK    4  A    between atoms: C_10  and  C_12
REMARK    5  A    between atoms: C_15  and  C_16
REMARK    6  A    between atoms: C_24  and  C_25
REMARK                            x       y       z     vdW  Elec       q    Type
REMARK                         _______ _______ _______ _____ _____    ______ ____
ROOT
ATOM      1  N   UNL     1       2.159   7.677  19.953  0.00  0.00    +0.000 N 
ATOM      2  C   UNL     1       2.200   6.291  20.096  0.00  0.00    +0.000 C 
ATOM      3  O   UNL     1       1.451   5.636  20.813  0.00  0.00    +0.000 OA
ATOM      4  H   UNL     1       2.883   8.056  19.347  0.00  0.00    +0.000 HD
ENDROOT
BRANCH   1   8
ATOM      5  C   UNL     1      -0.377  10.508  21.862  0.00  0.00    +0.000 A 
ATOM      6  C   UNL     1       0.222   9.483  22.577  0.00  0.00    +0.000 A 
ATOM      7  C   UNL     1       1.038   8.546  21.944  0.00  0.00    +0.000 A 
ATOM      8  C   UNL     1       1.278   8.595  20.569  0.00  0.00    +0.000 A 
ATOM      9  C   UNL     1       0.621   9.589  19.813  0.00  0.00    +0.000 A 
ATOM     10  C   UNL     1      -0.207  10.537  20.475  0.00  0.00    +0.000 A 
BRANCH   5  14
ATOM     11  C   UNL     1      -1.774  13.652  23.407  0.00  0.00    +0.000 C 
ATOM     12  C   UNL     1      -0.767  12.836  22.645  0.00  0.00    +0.000 C 
ATOM     13  O   UNL     1       0.266  13.358  22.237  0.00  0.00    +0.000 OA
ATOM     14  N   UNL     1      -1.151  11.511  22.483  0.00  0.00    +0.000 N 
ATOM     15  H   UNL     1      -2.105  11.275  22.727  0.00  0.00    +0.000 HD
ENDBRANCH   5  14
BRANCH   9  16
ATOM     16  C   UNL     1       0.750   9.722  18.317  0.00  0.00    +0.000 C 
ATOM     17  F   UNL     1       1.739  10.566  17.908  0.00  0.00    +0.000 F 
ATOM     18  F   UNL     1       1.013   8.529  17.710  0.00  0.00    +0.000 F 
ATOM     19  F   UNL     1      -0.391  10.186  17.732  0.00  0.00    +0.000 F 
ENDBRANCH   9  16
ENDBRANCH   1   8
BRANCH   2  20
ATOM     20  C   UNL     1       3.240   5.629  19.315  0.00  0.00    +0.000 A 
ATOM     21  C   UNL     1       3.979   4.524  19.688  0.00  0.00    +0.000 A 
ATOM     22  C   UNL     1       4.900   4.119  18.677  0.00  0.00    +0.000 A 
ATOM     23  C   UNL     1       4.853   4.929  17.557  0.00  0.00    +0.000 A 
ATOM     24  S   UNL     1       3.676   6.160  17.756  0.00  0.00    +0.000 S 
BRANCH  23  25
ATOM     25  C   UNL     1       5.608   4.840  16.297  0.00  0.00    +0.000 A 
ATOM     26  C   UNL     1       5.082   4.163  15.181  0.00  0.00    +0.000 A 
ATOM     27  C   UNL     1       5.820   4.037  14.000  0.00  0.00    +0.000 A 
ATOM     28  C   UNL     1       7.090   4.599  13.909  0.00  0.00    +0.000 A 
ATOM     29  C   UNL     1       7.620   5.290  14.997  0.00  0.00    +0.000 A 
ATOM     30  C   UNL     1       6.884   5.407  16.174  0.00  0.00    +0.000 A 
ATOM     31  F   UNL     1       7.445   6.062  17.201  0.00  0.00    +0.000 F 
ENDBRANCH  23  25
ENDBRANCH   2  20
TORSDOF 5
ENDMDL
MODEL 3
REMARK VINA RESULT:      -8.4      0.961      1.329
REMARK  Name = 
REMARK  6 active torsions:
REMARK  status: ('A' for Active; 'I' for Inactive)
REMARK    1  A    between atoms: C_1  and  C_2
REMARK    2  A    between atoms: N_4  and  C_5
REMARK    3  A    between atoms: C_8  and  N_9
REMARK    4  A    between atoms: C_10  and  C_12
REMARK    5  A    between atoms: C_15  and  C_16
REMARK    6  A    between atoms: C_24  and  C_25
REMARK                            x       y       z     vdW  Elec       q    Type
REMARK                         _______ _______ _______ _____ _____    ______ ____
ROOT
ATOM      1  N   UNL     1       1.703   8.107  20.039  0.00  0.00    +0.000 N 
ATOM      2  C   UNL     1       0.895   9.193  19.707  0.00  0.00    +0.000 C 
ATOM      3  O   UNL     1       0.686   9.590  18.565  0.00  0.00    +0.000 OA
ATOM      4  H   UNL     1       1.794   7.945  21.039  0.00  0.00    +0.000 HD
ENDROOT
BRANCH   1   8
ATOM      5  C   UNL     1       3.996   5.586  17.494  0.00  0.00    +0.000 A 
ATOM      6  C   UNL     1       3.918   6.953  17.272  0.00  0.00    +0.000 A 
ATOM      7  C   UNL     1       3.150   7.772  18.098  0.00  0.00    +0.000 A 
ATOM      8  C   UNL     1       2.424   7.255  19.173  0.00  0.00    +0.000 A 
ATOM      9  C   UNL     1       2.436   5.858  19.373  0.00  0.00    +0.000 A 
ATOM     10  C   UNL     1       3.225   5.037  18.521  0.00  0.00    +0.000 A 
BRANCH   5  14
ATOM     11  C   UNL     1       6.244   3.982  14.926  0.00  0.00    +0.000 C 
ATOM     12  C   UNL     1       5.506   5.121  15.574  0.00  0.00    +0.000 C 
ATOM     13  O   UNL     1       5.556   6.244  15.084  0.00  0.00    +0.000 OA
ATOM     14  N   UNL     1       4.818   4.741  16.719  0.00  0.00    +0.000 N 
ATOM     15  H   UNL     1       5.013   3.819  17.089  0.00  0.00    +0.000 HD
ENDBRANCH   5  14
BRANCH   9  16
ATOM     16  C   UNL     1       1.657   5.164  20.460  0.00  0.00    +0.000 C 
ATOM     17  F   UNL     1       2.400   4.795  21.541  0.00  0.00    +0.000 F 
ATOM     18  F   UNL     1       0.651   5.941  20.957  0.00  0.00    +0.000 F 
ATOM     19  F   UNL     1       1.054   4.020  20.025  0.00  0.00    +0.000 F 
ENDBRANCH   9  16
ENDBRANCH   1   8
BRANCH   2  20
ATOM     20  C   UNL     1       0.286   9.871  20.846  0.00  0.00    +0.000 A 
ATOM     21  C   UNL     1       0.060   9.343  22.102  0.00  0.00    +0.000 A 
ATOM     22  C   UNL     1      -0.535  10.288  22.990  0.00  0.00    +0.000 A 
ATOM     23  C   UNL     1      -0.763  11.514  22.391  0.00  0.00    +0.000 A 
ATOM     24  S   UNL     1      -0.232  11.493  20.760  0.00  0.00    +0.000 S 
BRANCH  23  25
ATOM     25  C   UNL     1      -1.325  12.750  22.958  0.00  0.00    +0.000 A 
ATOM     26  C   UNL     1      -0.634  13.972  22.868  0.00  0.00    +0.000 A 
ATOM     27  C   UNL     1      -1.146  15.135  23.450  0.00  0.00    +0.000 A 
ATOM     28  C   UNL     1      -2.368  15.101  24.117  0.00  0.00    +0.000 A 
ATOM     29  C   UNL     1      -3.076  13.904  24.200  0.00  0.00    +0.000 A 
ATOM     30  C   UNL     1      -2.558  12.745  23.626  0.00  0.00    +0.000 A 
ATOM     31  F   UNL     1      -3.267  11.613  23.750  0.00  0.00    +0.000 F 
ENDBRANCH  23  25
ENDBRANCH   2  20
TORSDOF 5
ENDMDL
MODEL 4
REMARK VINA RESULT:      -8.4      4.148      9.491
REMARK  Name = 
REMARK  6 active torsions:
REMARK  status: ('A' for Active; 'I' for Inactive)
REMARK    1  A    between atoms: C_1  and  C_2
REMARK    2  A    between atoms: N_4  and  C_5
REMARK    3  A    between atoms: C_8  and  N_9
REMARK    4  A    between atoms: C_10  and  C_12
REMARK    5  A    between atoms: C_15  and  C_16
REMARK    6  A    between atoms: C_24  and  C_25
REMARK                            x       y       z     vdW  Elec       q    Type
REMARK                         _______ _______ _______ _____ _____    ______ ____
ROOT
ATOM      1  N   UNL     1       1.060  10.219  19.477  0.00  0.00    +0.000 N 
ATOM      2  C   UNL     1       1.760   9.375  18.616  0.00  0.00    +0.000 C 
ATOM      3  O   UNL     1       2.201   9.699  17.519  0.00  0.00    +0.000 OA
ATOM      4  H   UNL     1       0.733   9.769  20.328  0.00  0.00    +0.000 HD
ENDROOT
BRANCH   1   8
ATOM      5  C   UNL     1       0.156  14.321  18.808  0.00  0.00    +0.000 A 
ATOM      6  C   UNL     1       1.295  13.939  19.500  0.00  0.00    +0.000 A 
ATOM      7  C   UNL     1       1.578  12.594  19.733  0.00  0.00    +0.000 A 
ATOM      8  C   UNL     1       0.727  11.579  19.289  0.00  0.00    +0.000 A 
ATOM      9  C   UNL     1      -0.472  11.951  18.643  0.00  0.00    +0.000 A 
ATOM     10  C   UNL     1      -0.744  13.327  18.414  0.00  0.00    +0.000 A 
BRANCH   5  14
ATOM     11  C   UNL     1      -1.079  17.880  18.636  0.00  0.00    +0.000 C 
ATOM     12  C   UNL     1      -0.907  16.522  19.260  0.00  0.00    +0.000 C 
ATOM     13  O   UNL     1      -1.435  16.270  20.338  0.00  0.00    +0.000 OA
ATOM     14  N   UNL     1      -0.122  15.668  18.496  0.00  0.00    +0.000 N 
ATOM     15  H   UNL     1       0.380  16.077  17.717  0.00  0.00    +0.000 HD
ENDBRANCH   5  14
BRANCH   9  16
ATOM     16  C   UNL     1      -1.502  10.961  18.162  0.00  0.00    +0.000 C 
ATOM     17  F   UNL     1      -1.907  10.064  19.104  0.00  0.00    +0.000 F 
ATOM     18  F   UNL     1      -2.642  11.569  17.723  0.00  0.00    +0.000 F 
ATOM     19  F   UNL     1      -1.059  10.213  17.112  0.00  0.00    +0.000 F 
ENDBRANCH   9  16
ENDBRANCH   1   8
BRANCH   2  20
ATOM     20  C   UNL     1       1.939   8.013  19.110  0.00  0.00    +0.000 A 
ATOM     21  C   UNL     1       1.671   7.551  20.383  0.00  0.00    +0.000 A 
ATOM     22  C   UNL     1       1.941   6.157  20.524  0.00  0.00    +0.000 A 
ATOM     23  C   UNL     1       2.421   5.586  19.359  0.00  0.00    +0.000 A 
ATOM     24  S   UNL     1       2.519   6.760  18.112  0.00  0.00    +0.000 S 
BRANCH  23  25
ATOM     25  C   UNL     1       2.789   4.190  19.076  0.00  0.00    +0.000 A 
ATOM     26  C   UNL     1       3.870   3.575  19.735  0.00  0.00    +0.000 A 
ATOM     27  C   UNL     1       4.249   2.265  19.432  0.00  0.00    +0.000 A 
ATOM     28  C   UNL     1       3.543   1.539  18.476  0.00  0.00    +0.000 A 
ATOM     29  C   UNL     1       2.458   2.124  17.827  0.00  0.00    +0.000 A 
ATOM     30  C   UNL     1       2.088   3.433  18.127  0.00  0.00    +0.000 A 
ATOM     31  F   UNL     1       1.050   3.960  17.461  0.00  0.00    +0.000 F 
ENDBRANCH  23  25
ENDBRANCH   2  20
TORSDOF 5
ENDMDL
MODEL 5
REMARK VINA RESULT:      -8.3      3.331      9.968
REMARK  Name = 
REMARK  6 active torsions:
REMARK  status: ('A' for Active; 'I' for Inactive)
REMARK    1  A    between atoms: C_1  and  C_2
REMARK    2  A    between atoms: N_4  and  C_5
REMARK    3  A    between atoms: C_8  and  N_9
REMARK    4  A    between atoms: C_10  and  C_12
REMARK    5  A    between atoms: C_15  and  C_16
REMARK    6  A    between atoms: C_24  and  C_25
REMARK                            x       y       z     vdW  Elec       q    Type
REMARK                         _______ _______ _______ _____ _____    ______ ____
ROOT
ATOM      1  N   UNL     1       0.132   9.641  20.543  0.00  0.00    +0.000 N 
ATOM      2  C   UNL     1       1.199   8.904  21.054  0.00  0.00    +0.000 C 
ATOM      3  O   UNL     1       1.701   9.069  22.161  0.00  0.00    +0.000 OA
ATOM      4  H   UNL     1      -0.128   9.395  19.591  0.00  0.00    +0.000 HD
ENDROOT
BRANCH   1   8
ATOM      5  C   UNL     1      -1.898  12.841  22.475  0.00  0.00    +0.000 A 
ATOM      6  C   UNL     1      -1.572  11.679  23.158  0.00  0.00    +0.000 A 
ATOM      7  C   UNL     1      -0.924  10.626  22.516  0.00  0.00    +0.000 A 
ATOM      8  C   UNL     1      -0.583  10.691  21.163  0.00  0.00    +0.000 A 
ATOM      9  C   UNL     1      -0.968  11.836  20.434  0.00  0.00    +0.000 A 
ATOM     10  C   UNL     1      -1.629  12.902  21.105  0.00  0.00    +0.000 A 
BRANCH   5  14
ATOM     11  C   UNL     1      -2.764  15.852  24.574  0.00  0.00    +0.000 C 
ATOM     12  C   UNL     1      -1.852  14.799  24.006  0.00  0.00    +0.000 C 
ATOM     13  O   UNL     1      -0.674  14.759  24.345  0.00  0.00    +0.000 OA
ATOM     14  N   UNL     1      -2.492  13.951  23.112  0.00  0.00    +0.000 N 
ATOM     15  H   UNL     1      -3.420  14.218  22.807  0.00  0.00    +0.000 HD
ENDBRANCH   5  14
BRANCH   9  16
ATOM     16  C   UNL     1      -0.711  12.013  18.959  0.00  0.00    +0.000 C 
ATOM     17  F   UNL     1       0.601  11.927  18.600  0.00  0.00    +0.000 F 
ATOM     18  F   UNL     1      -1.358  11.080  18.203  0.00  0.00    +0.000 F 
ATOM     19  F   UNL     1      -1.139  13.221  18.494  0.00  0.00    +0.000 F 
ENDBRANCH   9  16
ENDBRANCH   1   8
BRANCH   2  20
ATOM     20  C   UNL     1       1.719   7.880  20.153  0.00  0.00    +0.000 A 
ATOM     21  C   UNL     1       2.254   8.077  18.895  0.00  0.00    +0.000 A 
ATOM     22  C   UNL     1       2.689   6.859  18.293  0.00  0.00    +0.000 A 
ATOM     23  C   UNL     1       2.466   5.756  19.098  0.00  0.00    +0.000 A 
ATOM     24  S   UNL     1       1.745   6.231  20.580  0.00  0.00    +0.000 S 
BRANCH  23  25
ATOM     25  C   UNL     1       2.790   4.339  18.866  0.00  0.00    +0.000 A 
ATOM     26  C   UNL     1       3.822   3.703  19.579  0.00  0.00    +0.000 A 
ATOM     27  C   UNL     1       4.161   2.371  19.324  0.00  0.00    +0.000 A 
ATOM     28  C   UNL     1       3.463   1.646  18.362  0.00  0.00    +0.000 A 
ATOM     29  C   UNL     1       2.425   2.254  17.659  0.00  0.00    +0.000 A 
ATOM     30  C   UNL     1       2.095   3.584  17.912  0.00  0.00    +0.000 A 
ATOM     31  F   UNL     1       1.102   4.131  17.194  0.00  0.00    +0.000 F 
ENDBRANCH  23  25
ENDBRANCH   2  20
TORSDOF 5
ENDMDL
MODEL 6
REMARK VINA RESULT:      -8.2      3.443      9.978
REMARK  Name = 
REMARK  6 active torsions:
REMARK  status: ('A' for Active; 'I' for Inactive)
REMARK    1  A    between atoms: C_1  and  C_2
REMARK    2  A    between atoms: N_4  and  C_5
REMARK    3  A    between atoms: C_8  and  N_9
REMARK    4  A    between atoms: C_10  and  C_12
REMARK    5  A    between atoms: C_15  and  C_16
REMARK    6  A    between atoms: C_24  and  C_25
REMARK                            x       y       z     vdW  Elec       q    Type
REMARK                         _______ _______ _______ _____ _____    ______ ____
ROOT
ATOM      1  N   UNL     1      -0.203  10.118  20.123  0.00  0.00    +0.000 N 
ATOM      2  C   UNL     1       0.991  10.396  19.460  0.00  0.00    +0.000 C 
ATOM      3  O   UNL     1       1.481  11.513  19.333  0.00  0.00    +0.000 OA
ATOM      4  H   UNL     1      -0.479   9.139  20.096  0.00  0.00    +0.000 HD
ENDROOT
BRANCH   1   8
ATOM      5  C   UNL     1      -2.711  12.931  22.096  0.00  0.00    +0.000 A 
ATOM      6  C   UNL     1      -1.780  12.181  22.798  0.00  0.00    +0.000 A 
ATOM      7  C   UNL     1      -0.973  11.247  22.150  0.00  0.00    +0.000 A 
ATOM      8  C   UNL     1      -1.073  11.021  20.775  0.00  0.00    +0.000 A 
ATOM      9  C   UNL     1      -2.063  11.724  20.055  0.00  0.00    +0.000 A 
ATOM     10  C   UNL     1      -2.877  12.673  20.733  0.00  0.00    +0.000 A 
BRANCH   5  14
ATOM     11  C   UNL     1      -5.327  14.984  23.875  0.00  0.00    +0.000 C 
ATOM     12  C   UNL     1      -4.686  13.713  23.388  0.00  0.00    +0.000 C 
ATOM     13  O   UNL     1      -5.221  12.632  23.608  0.00  0.00    +0.000 OA
ATOM     14  N   UNL     1      -3.494  13.931  22.710  0.00  0.00    +0.000 N 
ATOM     15  H   UNL     1      -3.099  14.862  22.759  0.00  0.00    +0.000 HD
ENDBRANCH   5  14
BRANCH   9  16
ATOM     16  C   UNL     1      -2.313  11.538  18.581  0.00  0.00    +0.000 C 
ATOM     17  F   UNL     1      -2.292  10.240  18.164  0.00  0.00    +0.000 F 
ATOM     18  F   UNL     1      -3.527  12.026  18.194  0.00  0.00    +0.000 F 
ATOM     19  F   UNL     1      -1.396  12.185  17.808  0.00  0.00    +0.000 F 
ENDBRANCH   9  16
ENDBRANCH   1   8
BRANCH   2  20
ATOM     20  C   UNL     1       1.656   9.229  18.889  0.00  0.00    +0.000 A 
ATOM     21  C   UNL     1       2.257   9.143  17.649  0.00  0.00    +0.000 A 
ATOM     22  C   UNL     1       2.834   7.859  17.412  0.00  0.00    +0.000 A 
ATOM     23  C   UNL     1       2.651   6.989  18.472  0.00  0.00    +0.000 A 
ATOM     24  S   UNL     1       1.792   7.759  19.740  0.00  0.00    +0.000 S 
BRANCH  23  25
ATOM     25  C   UNL     1       3.108   5.600  18.640  0.00  0.00    +0.000 A 
ATOM     26  C   UNL     1       4.298   5.305  19.330  0.00  0.00    +0.000 A 
ATOM     27  C   UNL     1       4.757   3.990  19.447  0.00  0.00    +0.000 A 
ATOM     28  C   UNL     1       4.025   2.944  18.891  0.00  0.00    +0.000 A 
ATOM     29  C   UNL     1       2.834   3.215  18.220  0.00  0.00    +0.000 A 
ATOM     30  C   UNL     1       2.385   4.528  18.100  0.00  0.00    +0.000 A 
ATOM     31  F   UNL     1       1.243   4.740  17.427  0.00  0.00    +0.000 F 
ENDBRANCH  23  25
ENDBRANCH   2  20
TORSDOF 5
ENDMDL
MODEL 7
REMARK VINA RESULT:      -8.2      4.121      9.480
REMARK  Name = 
REMARK  6 active torsions:
REMARK  status: ('A' for Active; 'I' for Inactive)
REMARK    1  A    between atoms: C_1  and  C_2
REMARK    2  A    between atoms: N_4  and  C_5
REMARK    3  A    between atoms: C_8  and  N_9
REMARK    4  A    between atoms: C_10  and  C_12
REMARK    5  A    between atoms: C_15  and  C_16
REMARK    6  A    between atoms: C_24  and  C_25
REMARK                            x       y       z     vdW  Elec       q    Type
REMARK                         _______ _______ _______ _____ _____    ______ ____
ROOT
ATOM      1  N   UNL     1       1.003  10.248  19.423  0.00  0.00    +0.000 N 
ATOM      2  C   UNL     1       1.728   9.429  18.558  0.00  0.00    +0.000 C 
ATOM      3  O   UNL     1       2.164   9.775  17.465  0.00  0.00    +0.000 OA
ATOM      4  H   UNL     1       0.686   9.782  20.271  0.00  0.00    +0.000 HD
ENDROOT
BRANCH   1   8
ATOM      5  C   UNL     1      -0.012  14.328  18.783  0.00  0.00    +0.000 A 
ATOM      6  C   UNL     1       1.144  13.972  19.462  0.00  0.00    +0.000 A 
ATOM      7  C   UNL     1       1.462  12.634  19.686  0.00  0.00    +0.000 A 
ATOM      8  C   UNL     1       0.633  11.599  19.246  0.00  0.00    +0.000 A 
ATOM      9  C   UNL     1      -0.581  11.943  18.614  0.00  0.00    +0.000 A 
ATOM     10  C   UNL     1      -0.890  13.313  18.393  0.00  0.00    +0.000 A 
BRANCH   5  14
ATOM     11  C   UNL     1      -1.280  17.878  18.681  0.00  0.00    +0.000 C 
ATOM     12  C   UNL     1      -1.039  16.531  19.305  0.00  0.00    +0.000 C 
ATOM     13  O   UNL     1      -1.458  16.293  20.433  0.00  0.00    +0.000 OA
ATOM     14  N   UNL     1      -0.328  15.669  18.480  0.00  0.00    +0.000 N 
ATOM     15  H   UNL     1       0.093  16.068  17.650  0.00  0.00    +0.000 HD
ENDBRANCH   5  14
BRANCH   9  16
ATOM     16  C   UNL     1      -1.590  10.930  18.138  0.00  0.00    +0.000 C 
ATOM     17  F   UNL     1      -1.953  10.010  19.076  0.00  0.00    +0.000 F 
ATOM     18  F   UNL     1      -2.755  11.510  17.726  0.00  0.00    +0.000 F 
ATOM     19  F   UNL     1      -1.145  10.207  17.071  0.00  0.00    +0.000 F 
ENDBRANCH   9  16
ENDBRANCH   1   8
BRANCH   2  20
ATOM     20  C   UNL     1       1.943   8.070  19.042  0.00  0.00    +0.000 A 
ATOM     21  C   UNL     1       1.753   7.608  20.329  0.00  0.00    +0.000 A 
ATOM     22  C   UNL     1       2.038   6.215  20.455  0.00  0.00    +0.000 A 
ATOM     23  C   UNL     1       2.450   5.645  19.264  0.00  0.00    +0.000 A 
ATOM     24  S   UNL     1       2.468   6.817  18.012  0.00  0.00    +0.000 S 
BRANCH  23  25
ATOM     25  C   UNL     1       2.807   4.250  18.961  0.00  0.00    +0.000 A 
ATOM     26  C   UNL     1       1.860   3.356  18.430  0.00  0.00    +0.000 A 
ATOM     27  C   UNL     1       2.187   2.018  18.189  0.00  0.00    +0.000 A 
ATOM     28  C   UNL     1       3.472   1.555  18.458  0.00  0.00    +0.000 A 
ATOM     29  C   UNL     1       4.429   2.430  18.966  0.00  0.00    +0.000 A 
ATOM     30  C   UNL     1       4.097   3.761  19.212  0.00  0.00    +0.000 A 
ATOM     31  F   UNL     1       5.047   4.560  19.721  0.00  0.00    +0.000 F 
ENDBRANCH  23  25
ENDBRANCH   2  20
TORSDOF 5
ENDMDL
MODEL 8
REMARK VINA RESULT:      -8.2      4.084      9.498
REMARK  Name = 
REMARK  6 active torsions:
REMARK  status: ('A' for Active; 'I' for Inactive)
REMARK    1  A    between atoms: C_1  and  C_2
REMARK    2  A    between atoms: N_4  and  C_5
REMARK    3  A    between atoms: C_8  and  N_9
REMARK    4  A    between atoms: C_10  and  C_12
REMARK    5  A    between atoms: C_15  and  C_16
REMARK    6  A    between atoms: C_24  and  C_25
REMARK                            x       y       z     vdW  Elec       q    Type
REMARK                         _______ _______ _______ _____ _____    ______ ____
ROOT
ATOM      1  N   UNL     1       0.962  10.312  19.469  0.00  0.00    +0.000 N 
ATOM      2  C   UNL     1       1.690   9.482  18.618  0.00  0.00    +0.000 C 
ATOM      3  O   UNL     1       2.144   9.819  17.529  0.00  0.00    +0.000 OA
ATOM      4  H   UNL     1       0.628   9.853  20.314  0.00  0.00    +0.000 HD
ENDROOT
BRANCH   1   8
ATOM      5  C   UNL     1      -0.002  14.399  18.798  0.00  0.00    +0.000 A 
ATOM      6  C   UNL     1       1.131  14.035  19.509  0.00  0.00    +0.000 A 
ATOM      7  C   UNL     1       1.433  12.694  19.743  0.00  0.00    +0.000 A 
ATOM      8  C   UNL     1       0.608  11.666  19.281  0.00  0.00    +0.000 A 
ATOM      9  C   UNL     1      -0.586  12.019  18.615  0.00  0.00    +0.000 A 
ATOM     10  C   UNL     1      -0.878  13.392  18.386  0.00  0.00    +0.000 A 
BRANCH   5  14
ATOM     11  C   UNL     1      -1.264  17.950  18.642  0.00  0.00    +0.000 C 
ATOM     12  C   UNL     1      -1.064  16.598  19.269  0.00  0.00    +0.000 C 
ATOM     13  O   UNL     1      -1.555  16.350  20.366  0.00  0.00    +0.000 OA
ATOM     14  N   UNL     1      -0.299  15.743  18.486  0.00  0.00    +0.000 N 
ATOM     15  H   UNL     1       0.175  16.149  17.689  0.00  0.00    +0.000 HD
ENDBRANCH   5  14
BRANCH   9  16
ATOM     16  C   UNL     1      -1.590  11.014  18.113  0.00  0.00    +0.000 C 
ATOM     17  F   UNL     1      -1.150  10.245  17.077  0.00  0.00    +0.000 F 
ATOM     18  F   UNL     1      -1.975  10.135  19.083  0.00  0.00    +0.000 F 
ATOM     19  F   UNL     1      -2.740  11.598  17.671  0.00  0.00    +0.000 F 
ENDBRANCH   9  16
ENDBRANCH   1   8
BRANCH   2  20
ATOM     20  C   UNL     1       1.885   8.123  19.110  0.00  0.00    +0.000 A 
ATOM     21  C   UNL     1       1.728   7.681  20.409  0.00  0.00    +0.000 A 
ATOM     22  C   UNL     1       1.979   6.283  20.542  0.00  0.00    +0.000 A 
ATOM     23  C   UNL     1       2.333   5.688  19.344  0.00  0.00    +0.000 A 
ATOM     24  S   UNL     1       2.338   6.845  18.078  0.00  0.00    +0.000 S 
BRANCH  23  25
ATOM     25  C   UNL     1       2.640   4.280  19.047  0.00  0.00    +0.000 A 
ATOM     26  C   UNL     1       3.810   3.922  18.352  0.00  0.00    +0.000 A 
ATOM     27  C   UNL     1       4.078   2.589  18.028  0.00  0.00    +0.000 A 
ATOM     28  C   UNL     1       3.188   1.587  18.407  0.00  0.00    +0.000 A 
ATOM     29  C   UNL     1       2.033   1.920  19.112  0.00  0.00    +0.000 A 
ATOM     30  C   UNL     1       1.767   3.251  19.427  0.00  0.00    +0.000 A 
ATOM     31  F   UNL     1       0.632   3.524  20.089  0.00  0.00    +0.000 F 
ENDBRANCH  23  25
ENDBRANCH   2  20
TORSDOF 5
ENDMDL
MODEL 9
REMARK VINA RESULT:      -8.2      3.268      9.955
REMARK  Name = 
REMARK  6 active torsions:
REMARK  status: ('A' for Active; 'I' for Inactive)
REMARK    1  A    between atoms: C_1  and  C_2
REMARK    2  A    between atoms: N_4  and  C_5
REMARK    3  A    between atoms: C_8  and  N_9
REMARK    4  A    between atoms: C_10  and  C_12
REMARK    5  A    between atoms: C_15  and  C_16
REMARK    6  A    between atoms: C_24  and  C_25
REMARK                            x       y       z     vdW  Elec       q    Type
REMARK                         _______ _______ _______ _____ _____    ______ ____
ROOT
ATOM      1  N   UNL     1       0.088   9.642  20.615  0.00  0.00    +0.000 N 
ATOM      2  C   UNL     1       1.185   8.909  21.064  0.00  0.00    +0.000 C 
ATOM      3  O   UNL     1       1.721   9.046  22.158  0.00  0.00    +0.000 OA
ATOM      4  H   UNL     1      -0.200   9.422  19.664  0.00  0.00    +0.000 HD
ENDROOT
BRANCH   1   8
ATOM      5  C   UNL     1      -1.936  12.726  22.732  0.00  0.00    +0.000 A 
ATOM      6  C   UNL     1      -1.672  11.501  23.325  0.00  0.00    +0.000 A 
ATOM      7  C   UNL     1      -1.025  10.486  22.620  0.00  0.00    +0.000 A 
ATOM      8  C   UNL     1      -0.624  10.656  21.293  0.00  0.00    +0.000 A 
ATOM      9  C   UNL     1      -0.946  11.871  20.651  0.00  0.00    +0.000 A 
ATOM     10  C   UNL     1      -1.607  12.895  21.384  0.00  0.00    +0.000 A 
BRANCH   5  14
ATOM     11  C   UNL     1      -2.740  15.731  24.864  0.00  0.00    +0.000 C 
ATOM     12  C   UNL     1      -1.834  14.758  24.162  0.00  0.00    +0.000 C 
ATOM     13  O   UNL     1      -0.616  14.868  24.263  0.00  0.00    +0.000 OA
ATOM     14  N   UNL     1      -2.526  13.796  23.438  0.00  0.00    +0.000 N 
ATOM     15  H   UNL     1      -3.520  13.939  23.314  0.00  0.00    +0.000 HD
ENDBRANCH   5  14
BRANCH   9  16
ATOM     16  C   UNL     1      -0.622  12.165  19.209  0.00  0.00    +0.000 C 
ATOM     17  F   UNL     1      -1.210  11.322  18.314  0.00  0.00    +0.000 F 
ATOM     18  F   UNL     1      -1.004  13.420  18.835  0.00  0.00    +0.000 F 
ATOM     19  F   UNL     1       0.715  12.098  18.949  0.00  0.00    +0.000 F 
ENDBRANCH   9  16
ENDBRANCH   1   8
BRANCH   2  20
ATOM     20  C   UNL     1       1.692   7.926  20.112  0.00  0.00    +0.000 A 
ATOM     21  C   UNL     1       2.158   8.171  18.836  0.00  0.00    +0.000 A 
ATOM     22  C   UNL     1       2.601   6.984  18.180  0.00  0.00    +0.000 A 
ATOM     23  C   UNL     1       2.453   5.854  18.965  0.00  0.00    +0.000 A 
ATOM     24  S   UNL     1       1.790   6.267  20.492  0.00  0.00    +0.000 S 
BRANCH  23  25
ATOM     25  C   UNL     1       2.809   4.455  18.679  0.00  0.00    +0.000 A 
ATOM     26  C   UNL     1       1.897   3.586  18.053  0.00  0.00    +0.000 A 
ATOM     27  C   UNL     1       2.219   2.245  17.825  0.00  0.00    +0.000 A 
ATOM     28  C   UNL     1       3.465   1.753  18.205  0.00  0.00    +0.000 A 
ATOM     29  C   UNL     1       4.388   2.603  18.809  0.00  0.00    +0.000 A 
ATOM     30  C   UNL     1       4.061   3.937  19.041  0.00  0.00    +0.000 A 
ATOM     31  F   UNL     1       4.975   4.712  19.645  0.00  0.00    +0.000 F 
ENDBRANCH  23  25
ENDBRANCH   2  20
TORSDOF 5
ENDMDL
