MODEL 1
REMARK VINA RESULT:      -8.8      0.000      0.000
REMARK  Name = 
REMARK  7 active torsions:
REMARK  status: ('A' for Active; 'I' for Inactive)
REMARK    1  A    between atoms: C_1  and  C_2
REMARK    2  A    between atoms: C_4  and  C_5
REMARK    3  A    between atoms: C_12  and  C_13
REMARK    4  A    between atoms: C_13  and  C_14
REMARK    5  A    between atoms: N_16  and  C_17
REMARK    6  A    between atoms: C_21  and  C_22
REMARK    7  A    between atoms: N_26  and  C_27
REMARK                            x       y       z     vdW  Elec       q    Type
REMARK                         _______ _______ _______ _____ _____    ______ ____
ROOT
ATOM      1  C   UNL     1       1.930   8.182  18.988  0.00  0.00    +0.000 C 
ATOM      2  O   UNL     1       2.132   8.451  17.804  0.00  0.00    +0.000 OA
ATOM      3  N   UNL     1       2.187   6.952  19.572  0.00  0.00    +0.000 N 
ATOM      4  H   UNL     1       1.647   6.757  20.416  0.00  0.00    +0.000 HD
ENDROOT
BRANCH   3   5
ATOM      5  C   UNL     1       2.697   5.854  18.854  0.00  0.00    +0.000 A 
ATOM      6  C   UNL     1       1.786   4.932  18.338  0.00  0.00    +0.000 A 
ATOM      7  C   UNL     1       2.238   3.852  17.581  0.00  0.00    +0.000 A 
ATOM      8  C   UNL     1       3.603   3.675  17.367  0.00  0.00    +0.000 A 
ATOM      9  C   UNL     1       4.535   4.601  17.862  0.00  0.00    +0.000 A 
ATOM     10  C   UNL     1       4.068   5.677  18.630  0.00  0.00    +0.000 A 
BRANCH   9  11
ATOM     11  C   UNL     1       5.958   4.485  17.553  0.00  0.00    +0.000 A 
ATOM     12  N   UNL     1       6.956   4.351  18.413  0.00  0.00    +0.000 NA
ATOM     13  N   UNL     1       8.111   4.314  17.681  0.00  0.00    +0.000 NA
ATOM     14  N   UNL     1       7.863   4.438  16.384  0.00  0.00    +0.000 NA
ATOM     15  N   UNL     1       6.519   4.567  16.304  0.00  0.00    +0.000 N 
ATOM     16  C   UNL     1       5.903   4.825  15.036  0.00  0.00    +0.000 C 
ENDBRANCH   9  11
ENDBRANCH   3   5
BRANCH   1  17
ATOM     17  C   UNL     1       1.395   9.241  19.937  0.00  0.00    +0.000 C 
BRANCH  17  23
ATOM     18  C   UNL     1       1.838  12.458  18.921  0.00  0.00    +0.000 C 
ATOM     19  C   UNL     1       0.694  11.532  18.928  0.00  0.00    +0.000 A 
ATOM     20  O   UNL     1      -0.485  12.042  18.478  0.00  0.00    +0.000 OA
ATOM     21  C   UNL     1      -1.384  11.020  18.601  0.00  0.00    +0.000 A 
ATOM     22  N   UNL     1      -0.860   9.901  19.072  0.00  0.00    +0.000 NA
ATOM     23  C   UNL     1       0.470  10.223  19.307  0.00  0.00    +0.000 A 
BRANCH  21  24
ATOM     24  C   UNL     1      -2.750  11.326  18.185  0.00  0.00    +0.000 A 
ATOM     25  C   UNL     1      -3.663  11.916  19.076  0.00  0.00    +0.000 A 
ATOM     26  C   UNL     1      -4.960  12.235  18.668  0.00  0.00    +0.000 A 
ATOM     27  C   UNL     1      -5.362  11.963  17.364  0.00  0.00    +0.000 A 
ATOM     28  C   UNL     1      -4.473  11.364  16.471  0.00  0.00    +0.000 A 
ATOM     29  C   UNL     1      -3.174  11.045  16.880  0.00  0.00    +0.000 A 
ENDBRANCH  21  24
ENDBRANCH  17  23
ENDBRANCH   1  17
TORSDOF 5
ENDMDL
MODEL 2
REMARK VINA RESULT:      -8.8      3.345      9.548
REMARK  Name = 
REMARK  7 active torsions:
REMARK  status: ('A' for Active; 'I' for Inactive)
REMARK    1  A    between atoms: C_1  and  C_2
REMARK    2  A    between atoms: C_4  and  C_5
REMARK    3  A    between atoms: C_12  and  C_13
REMARK    4  A    between atoms: C_13  and  C_14
REMARK    5  A    between atoms: N_16  and  C_17
REMARK    6  A    between atoms: C_21  and  C_22
REMARK    7  A    between atoms: N_26  and  C_27
REMARK                            x       y       z     vdW  Elec       q    Type
REMARK                         _______ _______ _______ _____ _____    ______ ____
ROOT
ATOM      1  C   UNL     1       3.030   5.278  18.959  0.00  0.00    +0.000 C 
ATOM      2  O   UNL     1       1.869   4.886  18.844  0.00  0.00    +0.000 OA
ATOM      3  N   UNL     1       3.406   6.607  19.070  0.00  0.00    +0.000 N 
ATOM      4  H   UNL     1       4.366   6.805  18.787  0.00  0.00    +0.000 HD
ENDROOT
BRANCH   3   5
ATOM      5  C   UNL     1       2.483   7.670  19.042  0.00  0.00    +0.000 A 
ATOM      6  C   UNL     1       2.114   8.181  17.798  0.00  0.00    +0.000 A 
ATOM      7  C   UNL     1       1.169   9.202  17.714  0.00  0.00    +0.000 A 
ATOM      8  C   UNL     1       0.618   9.737  18.876  0.00  0.00    +0.000 A 
ATOM      9  C   UNL     1       0.962   9.224  20.137  0.00  0.00    +0.000 A 
ATOM     10  C   UNL     1       1.920   8.204  20.208  0.00  0.00    +0.000 A 
BRANCH   9  11
ATOM     11  C   UNL     1       0.310   9.702  21.354  0.00  0.00    +0.000 A 
ATOM     12  N   UNL     1      -0.345   8.978  22.249  0.00  0.00    +0.000 NA
ATOM     13  N   UNL     1      -0.813   9.845  23.198  0.00  0.00    +0.000 NA
ATOM     14  N   UNL     1      -0.481  11.097  22.912  0.00  0.00    +0.000 NA
ATOM     15  N   UNL     1       0.202  11.011  21.747  0.00  0.00    +0.000 N 
ATOM     16  C   UNL     1       0.631  12.208  21.085  0.00  0.00    +0.000 C 
ENDBRANCH   9  11
ENDBRANCH   3   5
BRANCH   1  17
ATOM     17  C   UNL     1       4.175   4.282  19.026  0.00  0.00    +0.000 C 
BRANCH  17  23
ATOM     18  C   UNL     1       7.328   5.559  19.134  0.00  0.00    +0.000 C 
ATOM     19  C   UNL     1       6.479   5.009  18.065  0.00  0.00    +0.000 A 
ATOM     20  O   UNL     1       7.011   5.034  16.812  0.00  0.00    +0.000 OA
ATOM     21  C   UNL     1       6.046   4.502  16.005  0.00  0.00    +0.000 A 
ATOM     22  N   UNL     1       4.956   4.124  16.652  0.00  0.00    +0.000 NA
ATOM     23  C   UNL     1       5.213   4.464  17.974  0.00  0.00    +0.000 A 
BRANCH  21  24
ATOM     24  C   UNL     1       6.378   4.429  14.585  0.00  0.00    +0.000 A 
ATOM     25  C   UNL     1       7.447   5.170  14.053  0.00  0.00    +0.000 A 
ATOM     26  C   UNL     1       7.782   5.076  12.700  0.00  0.00    +0.000 A 
ATOM     27  C   UNL     1       7.047   4.244  11.861  0.00  0.00    +0.000 A 
ATOM     28  C   UNL     1       5.974   3.514  12.370  0.00  0.00    +0.000 A 
ATOM     29  C   UNL     1       5.639   3.607  13.724  0.00  0.00    +0.000 A 
ENDBRANCH  21  24
ENDBRANCH  17  23
ENDBRANCH   1  17
TORSDOF 5
ENDMDL
MODEL 3
REMARK VINA RESULT:      -8.7      1.024      1.525
REMARK  Name = 
REMARK  7 active torsions:
REMARK  status: ('A' for Active; 'I' for Inactive)
REMARK    1  A    between atoms: C_1  and  C_2
REMARK    2  A    between atoms: C_4  and  C_5
REMARK    3  A    between atoms: C_12  and  C_13
REMARK    4  A    between atoms: C_13  and  C_14
REMARK    5  A    between atoms: N_16  and  C_17
REMARK    6  A    between atoms: C_21  and  C_22
REMARK    7  A    between atoms: N_26  and  C_27
REMARK                            x       y       z     vdW  Elec       q    Type
REMARK                         _______ _______ _______ _____ _____    ______ ____
ROOT
ATOM      1  C   UNL     1       1.964   8.108  19.495  0.00  0.00    +0.000 C 
ATOM      2  O   UNL     1       2.023   8.426  18.307  0.00  0.00    +0.000 OA
ATOM      3  N   UNL     1       2.325   6.868  19.998  0.00  0.00    +0.000 N 
ATOM      4  H   UNL     1       1.889   6.623  20.887  0.00  0.00    +0.000 HD
ENDROOT
BRANCH   3   5
ATOM      5  C   UNL     1       2.788   5.816  19.185  0.00  0.00    +0.000 A 
ATOM      6  C   UNL     1       1.844   4.939  18.652  0.00  0.00    +0.000 A 
ATOM      7  C   UNL     1       2.247   3.909  17.805  0.00  0.00    +0.000 A 
ATOM      8  C   UNL     1       3.598   3.734  17.516  0.00  0.00    +0.000 A 
ATOM      9  C   UNL     1       4.563   4.616  18.026  0.00  0.00    +0.000 A 
ATOM     10  C   UNL     1       4.145   5.642  18.885  0.00  0.00    +0.000 A 
BRANCH   9  11
ATOM     11  C   UNL     1       5.968   4.509  17.643  0.00  0.00    +0.000 A 
ATOM     12  N   UNL     1       7.000   4.271  18.440  0.00  0.00    +0.000 NA
ATOM     13  N   UNL     1       8.121   4.290  17.656  0.00  0.00    +0.000 NA
ATOM     14  N   UNL     1       7.820   4.551  16.391  0.00  0.00    +0.000 NA
ATOM     15  N   UNL     1       6.477   4.709  16.385  0.00  0.00    +0.000 N 
ATOM     16  C   UNL     1       5.812   5.107  15.179  0.00  0.00    +0.000 C 
ENDBRANCH   9  11
ENDBRANCH   3   5
BRANCH   1  17
ATOM     17  C   UNL     1       1.503   9.112  20.538  0.00  0.00    +0.000 C 
BRANCH  17  23
ATOM     18  C   UNL     1      -0.481  11.249  22.293  0.00  0.00    +0.000 C 
ATOM     19  C   UNL     1      -0.498  10.728  20.917  0.00  0.00    +0.000 A 
ATOM     20  O   UNL     1      -1.546  11.125  20.145  0.00  0.00    +0.000 OA
ATOM     21  C   UNL     1      -1.357  10.505  18.942  0.00  0.00    +0.000 A 
ATOM     22  N   UNL     1      -0.263   9.766  18.887  0.00  0.00    +0.000 NA
ATOM     23  C   UNL     1       0.288   9.883  20.157  0.00  0.00    +0.000 A 
BRANCH  21  24
ATOM     24  C   UNL     1      -2.375  10.768  17.928  0.00  0.00    +0.000 A 
ATOM     25  C   UNL     1      -2.224  10.301  16.612  0.00  0.00    +0.000 A 
ATOM     26  C   UNL     1      -3.212  10.528  15.651  0.00  0.00    +0.000 A 
ATOM     27  C   UNL     1      -4.362  11.232  15.995  0.00  0.00    +0.000 A 
ATOM     28  C   UNL     1      -4.522  11.715  17.293  0.00  0.00    +0.000 A 
ATOM     29  C   UNL     1      -3.533  11.487  18.254  0.00  0.00    +0.000 A 
ENDBRANCH  21  24
ENDBRANCH  17  23
ENDBRANCH   1  17
TORSDOF 5
ENDMDL
MODEL 4
REMARK VINA RESULT:      -8.6      0.780      1.589
REMARK  Name = 
REMARK  7 active torsions:
REMARK  status: ('A' for Active; 'I' for Inactive)
REMARK    1  A    between atoms: C_1  and  C_2
REMARK    2  A    between atoms: C_4  and  C_5
REMARK    3  A    between atoms: C_12  and  C_13
REMARK    4  A    between atoms: C_13  and  C_14
REMARK    5  A    between atoms: N_16  and  C_17
REMARK    6  A    between atoms: C_21  and  C_22
REMARK    7  A    between atoms: N_26  and  C_27
REMARK                            x       y       z     vdW  Elec       q    Type
REMARK                         _______ _______ _______ _____ _____    ______ ____
ROOT
ATOM      1  C   UNL     1       1.922   8.306  18.768  0.00  0.00    +0.000 C 
ATOM      2  O   UNL     1       1.953   8.559  17.563  0.00  0.00    +0.000 OA
ATOM      3  N   UNL     1       2.311   7.101  19.331  0.00  0.00    +0.000 N 
ATOM      4  H   UNL     1       1.897   6.900  20.241  0.00  0.00    +0.000 HD
ENDROOT
BRANCH   3   5
ATOM      5  C   UNL     1       2.773   6.012  18.567  0.00  0.00    +0.000 A 
ATOM      6  C   UNL     1       2.023   4.836  18.588  0.00  0.00    +0.000 A 
ATOM      7  C   UNL     1       2.413   3.745  17.814  0.00  0.00    +0.000 A 
ATOM      8  C   UNL     1       3.572   3.817  17.045  0.00  0.00    +0.000 A 
ATOM      9  C   UNL     1       4.331   4.997  16.995  0.00  0.00    +0.000 A 
ATOM     10  C   UNL     1       3.933   6.083  17.786  0.00  0.00    +0.000 A 
BRANCH   9  11
ATOM     11  C   UNL     1       5.485   5.120  16.109  0.00  0.00    +0.000 A 
ATOM     12  N   UNL     1       5.473   5.268  14.792  0.00  0.00    +0.000 NA
ATOM     13  N   UNL     1       6.778   5.307  14.383  0.00  0.00    +0.000 NA
ATOM     14  N   UNL     1       7.608   5.170  15.409  0.00  0.00    +0.000 NA
ATOM     15  N   UNL     1       6.801   5.031  16.485  0.00  0.00    +0.000 N 
ATOM     16  C   UNL     1       7.372   4.757  17.771  0.00  0.00    +0.000 C 
ENDBRANCH   9  11
ENDBRANCH   3   5
BRANCH   1  17
ATOM     17  C   UNL     1       1.468   9.360  19.764  0.00  0.00    +0.000 C 
BRANCH  17  23
ATOM     18  C   UNL     1       1.859  12.589  18.762  0.00  0.00    +0.000 C 
ATOM     19  C   UNL     1       0.713  11.669  18.837  0.00  0.00    +0.000 A 
ATOM     20  O   UNL     1      -0.492  12.191  18.476  0.00  0.00    +0.000 OA
ATOM     21  C   UNL     1      -1.386  11.172  18.648  0.00  0.00    +0.000 A 
ATOM     22  N   UNL     1      -0.838  10.044  19.067  0.00  0.00    +0.000 NA
ATOM     23  C   UNL     1       0.508  10.355  19.213  0.00  0.00    +0.000 A 
BRANCH  21  24
ATOM     24  C   UNL     1      -2.776  11.491  18.333  0.00  0.00    +0.000 A 
ATOM     25  C   UNL     1      -3.315  11.208  17.067  0.00  0.00    +0.000 A 
ATOM     26  C   UNL     1      -4.652  11.487  16.776  0.00  0.00    +0.000 A 
ATOM     27  C   UNL     1      -5.467  12.059  17.750  0.00  0.00    +0.000 A 
ATOM     28  C   UNL     1      -4.944  12.360  19.007  0.00  0.00    +0.000 A 
ATOM     29  C   UNL     1      -3.605  12.080  19.297  0.00  0.00    +0.000 A 
ENDBRANCH  21  24
ENDBRANCH  17  23
ENDBRANCH   1  17
TORSDOF 5
ENDMDL
MODEL 5
REMARK VINA RESULT:      -8.6      1.576      2.092
REMARK  Name = 
REMARK  7 active torsions:
REMARK  status: ('A' for Active; 'I' for Inactive)
REMARK    1  A    between atoms: C_1  and  C_2
REMARK    2  A    between atoms: C_4  and  C_5
REMARK    3  A    between atoms: C_12  and  C_13
REMARK    4  A    between atoms: C_13  and  C_14
REMARK    5  A    between atoms: N_16  and  C_17
REMARK    6  A    between atoms: C_21  and  C_22
REMARK    7  A    between atoms: N_26  and  C_27
REMARK                            x       y       z     vdW  Elec       q    Type
REMARK                         _______ _______ _______ _____ _____    ______ ____
ROOT
ATOM      1  C   UNL     1       1.729   7.946  20.404  0.00  0.00    +0.000 C 
ATOM      2  O   UNL     1       1.368   6.927  20.994  0.00  0.00    +0.000 OA
ATOM      3  N   UNL     1       2.392   7.959  19.187  0.00  0.00    +0.000 N 
ATOM      4  H   UNL     1       2.941   8.800  19.008  0.00  0.00    +0.000 HD
ENDROOT
BRANCH   3   5
ATOM      5  C   UNL     1       2.746   6.786  18.495  0.00  0.00    +0.000 A 
ATOM      6  C   UNL     1       1.847   5.720  18.513  0.00  0.00    +0.000 A 
ATOM      7  C   UNL     1       2.132   4.553  17.805  0.00  0.00    +0.000 A 
ATOM      8  C   UNL     1       3.331   4.439  17.106  0.00  0.00    +0.000 A 
ATOM      9  C   UNL     1       4.242   5.506  17.060  0.00  0.00    +0.000 A 
ATOM     10  C   UNL     1       3.948   6.670  17.784  0.00  0.00    +0.000 A 
BRANCH   9  11
ATOM     11  C   UNL     1       5.450   5.438  16.243  0.00  0.00    +0.000 A 
ATOM     12  N   UNL     1       5.545   5.629  14.935  0.00  0.00    +0.000 NA
ATOM     13  N   UNL     1       6.857   5.433  14.598  0.00  0.00    +0.000 NA
ATOM     14  N   UNL     1       7.584   5.108  15.659  0.00  0.00    +0.000 NA
ATOM     15  N   UNL     1       6.701   5.090  16.684  0.00  0.00    +0.000 N 
ATOM     16  C   UNL     1       7.132   4.672  17.985  0.00  0.00    +0.000 C 
ENDBRANCH   9  11
ENDBRANCH   3   5
BRANCH   1  17
ATOM     17  C   UNL     1       1.424   9.318  20.981  0.00  0.00    +0.000 C 
BRANCH  17  23
ATOM     18  C   UNL     1      -0.790  11.581  22.229  0.00  0.00    +0.000 C 
ATOM     19  C   UNL     1      -0.642  10.894  20.936  0.00  0.00    +0.000 A 
ATOM     20  O   UNL     1      -1.607  11.156  20.011  0.00  0.00    +0.000 OA
ATOM     21  C   UNL     1      -1.272  10.399  18.924  0.00  0.00    +0.000 A 
ATOM     22  N   UNL     1      -0.161   9.699  19.081  0.00  0.00    +0.000 NA
ATOM     23  C   UNL     1       0.242   9.992  20.378  0.00  0.00    +0.000 A 
BRANCH  21  24
ATOM     24  C   UNL     1      -2.176  10.499  17.782  0.00  0.00    +0.000 A 
ATOM     25  C   UNL     1      -3.284  11.362  17.808  0.00  0.00    +0.000 A 
ATOM     26  C   UNL     1      -4.131  11.477  16.703  0.00  0.00    +0.000 A 
ATOM     27  C   UNL     1      -3.883  10.725  15.559  0.00  0.00    +0.000 A 
ATOM     28  C   UNL     1      -2.796   9.852  15.522  0.00  0.00    +0.000 A 
ATOM     29  C   UNL     1      -1.948   9.737  16.627  0.00  0.00    +0.000 A 
ENDBRANCH  21  24
ENDBRANCH  17  23
ENDBRANCH   1  17
TORSDOF 5
ENDMDL
MODEL 6
REMARK VINA RESULT:      -8.5      0.930      1.301
REMARK  Name = 
REMARK  7 active torsions:
REMARK  status: ('A' for Active; 'I' for Inactive)
REMARK    1  A    between atoms: C_1  and  C_2
REMARK    2  A    between atoms: C_4  and  C_5
REMARK    3  A    between atoms: C_12  and  C_13
REMARK    4  A    between atoms: C_13  and  C_14
REMARK    5  A    between atoms: N_16  and  C_17
REMARK    6  A    between atoms: C_21  and  C_22
REMARK    7  A    between atoms: N_26  and  C_27
REMARK                            x       y       z     vdW  Elec       q    Type
REMARK                         _______ _______ _______ _____ _____    ______ ____
ROOT
ATOM      1  C   UNL     1       1.639   7.869  20.344  0.00  0.00    +0.000 C 
ATOM      2  O   UNL     1       1.399   6.922  21.092  0.00  0.00    +0.000 OA
ATOM      3  N   UNL     1       2.249   7.761  19.105  0.00  0.00    +0.000 N 
ATOM      4  H   UNL     1       2.709   8.611  18.778  0.00  0.00    +0.000 HD
ENDROOT
BRANCH   3   5
ATOM      5  C   UNL     1       2.686   6.534  18.571  0.00  0.00    +0.000 A 
ATOM      6  C   UNL     1       1.718   5.612  18.174  0.00  0.00    +0.000 A 
ATOM      7  C   UNL     1       2.099   4.402  17.597  0.00  0.00    +0.000 A 
ATOM      8  C   UNL     1       3.449   4.098  17.447  0.00  0.00    +0.000 A 
ATOM      9  C   UNL     1       4.440   5.019  17.822  0.00  0.00    +0.000 A 
ATOM     10  C   UNL     1       4.044   6.228  18.410  0.00  0.00    +0.000 A 
BRANCH   9  11
ATOM     11  C   UNL     1       5.855   4.756  17.569  0.00  0.00    +0.000 A 
ATOM     12  N   UNL     1       6.807   4.564  18.469  0.00  0.00    +0.000 NA
ATOM     13  N   UNL     1       7.977   4.389  17.781  0.00  0.00    +0.000 NA
ATOM     14  N   UNL     1       7.784   4.483  16.472  0.00  0.00    +0.000 NA
ATOM     15  N   UNL     1       6.461   4.735  16.339  0.00  0.00    +0.000 N 
ATOM     16  C   UNL     1       5.915   4.999  15.041  0.00  0.00    +0.000 C 
ENDBRANCH   9  11
ENDBRANCH   3   5
BRANCH   1  17
ATOM     17  C   UNL     1       1.229   9.280  20.733  0.00  0.00    +0.000 C 
BRANCH  17  23
ATOM     18  C   UNL     1       2.208  11.557  18.402  0.00  0.00    +0.000 C 
ATOM     19  C   UNL     1       0.918  10.950  18.765  0.00  0.00    +0.000 A 
ATOM     20  O   UNL     1      -0.165  11.398  18.072  0.00  0.00    +0.000 OA
ATOM     21  C   UNL     1      -1.228  10.716  18.595  0.00  0.00    +0.000 A 
ATOM     22  N   UNL     1      -0.898   9.860  19.546  0.00  0.00    +0.000 NA
ATOM     23  C   UNL     1       0.475  10.015  19.681  0.00  0.00    +0.000 A 
BRANCH  21  24
ATOM     24  C   UNL     1      -2.529  11.035  18.015  0.00  0.00    +0.000 A 
ATOM     25  C   UNL     1      -2.822  10.722  16.676  0.00  0.00    +0.000 A 
ATOM     26  C   UNL     1      -4.078  11.001  16.132  0.00  0.00    +0.000 A 
ATOM     27  C   UNL     1      -5.055  11.602  16.919  0.00  0.00    +0.000 A 
ATOM     28  C   UNL     1      -4.777  11.932  18.245  0.00  0.00    +0.000 A 
ATOM     29  C   UNL     1      -3.520  11.653  18.790  0.00  0.00    +0.000 A 
ENDBRANCH  21  24
ENDBRANCH  17  23
ENDBRANCH   1  17
TORSDOF 5
ENDMDL
MODEL 7
REMARK VINA RESULT:      -8.2      1.794      3.604
REMARK  Name = 
REMARK  7 active torsions:
REMARK  status: ('A' for Active; 'I' for Inactive)
REMARK    1  A    between atoms: C_1  and  C_2
REMARK    2  A    between atoms: C_4  and  C_5
REMARK    3  A    between atoms: C_12  and  C_13
REMARK    4  A    between atoms: C_13  and  C_14
REMARK    5  A    between atoms: N_16  and  C_17
REMARK    6  A    between atoms: C_21  and  C_22
REMARK    7  A    between atoms: N_26  and  C_27
REMARK                            x       y       z     vdW  Elec       q    Type
REMARK                         _______ _______ _______ _____ _____    ______ ____
ROOT
ATOM      1  C   UNL     1       1.727   8.169  19.622  0.00  0.00    +0.000 C 
ATOM      2  O   UNL     1       1.903   8.389  18.424  0.00  0.00    +0.000 OA
ATOM      3  N   UNL     1       2.033   6.977  20.259  0.00  0.00    +0.000 N 
ATOM      4  H   UNL     1       1.512   6.804  21.119  0.00  0.00    +0.000 HD
ENDROOT
BRANCH   3   5
ATOM      5  C   UNL     1       2.569   5.864  19.584  0.00  0.00    +0.000 A 
ATOM      6  C   UNL     1       1.708   4.812  19.272  0.00  0.00    +0.000 A 
ATOM      7  C   UNL     1       2.180   3.708  18.565  0.00  0.00    +0.000 A 
ATOM      8  C   UNL     1       3.522   3.638  18.199  0.00  0.00    +0.000 A 
ATOM      9  C   UNL     1       4.402   4.694  18.487  0.00  0.00    +0.000 A 
ATOM     10  C   UNL     1       3.917   5.794  19.207  0.00  0.00    +0.000 A 
BRANCH   9  11
ATOM     11  C   UNL     1       5.784   4.681  18.014  0.00  0.00    +0.000 A 
ATOM     12  N   UNL     1       6.872   4.429  18.726  0.00  0.00    +0.000 NA
ATOM     13  N   UNL     1       7.940   4.561  17.881  0.00  0.00    +0.000 NA
ATOM     14  N   UNL     1       7.550   4.904  16.660  0.00  0.00    +0.000 NA
ATOM     15  N   UNL     1       6.203   5.001  16.748  0.00  0.00    +0.000 N 
ATOM     16  C   UNL     1       5.449   5.459  15.619  0.00  0.00    +0.000 C 
ENDBRANCH   9  11
ENDBRANCH   3   5
BRANCH   1  17
ATOM     17  C   UNL     1       1.170   9.253  20.530  0.00  0.00    +0.000 C 
BRANCH  17  23
ATOM     18  C   UNL     1      -1.465  10.202  18.596  0.00  0.00    +0.000 C 
ATOM     19  C   UNL     1      -0.229  10.864  19.043  0.00  0.00    +0.000 A 
ATOM     20  O   UNL     1      -0.026  12.124  18.570  0.00  0.00    +0.000 OA
ATOM     21  C   UNL     1       1.175  12.511  19.096  0.00  0.00    +0.000 A 
ATOM     22  N   UNL     1       1.733  11.605  19.879  0.00  0.00    +0.000 NA
ATOM     23  C   UNL     1       0.852  10.532  19.838  0.00  0.00    +0.000 A 
BRANCH  21  24
ATOM     24  C   UNL     1       1.628  13.848  18.719  0.00  0.00    +0.000 A 
ATOM     25  C   UNL     1       0.838  14.980  18.978  0.00  0.00    +0.000 A 
ATOM     26  C   UNL     1       1.285  16.260  18.644  0.00  0.00    +0.000 A 
ATOM     27  C   UNL     1       2.529  16.423  18.040  0.00  0.00    +0.000 A 
ATOM     28  C   UNL     1       3.319  15.308  17.762  0.00  0.00    +0.000 A 
ATOM     29  C   UNL     1       2.871  14.027  18.097  0.00  0.00    +0.000 A 
ENDBRANCH  21  24
ENDBRANCH  17  23
ENDBRANCH   1  17
TORSDOF 5
ENDMDL
MODEL 8
REMARK VINA RESULT:      -8.2      0.932      1.570
REMARK  Name = 
REMARK  7 active torsions:
REMARK  status: ('A' for Active; 'I' for Inactive)
REMARK    1  A    between atoms: C_1  and  C_2
REMARK    2  A    between atoms: C_4  and  C_5
REMARK    3  A    between atoms: C_12  and  C_13
REMARK    4  A    between atoms: C_13  and  C_14
REMARK    5  A    between atoms: N_16  and  C_17
REMARK    6  A    between atoms: C_21  and  C_22
REMARK    7  A    between atoms: N_26  and  C_27
REMARK                            x       y       z     vdW  Elec       q    Type
REMARK                         _______ _______ _______ _____ _____    ______ ____
ROOT
ATOM      1  C   UNL     1       2.322   8.871  18.220  0.00  0.00    +0.000 C 
ATOM      2  O   UNL     1       2.589   8.908  17.019  0.00  0.00    +0.000 OA
ATOM      3  N   UNL     1       2.424   7.742  19.016  0.00  0.00    +0.000 N 
ATOM      4  H   UNL     1       1.841   7.754  19.853  0.00  0.00    +0.000 HD
ENDROOT
BRANCH   3   5
ATOM      5  C   UNL     1       2.831   6.489  18.521  0.00  0.00    +0.000 A 
ATOM      6  C   UNL     1       1.842   5.554  18.217  0.00  0.00    +0.000 A 
ATOM      7  C   UNL     1       2.191   4.316  17.682  0.00  0.00    +0.000 A 
ATOM      8  C   UNL     1       3.532   3.998  17.481  0.00  0.00    +0.000 A 
ATOM      9  C   UNL     1       4.543   4.931  17.762  0.00  0.00    +0.000 A 
ATOM     10  C   UNL     1       4.179   6.169  18.310  0.00  0.00    +0.000 A 
BRANCH   9  11
ATOM     11  C   UNL     1       5.942   4.650  17.454  0.00  0.00    +0.000 A 
ATOM     12  N   UNL     1       6.915   4.385  18.315  0.00  0.00    +0.000 NA
ATOM     13  N   UNL     1       8.060   4.221  17.584  0.00  0.00    +0.000 NA
ATOM     14  N   UNL     1       7.833   4.392  16.288  0.00  0.00    +0.000 NA
ATOM     15  N   UNL     1       6.514   4.682  16.208  0.00  0.00    +0.000 N 
ATOM     16  C   UNL     1       5.938   5.030  14.943  0.00  0.00    +0.000 C 
ENDBRANCH   9  11
ENDBRANCH   3   5
BRANCH   1  17
ATOM     17  C   UNL     1       1.879  10.129  18.948  0.00  0.00    +0.000 C 
BRANCH  17  23
ATOM     18  C   UNL     1      -0.161   8.897  21.378  0.00  0.00    +0.000 C 
ATOM     19  C   UNL     1      -0.380   9.694  20.160  0.00  0.00    +0.000 A 
ATOM     20  O   UNL     1      -1.676   9.995  19.873  0.00  0.00    +0.000 OA
ATOM     21  C   UNL     1      -1.626  10.706  18.707  0.00  0.00    +0.000 A 
ATOM     22  N   UNL     1      -0.400  10.896  18.249  0.00  0.00    +0.000 NA
ATOM     23  C   UNL     1       0.409  10.232  19.162  0.00  0.00    +0.000 A 
BRANCH  21  24
ATOM     24  C   UNL     1      -2.914  11.142  18.177  0.00  0.00    +0.000 A 
ATOM     25  C   UNL     1      -3.282  10.868  16.849  0.00  0.00    +0.000 A 
ATOM     26  C   UNL     1      -4.527  11.260  16.352  0.00  0.00    +0.000 A 
ATOM     27  C   UNL     1      -5.419  11.938  17.178  0.00  0.00    +0.000 A 
ATOM     28  C   UNL     1      -5.064  12.232  18.495  0.00  0.00    +0.000 A 
ATOM     29  C   UNL     1      -3.818  11.838  18.992  0.00  0.00    +0.000 A 
ENDBRANCH  21  24
ENDBRANCH  17  23
ENDBRANCH   1  17
TORSDOF 5
ENDMDL
MODEL 9
REMARK VINA RESULT:      -8.1      1.166      1.805
REMARK  Name = 
REMARK  7 active torsions:
REMARK  status: ('A' for Active; 'I' for Inactive)
REMARK    1  A    between atoms: C_1  and  C_2
REMARK    2  A    between atoms: C_4  and  C_5
REMARK    3  A    between atoms: C_12  and  C_13
REMARK    4  A    between atoms: C_13  and  C_14
REMARK    5  A    between atoms: N_16  and  C_17
REMARK    6  A    between atoms: C_21  and  C_22
REMARK    7  A    between atoms: N_26  and  C_27
REMARK                            x       y       z     vdW  Elec       q    Type
REMARK                         _______ _______ _______ _____ _____    ______ ____
ROOT
ATOM      1  C   UNL     1       1.735   7.749  20.253  0.00  0.00    +0.000 C 
ATOM      2  O   UNL     1       1.658   6.787  21.017  0.00  0.00    +0.000 OA
ATOM      3  N   UNL     1       2.200   7.685  18.949  0.00  0.00    +0.000 N 
ATOM      4  H   UNL     1       2.552   8.567  18.576  0.00  0.00    +0.000 HD
ENDROOT
BRANCH   3   5
ATOM      5  C   UNL     1       2.661   6.494  18.357  0.00  0.00    +0.000 A 
ATOM      6  C   UNL     1       1.869   5.353  18.483  0.00  0.00    +0.000 A 
ATOM      7  C   UNL     1       2.259   4.161  17.876  0.00  0.00    +0.000 A 
ATOM      8  C   UNL     1       3.459   4.099  17.172  0.00  0.00    +0.000 A 
ATOM      9  C   UNL     1       4.262   5.240  17.017  0.00  0.00    +0.000 A 
ATOM     10  C   UNL     1       3.863   6.430  17.640  0.00  0.00    +0.000 A 
BRANCH   9  11
ATOM     11  C   UNL     1       5.465   5.214  16.190  0.00  0.00    +0.000 A 
ATOM     12  N   UNL     1       5.534   5.319  14.871  0.00  0.00    +0.000 NA
ATOM     13  N   UNL     1       6.854   5.210  14.530  0.00  0.00    +0.000 NA
ATOM     14  N   UNL     1       7.614   5.022  15.601  0.00  0.00    +0.000 NA
ATOM     15  N   UNL     1       6.744   5.003  16.637  0.00  0.00    +0.000 N 
ATOM     16  C   UNL     1       7.219   4.715  17.959  0.00  0.00    +0.000 C 
ENDBRANCH   9  11
ENDBRANCH   3   5
BRANCH   1  17
ATOM     17  C   UNL     1       1.269   9.125  20.699  0.00  0.00    +0.000 C 
BRANCH  17  23
ATOM     18  C   UNL     1       2.220  11.330  18.287  0.00  0.00    +0.000 C 
ATOM     19  C   UNL     1       0.927  10.779  18.723  0.00  0.00    +0.000 A 
ATOM     20  O   UNL     1      -0.171  11.261  18.077  0.00  0.00    +0.000 OA
ATOM     21  C   UNL     1      -1.232  10.629  18.661  0.00  0.00    +0.000 A 
ATOM     22  N   UNL     1      -0.890   9.773  19.609  0.00  0.00    +0.000 NA
ATOM     23  C   UNL     1       0.494   9.875  19.673  0.00  0.00    +0.000 A 
BRANCH  21  24
ATOM     24  C   UNL     1      -2.548  10.991  18.141  0.00  0.00    +0.000 A 
ATOM     25  C   UNL     1      -2.925  10.656  16.830  0.00  0.00    +0.000 A 
ATOM     26  C   UNL     1      -4.195  10.977  16.343  0.00  0.00    +0.000 A 
ATOM     27  C   UNL     1      -5.101  11.644  17.162  0.00  0.00    +0.000 A 
ATOM     28  C   UNL     1      -4.737  11.997  18.461  0.00  0.00    +0.000 A 
ATOM     29  C   UNL     1      -3.467  11.675  18.948  0.00  0.00    +0.000 A 
ENDBRANCH  21  24
ENDBRANCH  17  23
ENDBRANCH   1  17
TORSDOF 5
ENDMDL
