MODEL 1
REMARK VINA RESULT:      -9.4      0.000      0.000
REMARK  Name = 
REMARK  6 active torsions:
REMARK  status: ('A' for Active; 'I' for Inactive)
REMARK    1  A    between atoms: C_2  and  C_3
REMARK    2  A    between atoms: C_3  and  C_4
REMARK    3  A    between atoms: C_4  and  N_5
REMARK    4  A    between atoms: N_12  and  C_13
REMARK    5  A    between atoms: C_18  and  C_19
REMARK    6  A    between atoms: C_19  and  C_20
REMARK                            x       y       z     vdW  Elec       q    Type
REMARK                         _______ _______ _______ _____ _____    ______ ____
ROOT
ATOM      1  C   UNL     1       7.732   7.856  17.975  0.00  0.00    +0.000 A 
ATOM      2  C   UNL     1       8.383   6.985  18.857  0.00  0.00    +0.000 A 
ATOM      3  C   UNL     1       7.894   5.703  19.138  0.00  0.00    +0.000 A 
ATOM      4  C   UNL     1       6.709   5.339  18.509  0.00  0.00    +0.000 A 
ATOM      5  N   UNL     1       5.989   4.175  18.514  0.00  0.00    +0.000 N 
ATOM      6  C   UNL     1       4.856   4.365  17.763  0.00  0.00    +0.000 A 
ATOM      7  N   UNL     1       4.839   5.577  17.239  0.00  0.00    +0.000 NA
ATOM      8  C   UNL     1       5.993   6.190  17.678  0.00  0.00    +0.000 A 
ATOM      9  C   UNL     1       6.500   7.476  17.411  0.00  0.00    +0.000 A 
ATOM     10  H   UNL     1       6.245   3.320  18.990  0.00  0.00    +0.000 HD
ENDROOT
BRANCH   1  13
ATOM     11  O   UNL     1       9.100   9.819  19.677  0.00  0.00    +0.000 OA
ATOM     12  C   UNL     1       8.882  10.013  18.485  0.00  0.00    +0.000 C 
ATOM     13  N   UNL     1       8.268   9.119  17.616  0.00  0.00    +0.000 N 
ATOM     14  H   UNL     1       8.327   9.320  16.626  0.00  0.00    +0.000 HD
BRANCH  12  15
ATOM     15  C   UNL     1       9.298  11.307  17.810  0.00  0.00    +0.000 C 
BRANCH  15  16
ATOM     16  C   UNL     1      10.797  11.542  18.007  0.00  0.00    +0.000 C 
BRANCH  16  17
ATOM     17  N   UNL     1      11.282  12.536  17.058  0.00  0.00    +0.000 N 
ATOM     18  C   UNL     1      11.459  13.800  17.615  0.00  0.00    +0.000 A 
ATOM     19  N   UNL     1      11.824  13.939  18.898  0.00  0.00    +0.000 NA
ATOM     20  C   UNL     1      11.965  15.191  19.368  0.00  0.00    +0.000 A 
ATOM     21  C   UNL     1      11.764  16.312  18.604  0.00  0.00    +0.000 A 
ATOM     22  C   UNL     1      11.393  16.067  17.308  0.00  0.00    +0.000 A 
ATOM     23  N   UNL     1      11.228  14.834  16.793  0.00  0.00    +0.000 NA
ATOM     24  H   UNL     1      10.697  12.693  16.243  0.00  0.00    +0.000 HD
ENDBRANCH  16  17
ENDBRANCH  15  16
ENDBRANCH  12  15
ENDBRANCH   1  13
BRANCH   6  25
ATOM     25  C   UNL     1       3.812   3.302  17.645  0.00  0.00    +0.000 C 
BRANCH  25  26
ATOM     26  C   UNL     1       2.914   3.211  18.852  0.00  0.00    +0.000 A 
ATOM     27  C   UNL     1       3.377   2.637  20.046  0.00  0.00    +0.000 A 
ATOM     28  C   UNL     1       2.541   2.560  21.163  0.00  0.00    +0.000 A 
ATOM     29  C   UNL     1       1.240   3.061  21.104  0.00  0.00    +0.000 A 
ATOM     30  C   UNL     1       0.770   3.640  19.926  0.00  0.00    +0.000 A 
ATOM     31  C   UNL     1       1.610   3.713  18.815  0.00  0.00    +0.000 A 
ATOM     32  F   UNL     1       1.147   4.277  17.689  0.00  0.00    +0.000 F 
ENDBRANCH  25  26
ENDBRANCH   6  25
TORSDOF 6
ENDMDL
MODEL 2
REMARK VINA RESULT:      -9.1      6.792     10.043
REMARK  Name = 
REMARK  6 active torsions:
REMARK  status: ('A' for Active; 'I' for Inactive)
REMARK    1  A    between atoms: C_2  and  C_3
REMARK    2  A    between atoms: C_3  and  C_4
REMARK    3  A    between atoms: C_4  and  N_5
REMARK    4  A    between atoms: N_12  and  C_13
REMARK    5  A    between atoms: C_18  and  C_19
REMARK    6  A    between atoms: C_19  and  C_20
REMARK                            x       y       z     vdW  Elec       q    Type
REMARK                         _______ _______ _______ _____ _____    ______ ____
ROOT
ATOM      1  C   UNL     1       2.161   6.695  19.922  0.00  0.00    +0.000 A 
ATOM      2  C   UNL     1       2.688   6.894  18.639  0.00  0.00    +0.000 A 
ATOM      3  C   UNL     1       2.488   8.081  17.925  0.00  0.00    +0.000 A 
ATOM      4  C   UNL     1       1.719   9.057  18.546  0.00  0.00    +0.000 A 
ATOM      5  N   UNL     1       1.370  10.327  18.170  0.00  0.00    +0.000 N 
ATOM      6  C   UNL     1       0.542  10.850  19.131  0.00  0.00    +0.000 A 
ATOM      7  N   UNL     1       0.382   9.996  20.126  0.00  0.00    +0.000 NA
ATOM      8  C   UNL     1       1.121   8.884  19.787  0.00  0.00    +0.000 A 
ATOM      9  C   UNL     1       1.332   7.681  20.488  0.00  0.00    +0.000 A 
ATOM     10  H   UNL     1       1.669  10.800  17.328  0.00  0.00    +0.000 HD
ENDROOT
BRANCH   1  13
ATOM     11  O   UNL     1       0.786   4.101  19.873  0.00  0.00    +0.000 OA
ATOM     12  C   UNL     1       1.721   4.342  20.631  0.00  0.00    +0.000 C 
ATOM     13  N   UNL     1       2.435   5.533  20.687  0.00  0.00    +0.000 N 
ATOM     14  H   UNL     1       3.299   5.532  21.213  0.00  0.00    +0.000 HD
BRANCH  12  15
ATOM     15  C   UNL     1       2.222   3.303  21.617  0.00  0.00    +0.000 C 
BRANCH  15  16
ATOM     16  C   UNL     1       3.499   2.649  21.085  0.00  0.00    +0.000 C 
BRANCH  16  17
ATOM     17  N   UNL     1       3.338   2.299  19.678  0.00  0.00    +0.000 N 
ATOM     18  C   UNL     1       4.063   3.117  18.814  0.00  0.00    +0.000 A 
ATOM     19  N   UNL     1       5.237   3.644  19.192  0.00  0.00    +0.000 NA
ATOM     20  C   UNL     1       5.874   4.431  18.306  0.00  0.00    +0.000 A 
ATOM     21  C   UNL     1       5.387   4.707  17.054  0.00  0.00    +0.000 A 
ATOM     22  C   UNL     1       4.182   4.124  16.763  0.00  0.00    +0.000 A 
ATOM     23  N   UNL     1       3.501   3.337  17.617  0.00  0.00    +0.000 NA
ATOM     24  H   UNL     1       2.388   2.325  19.321  0.00  0.00    +0.000 HD
ENDBRANCH  16  17
ENDBRANCH  15  16
ENDBRANCH  12  15
ENDBRANCH   1  13
BRANCH   6  25
ATOM     25  C   UNL     1      -0.086  12.196  18.970  0.00  0.00    +0.000 C 
BRANCH  25  26
ATOM     26  C   UNL     1      -1.591  12.167  19.055  0.00  0.00    +0.000 A 
ATOM     27  C   UNL     1      -2.257  12.762  20.138  0.00  0.00    +0.000 A 
ATOM     28  C   UNL     1      -3.652  12.737  20.209  0.00  0.00    +0.000 A 
ATOM     29  C   UNL     1      -4.397  12.127  19.199  0.00  0.00    +0.000 A 
ATOM     30  C   UNL     1      -3.747  11.537  18.115  0.00  0.00    +0.000 A 
ATOM     31  C   UNL     1      -2.355  11.566  18.051  0.00  0.00    +0.000 A 
ATOM     32  F   UNL     1      -1.742  10.999  17.000  0.00  0.00    +0.000 F 
ENDBRANCH  25  26
ENDBRANCH   6  25
TORSDOF 6
ENDMDL
MODEL 3
REMARK VINA RESULT:      -8.9      6.813     10.426
REMARK  Name = 
REMARK  6 active torsions:
REMARK  status: ('A' for Active; 'I' for Inactive)
REMARK    1  A    between atoms: C_2  and  C_3
REMARK    2  A    between atoms: C_3  and  C_4
REMARK    3  A    between atoms: C_4  and  N_5
REMARK    4  A    between atoms: N_12  and  C_13
REMARK    5  A    between atoms: C_18  and  C_19
REMARK    6  A    between atoms: C_19  and  C_20
REMARK                            x       y       z     vdW  Elec       q    Type
REMARK                         _______ _______ _______ _____ _____    ______ ____
ROOT
ATOM      1  C   UNL     1       2.584   6.885  18.735  0.00  0.00    +0.000 A 
ATOM      2  C   UNL     1       2.205   6.699  20.070  0.00  0.00    +0.000 A 
ATOM      3  C   UNL     1       1.456   7.649  20.774  0.00  0.00    +0.000 A 
ATOM      4  C   UNL     1       1.118   8.808  20.084  0.00  0.00    +0.000 A 
ATOM      5  N   UNL     1       0.369   9.899  20.437  0.00  0.00    +0.000 N 
ATOM      6  C   UNL     1       0.395  10.794  19.397  0.00  0.00    +0.000 A 
ATOM      7  N   UNL     1       1.083  10.309  18.379  0.00  0.00    +0.000 NA
ATOM      8  C   UNL     1       1.524   9.068  18.783  0.00  0.00    +0.000 A 
ATOM      9  C   UNL     1       2.280   8.100  18.094  0.00  0.00    +0.000 A 
ATOM     10  H   UNL     1      -0.119  10.026  21.313  0.00  0.00    +0.000 HD
ENDROOT
BRANCH   1  13
ATOM     11  O   UNL     1       5.319   5.877  19.087  0.00  0.00    +0.000 OA
ATOM     12  C   UNL     1       4.575   5.478  18.196  0.00  0.00    +0.000 C 
ATOM     13  N   UNL     1       3.264   5.889  17.989  0.00  0.00    +0.000 N 
ATOM     14  H   UNL     1       2.703   5.344  17.347  0.00  0.00    +0.000 HD
BRANCH  12  15
ATOM     15  C   UNL     1       5.036   4.436  17.194  0.00  0.00    +0.000 C 
BRANCH  15  16
ATOM     16  C   UNL     1       4.037   3.278  17.147  0.00  0.00    +0.000 C 
BRANCH  16  17
ATOM     17  N   UNL     1       4.170   2.447  18.337  0.00  0.00    +0.000 N 
ATOM     18  C   UNL     1       3.167   2.656  19.279  0.00  0.00    +0.000 A 
ATOM     19  N   UNL     1       1.927   2.996  18.896  0.00  0.00    +0.000 NA
ATOM     20  C   UNL     1       1.014   3.191  19.865  0.00  0.00    +0.000 A 
ATOM     21  C   UNL     1       1.288   3.052  21.202  0.00  0.00    +0.000 A 
ATOM     22  C   UNL     1       2.581   2.704  21.491  0.00  0.00    +0.000 A 
ATOM     23  N   UNL     1       3.533   2.507  20.560  0.00  0.00    +0.000 NA
ATOM     24  H   UNL     1       5.037   2.551  18.855  0.00  0.00    +0.000 HD
ENDBRANCH  16  17
ENDBRANCH  15  16
ENDBRANCH  12  15
ENDBRANCH   1  13
BRANCH   6  25
ATOM     25  C   UNL     1      -0.258  12.134  19.505  0.00  0.00    +0.000 C 
BRANCH  25  26
ATOM     26  C   UNL     1      -1.751  12.089  19.302  0.00  0.00    +0.000 A 
ATOM     27  C   UNL     1      -2.299  11.476  18.165  0.00  0.00    +0.000 A 
ATOM     28  C   UNL     1      -3.684  11.433  17.985  0.00  0.00    +0.000 A 
ATOM     29  C   UNL     1      -4.535  11.992  18.938  0.00  0.00    +0.000 A 
ATOM     30  C   UNL     1      -4.003  12.598  20.076  0.00  0.00    +0.000 A 
ATOM     31  C   UNL     1      -2.620  12.638  20.249  0.00  0.00    +0.000 A 
ATOM     32  F   UNL     1      -2.121  13.219  21.350  0.00  0.00    +0.000 F 
ENDBRANCH  25  26
ENDBRANCH   6  25
TORSDOF 6
ENDMDL
MODEL 4
REMARK VINA RESULT:      -8.9      6.621     10.329
REMARK  Name = 
REMARK  6 active torsions:
REMARK  status: ('A' for Active; 'I' for Inactive)
REMARK    1  A    between atoms: C_2  and  C_3
REMARK    2  A    between atoms: C_3  and  C_4
REMARK    3  A    between atoms: C_4  and  N_5
REMARK    4  A    between atoms: N_12  and  C_13
REMARK    5  A    between atoms: C_18  and  C_19
REMARK    6  A    between atoms: C_19  and  C_20
REMARK                            x       y       z     vdW  Elec       q    Type
REMARK                         _______ _______ _______ _____ _____    ______ ____
ROOT
ATOM      1  C   UNL     1       2.617   6.921  18.769  0.00  0.00    +0.000 A 
ATOM      2  C   UNL     1       2.229   6.916  20.114  0.00  0.00    +0.000 A 
ATOM      3  C   UNL     1       1.474   7.951  20.678  0.00  0.00    +0.000 A 
ATOM      4  C   UNL     1       1.140   9.005  19.835  0.00  0.00    +0.000 A 
ATOM      5  N   UNL     1       0.388  10.133  20.032  0.00  0.00    +0.000 N 
ATOM      6  C   UNL     1       0.421  10.879  18.880  0.00  0.00    +0.000 A 
ATOM      7  N   UNL     1       1.117  10.262  17.942  0.00  0.00    +0.000 NA
ATOM      8  C   UNL     1       1.556   9.088  18.514  0.00  0.00    +0.000 A 
ATOM      9  C   UNL     1       2.317   8.037  17.967  0.00  0.00    +0.000 A 
ATOM     10  H   UNL     1      -0.106  10.377  20.879  0.00  0.00    +0.000 HD
ENDROOT
BRANCH   1  13
ATOM     11  O   UNL     1       5.306   6.874  17.591  0.00  0.00    +0.000 OA
ATOM     12  C   UNL     1       4.571   5.891  17.605  0.00  0.00    +0.000 C 
ATOM     13  N   UNL     1       3.303   5.834  18.169  0.00  0.00    +0.000 N 
ATOM     14  H   UNL     1       2.887   4.918  18.286  0.00  0.00    +0.000 HD
BRANCH  12  15
ATOM     15  C   UNL     1       5.007   4.574  16.990  0.00  0.00    +0.000 C 
BRANCH  15  16
ATOM     16  C   UNL     1       3.874   3.550  17.087  0.00  0.00    +0.000 C 
BRANCH  16  17
ATOM     17  N   UNL     1       4.108   2.642  18.203  0.00  0.00    +0.000 N 
ATOM     18  C   UNL     1       3.149   2.735  19.209  0.00  0.00    +0.000 A 
ATOM     19  N   UNL     1       1.877   3.042  18.915  0.00  0.00    +0.000 NA
ATOM     20  C   UNL     1       1.009   3.122  19.940  0.00  0.00    +0.000 A 
ATOM     21  C   UNL     1       1.361   2.901  21.247  0.00  0.00    +0.000 A 
ATOM     22  C   UNL     1       2.682   2.595  21.444  0.00  0.00    +0.000 A 
ATOM     23  N   UNL     1       3.590   2.512  20.454  0.00  0.00    +0.000 NA
ATOM     24  H   UNL     1       4.996   2.751  18.684  0.00  0.00    +0.000 HD
ENDBRANCH  16  17
ENDBRANCH  15  16
ENDBRANCH  12  15
ENDBRANCH   1  13
BRANCH   6  25
ATOM     25  C   UNL     1      -0.233  12.221  18.802  0.00  0.00    +0.000 C 
BRANCH  25  26
ATOM     26  C   UNL     1      -1.734  12.161  18.927  0.00  0.00    +0.000 A 
ATOM     27  C   UNL     1      -2.381  12.704  20.047  0.00  0.00    +0.000 A 
ATOM     28  C   UNL     1      -3.773  12.650  20.154  0.00  0.00    +0.000 A 
ATOM     29  C   UNL     1      -4.534  12.063  19.143  0.00  0.00    +0.000 A 
ATOM     30  C   UNL     1      -3.904  11.525  18.022  0.00  0.00    +0.000 A 
ATOM     31  C   UNL     1      -2.514  11.582  17.922  0.00  0.00    +0.000 A 
ATOM     32  F   UNL     1      -1.921  11.065  16.835  0.00  0.00    +0.000 F 
ENDBRANCH  25  26
ENDBRANCH   6  25
TORSDOF 6
ENDMDL
MODEL 5
REMARK VINA RESULT:      -8.8      1.557      1.563
REMARK  Name = 
REMARK  6 active torsions:
REMARK  status: ('A' for Active; 'I' for Inactive)
REMARK    1  A    between atoms: C_2  and  C_3
REMARK    2  A    between atoms: C_3  and  C_4
REMARK    3  A    between atoms: C_4  and  N_5
REMARK    4  A    between atoms: N_12  and  C_13
REMARK    5  A    between atoms: C_18  and  C_19
REMARK    6  A    between atoms: C_19  and  C_20
REMARK                            x       y       z     vdW  Elec       q    Type
REMARK                         _______ _______ _______ _____ _____    ______ ____
ROOT
ATOM      1  C   UNL     1       7.630   7.831  17.934  0.00  0.00    +0.000 A 
ATOM      2  C   UNL     1       8.357   6.952  18.746  0.00  0.00    +0.000 A 
ATOM      3  C   UNL     1       7.921   5.649  19.014  0.00  0.00    +0.000 A 
ATOM      4  C   UNL     1       6.711   5.270  18.444  0.00  0.00    +0.000 A 
ATOM      5  N   UNL     1       6.025   4.085  18.454  0.00  0.00    +0.000 N 
ATOM      6  C   UNL     1       4.844   4.265  17.779  0.00  0.00    +0.000 A 
ATOM      7  N   UNL     1       4.762   5.492  17.298  0.00  0.00    +0.000 NA
ATOM      8  C   UNL     1       5.922   6.125  17.687  0.00  0.00    +0.000 A 
ATOM      9  C   UNL     1       6.377   7.433  17.432  0.00  0.00    +0.000 A 
ATOM     10  H   UNL     1       6.333   3.223  18.885  0.00  0.00    +0.000 HD
ENDROOT
BRANCH   1  13
ATOM     11  O   UNL     1       9.091   9.758  19.600  0.00  0.00    +0.000 OA
ATOM     12  C   UNL     1       8.773   9.993  18.438  0.00  0.00    +0.000 C 
ATOM     13  N   UNL     1       8.109   9.120  17.586  0.00  0.00    +0.000 N 
ATOM     14  H   UNL     1       8.081   9.361  16.603  0.00  0.00    +0.000 HD
BRANCH  12  15
ATOM     15  C   UNL     1       9.105  11.322  17.786  0.00  0.00    +0.000 C 
BRANCH  15  16
ATOM     16  C   UNL     1       9.648  12.298  18.832  0.00  0.00    +0.000 C 
BRANCH  16  17
ATOM     17  N   UNL     1      10.026  13.556  18.201  0.00  0.00    +0.000 N 
ATOM     18  C   UNL     1       9.323  14.657  18.684  0.00  0.00    +0.000 A 
ATOM     19  N   UNL     1       8.913  14.702  19.960  0.00  0.00    +0.000 NA
ATOM     20  C   UNL     1       8.231  15.794  20.351  0.00  0.00    +0.000 A 
ATOM     21  C   UNL     1       7.947  16.846  19.518  0.00  0.00    +0.000 A 
ATOM     22  C   UNL     1       8.406  16.705  18.235  0.00  0.00    +0.000 A 
ATOM     23  N   UNL     1       9.085  15.629  17.793  0.00  0.00    +0.000 NA
ATOM     24  H   UNL     1       9.911  13.599  17.193  0.00  0.00    +0.000 HD
ENDBRANCH  16  17
ENDBRANCH  15  16
ENDBRANCH  12  15
ENDBRANCH   1  13
BRANCH   6  25
ATOM     25  C   UNL     1       3.824   3.176  17.689  0.00  0.00    +0.000 C 
BRANCH  25  26
ATOM     26  C   UNL     1       2.908   3.115  18.884  0.00  0.00    +0.000 A 
ATOM     27  C   UNL     1       3.365   2.603  20.108  0.00  0.00    +0.000 A 
ATOM     28  C   UNL     1       2.513   2.554  21.215  0.00  0.00    +0.000 A 
ATOM     29  C   UNL     1       1.202   3.020  21.115  0.00  0.00    +0.000 A 
ATOM     30  C   UNL     1       0.738   3.537  19.905  0.00  0.00    +0.000 A 
ATOM     31  C   UNL     1       1.594   3.582  18.805  0.00  0.00    +0.000 A 
ATOM     32  F   UNL     1       1.137   4.087  17.649  0.00  0.00    +0.000 F 
ENDBRANCH  25  26
ENDBRANCH   6  25
TORSDOF 6
ENDMDL
MODEL 6
REMARK VINA RESULT:      -8.8      6.591      9.572
REMARK  Name = 
REMARK  6 active torsions:
REMARK  status: ('A' for Active; 'I' for Inactive)
REMARK    1  A    between atoms: C_2  and  C_3
REMARK    2  A    between atoms: C_3  and  C_4
REMARK    3  A    between atoms: C_4  and  N_5
REMARK    4  A    between atoms: N_12  and  C_13
REMARK    5  A    between atoms: C_18  and  C_19
REMARK    6  A    between atoms: C_19  and  C_20
REMARK                            x       y       z     vdW  Elec       q    Type
REMARK                         _______ _______ _______ _____ _____    ______ ____
ROOT
ATOM      1  C   UNL     1       0.808   9.703  19.732  0.00  0.00    +0.000 A 
ATOM      2  C   UNL     1       1.288   9.900  18.431  0.00  0.00    +0.000 A 
ATOM      3  C   UNL     1       2.072   8.946  17.772  0.00  0.00    +0.000 A 
ATOM      4  C   UNL     1       2.372   7.790  18.483  0.00  0.00    +0.000 A 
ATOM      5  N   UNL     1       3.057   6.655  18.141  0.00  0.00    +0.000 N 
ATOM      6  C   UNL     1       3.113   5.836  19.241  0.00  0.00    +0.000 A 
ATOM      7  N   UNL     1       2.458   6.371  20.256  0.00  0.00    +0.000 NA
ATOM      8  C   UNL     1       1.976   7.577  19.796  0.00  0.00    +0.000 A 
ATOM      9  C   UNL     1       1.190   8.551  20.443  0.00  0.00    +0.000 A 
ATOM     10  H   UNL     1       3.455   6.452  17.234  0.00  0.00    +0.000 HD
ENDROOT
BRANCH   1  13
ATOM     11  O   UNL     1       1.488  12.166  21.179  0.00  0.00    +0.000 OA
ATOM     12  C   UNL     1       0.335  11.761  21.065  0.00  0.00    +0.000 C 
ATOM     13  N   UNL     1      -0.061  10.624  20.372  0.00  0.00    +0.000 N 
ATOM     14  H   UNL     1      -1.050  10.511  20.190  0.00  0.00    +0.000 HD
BRANCH  12  15
ATOM     15  C   UNL     1      -0.828  12.511  21.688  0.00  0.00    +0.000 C 
BRANCH  15  16
ATOM     16  C   UNL     1      -1.662  13.185  20.597  0.00  0.00    +0.000 C 
BRANCH  16  17
ATOM     17  N   UNL     1      -2.941  12.501  20.445  0.00  0.00    +0.000 N 
ATOM     18  C   UNL     1      -3.176  12.038  19.153  0.00  0.00    +0.000 A 
ATOM     19  N   UNL     1      -2.161  11.635  18.374  0.00  0.00    +0.000 NA
ATOM     20  C   UNL     1      -2.466  11.209  17.135  0.00  0.00    +0.000 A 
ATOM     21  C   UNL     1      -3.746  11.164  16.644  0.00  0.00    +0.000 A 
ATOM     22  C   UNL     1      -4.712  11.598  17.514  0.00  0.00    +0.000 A 
ATOM     23  N   UNL     1      -4.457  12.041  18.760  0.00  0.00    +0.000 NA
ATOM     24  H   UNL     1      -3.765  13.047  20.677  0.00  0.00    +0.000 HD
ENDBRANCH  16  17
ENDBRANCH  15  16
ENDBRANCH  12  15
ENDBRANCH   1  13
BRANCH   6  25
ATOM     25  C   UNL     1       3.874   4.550  19.218  0.00  0.00    +0.000 C 
BRANCH  25  26
ATOM     26  C   UNL     1       5.020   4.553  18.239  0.00  0.00    +0.000 A 
ATOM     27  C   UNL     1       6.289   5.009  18.627  0.00  0.00    +0.000 A 
ATOM     28  C   UNL     1       7.350   5.004  17.717  0.00  0.00    +0.000 A 
ATOM     29  C   UNL     1       7.158   4.537  16.416  0.00  0.00    +0.000 A 
ATOM     30  C   UNL     1       5.903   4.075  16.021  0.00  0.00    +0.000 A 
ATOM     31  C   UNL     1       4.850   4.083  16.934  0.00  0.00    +0.000 A 
ATOM     32  F   UNL     1       3.649   3.631  16.543  0.00  0.00    +0.000 F 
ENDBRANCH  25  26
ENDBRANCH   6  25
TORSDOF 6
ENDMDL
MODEL 7
REMARK VINA RESULT:      -8.8      6.024     10.326
REMARK  Name = 
REMARK  6 active torsions:
REMARK  status: ('A' for Active; 'I' for Inactive)
REMARK    1  A    between atoms: C_2  and  C_3
REMARK    2  A    between atoms: C_3  and  C_4
REMARK    3  A    between atoms: C_4  and  N_5
REMARK    4  A    between atoms: N_12  and  C_13
REMARK    5  A    between atoms: C_18  and  C_19
REMARK    6  A    between atoms: C_19  and  C_20
REMARK                            x       y       z     vdW  Elec       q    Type
REMARK                         _______ _______ _______ _____ _____    ______ ____
ROOT
ATOM      1  C   UNL     1       2.216   6.605  19.838  0.00  0.00    +0.000 A 
ATOM      2  C   UNL     1       2.599   6.687  18.494  0.00  0.00    +0.000 A 
ATOM      3  C   UNL     1       2.473   7.867  17.751  0.00  0.00    +0.000 A 
ATOM      4  C   UNL     1       1.926   8.960  18.413  0.00  0.00    +0.000 A 
ATOM      5  N   UNL     1       1.707  10.253  18.019  0.00  0.00    +0.000 N 
ATOM      6  C   UNL     1       1.084  10.917  19.047  0.00  0.00    +0.000 A 
ATOM      7  N   UNL     1       0.938  10.126  20.095  0.00  0.00    +0.000 NA
ATOM      8  C   UNL     1       1.471   8.911  19.723  0.00  0.00    +0.000 A 
ATOM      9  C   UNL     1       1.605   7.713  20.452  0.00  0.00    +0.000 A 
ATOM     10  H   UNL     1       1.958  10.654  17.125  0.00  0.00    +0.000 HD
ENDROOT
BRANCH   1  13
ATOM     11  O   UNL     1       0.705   4.087  19.822  0.00  0.00    +0.000 OA
ATOM     12  C   UNL     1       1.650   4.288  20.579  0.00  0.00    +0.000 C 
ATOM     13  N   UNL     1       2.425   5.440  20.621  0.00  0.00    +0.000 N 
ATOM     14  H   UNL     1       3.288   5.401  21.150  0.00  0.00    +0.000 HD
BRANCH  12  15
ATOM     15  C   UNL     1       2.092   3.238  21.581  0.00  0.00    +0.000 C 
BRANCH  15  16
ATOM     16  C   UNL     1       3.433   2.639  21.155  0.00  0.00    +0.000 C 
BRANCH  16  17
ATOM     17  N   UNL     1       3.372   2.203  19.765  0.00  0.00    +0.000 N 
ATOM     18  C   UNL     1       4.072   3.030  18.889  0.00  0.00    +0.000 A 
ATOM     19  N   UNL     1       5.180   3.670  19.290  0.00  0.00    +0.000 NA
ATOM     20  C   UNL     1       5.797   4.458  18.391  0.00  0.00    +0.000 A 
ATOM     21  C   UNL     1       5.354   4.627  17.104  0.00  0.00    +0.000 A 
ATOM     22  C   UNL     1       4.215   3.932  16.791  0.00  0.00    +0.000 A 
ATOM     23  N   UNL     1       3.556   3.139  17.657  0.00  0.00    +0.000 NA
ATOM     24  H   UNL     1       2.442   2.132  19.363  0.00  0.00    +0.000 HD
ENDBRANCH  16  17
ENDBRANCH  15  16
ENDBRANCH  12  15
ENDBRANCH   1  13
BRANCH   6  25
ATOM     25  C   UNL     1       0.628  12.332  18.897  0.00  0.00    +0.000 C 
BRANCH  25  26
ATOM     26  C   UNL     1       1.724  13.341  19.124  0.00  0.00    +0.000 A 
ATOM     27  C   UNL     1       2.520  13.783  18.056  0.00  0.00    +0.000 A 
ATOM     28  C   UNL     1       3.532  14.722  18.271  0.00  0.00    +0.000 A 
ATOM     29  C   UNL     1       3.755  15.235  19.549  0.00  0.00    +0.000 A 
ATOM     30  C   UNL     1       2.967  14.808  20.618  0.00  0.00    +0.000 A 
ATOM     31  C   UNL     1       1.960  13.871  20.395  0.00  0.00    +0.000 A 
ATOM     32  F   UNL     1       1.205  13.472  21.431  0.00  0.00    +0.000 F 
ENDBRANCH  25  26
ENDBRANCH   6  25
TORSDOF 6
ENDMDL
MODEL 8
REMARK VINA RESULT:      -8.8      6.062      9.276
REMARK  Name = 
REMARK  6 active torsions:
REMARK  status: ('A' for Active; 'I' for Inactive)
REMARK    1  A    between atoms: C_2  and  C_3
REMARK    2  A    between atoms: C_3  and  C_4
REMARK    3  A    between atoms: C_4  and  N_5
REMARK    4  A    between atoms: N_12  and  C_13
REMARK    5  A    between atoms: C_18  and  C_19
REMARK    6  A    between atoms: C_19  and  C_20
REMARK                            x       y       z     vdW  Elec       q    Type
REMARK                         _______ _______ _______ _____ _____    ______ ____
ROOT
ATOM      1  C   UNL     1       5.315   4.216  18.647  0.00  0.00    +0.000 A 
ATOM      2  C   UNL     1       6.483   4.954  18.874  0.00  0.00    +0.000 A 
ATOM      3  C   UNL     1       7.301   5.399  17.829  0.00  0.00    +0.000 A 
ATOM      4  C   UNL     1       6.906   5.054  16.542  0.00  0.00    +0.000 A 
ATOM      5  N   UNL     1       7.427   5.355  15.311  0.00  0.00    +0.000 N 
ATOM      6  C   UNL     1       6.679   4.710  14.358  0.00  0.00    +0.000 A 
ATOM      7  N   UNL     1       5.678   4.052  14.913  0.00  0.00    +0.000 NA
ATOM      8  C   UNL     1       5.794   4.270  16.269  0.00  0.00    +0.000 A 
ATOM      9  C   UNL     1       4.986   3.830  17.335  0.00  0.00    +0.000 A 
ATOM     10  H   UNL     1       8.226   5.948  15.133  0.00  0.00    +0.000 HD
ENDROOT
BRANCH   1  13
ATOM     11  O   UNL     1       4.941   1.573  19.870  0.00  0.00    +0.000 OA
ATOM     12  C   UNL     1       4.290   2.558  20.207  0.00  0.00    +0.000 C 
ATOM     13  N   UNL     1       4.435   3.840  19.694  0.00  0.00    +0.000 N 
ATOM     14  H   UNL     1       3.978   4.594  20.192  0.00  0.00    +0.000 HD
BRANCH  12  15
ATOM     15  C   UNL     1       3.224   2.465  21.283  0.00  0.00    +0.000 C 
BRANCH  15  16
ATOM     16  C   UNL     1       1.844   2.728  20.676  0.00  0.00    +0.000 C 
BRANCH  16  17
ATOM     17  N   UNL     1       1.382   4.064  21.030  0.00  0.00    +0.000 N 
ATOM     18  C   UNL     1       1.694   5.033  20.080  0.00  0.00    +0.000 A 
ATOM     19  N   UNL     1       1.749   4.722  18.776  0.00  0.00    +0.000 NA
ATOM     20  C   UNL     1       2.065   5.709  17.919  0.00  0.00    +0.000 A 
ATOM     21  C   UNL     1       2.323   6.998  18.312  0.00  0.00    +0.000 A 
ATOM     22  C   UNL     1       2.244   7.215  19.662  0.00  0.00    +0.000 A 
ATOM     23  N   UNL     1       1.940   6.259  20.561  0.00  0.00    +0.000 NA
ATOM     24  H   UNL     1       1.737   4.438  21.905  0.00  0.00    +0.000 HD
ENDBRANCH  16  17
ENDBRANCH  15  16
ENDBRANCH  12  15
ENDBRANCH   1  13
BRANCH   6  25
ATOM     25  C   UNL     1       7.048   4.765  12.910  0.00  0.00    +0.000 C 
BRANCH  25  26
ATOM     26  C   UNL     1       6.698   3.508  12.157  0.00  0.00    +0.000 A 
ATOM     27  C   UNL     1       7.705   2.638  11.711  0.00  0.00    +0.000 A 
ATOM     28  C   UNL     1       7.374   1.471  11.017  0.00  0.00    +0.000 A 
ATOM     29  C   UNL     1       6.038   1.155  10.769  0.00  0.00    +0.000 A 
ATOM     30  C   UNL     1       5.028   2.008  11.212  0.00  0.00    +0.000 A 
ATOM     31  C   UNL     1       5.366   3.171  11.903  0.00  0.00    +0.000 A 
ATOM     32  F   UNL     1       4.384   3.981  12.329  0.00  0.00    +0.000 F 
ENDBRANCH  25  26
ENDBRANCH   6  25
TORSDOF 6
ENDMDL
MODEL 9
REMARK VINA RESULT:      -8.8      0.951      1.059
REMARK  Name = 
REMARK  6 active torsions:
REMARK  status: ('A' for Active; 'I' for Inactive)
REMARK    1  A    between atoms: C_2  and  C_3
REMARK    2  A    between atoms: C_3  and  C_4
REMARK    3  A    between atoms: C_4  and  N_5
REMARK    4  A    between atoms: N_12  and  C_13
REMARK    5  A    between atoms: C_18  and  C_19
REMARK    6  A    between atoms: C_19  and  C_20
REMARK                            x       y       z     vdW  Elec       q    Type
REMARK                         _______ _______ _______ _____ _____    ______ ____
ROOT
ATOM      1  C   UNL     1       7.709   7.860  17.851  0.00  0.00    +0.000 A 
ATOM      2  C   UNL     1       8.281   6.914  18.710  0.00  0.00    +0.000 A 
ATOM      3  C   UNL     1       7.710   5.653  18.919  0.00  0.00    +0.000 A 
ATOM      4  C   UNL     1       6.525   5.388  18.241  0.00  0.00    +0.000 A 
ATOM      5  N   UNL     1       5.739   4.269  18.174  0.00  0.00    +0.000 N 
ATOM      6  C   UNL     1       4.642   4.560  17.402  0.00  0.00    +0.000 A 
ATOM      7  N   UNL     1       4.712   5.793  16.933  0.00  0.00    +0.000 NA
ATOM      8  C   UNL     1       5.885   6.315  17.431  0.00  0.00    +0.000 A 
ATOM      9  C   UNL     1       6.475   7.579  17.237  0.00  0.00    +0.000 A 
ATOM     10  H   UNL     1       5.930   3.381  18.617  0.00  0.00    +0.000 HD
ENDROOT
BRANCH   1  13
ATOM     11  O   UNL     1       9.014   9.729  19.702  0.00  0.00    +0.000 OA
ATOM     12  C   UNL     1       8.907   9.953  18.500  0.00  0.00    +0.000 C 
ATOM     13  N   UNL     1       8.329   9.103  17.565  0.00  0.00    +0.000 N 
ATOM     14  H   UNL     1       8.479   9.319  16.587  0.00  0.00    +0.000 HD
BRANCH  12  15
ATOM     15  C   UNL     1       9.435  11.238  17.890  0.00  0.00    +0.000 C 
BRANCH  15  16
ATOM     16  C   UNL     1       9.984  12.152  18.986  0.00  0.00    +0.000 C 
BRANCH  16  17
ATOM     17  N   UNL     1      11.074  12.968  18.465  0.00  0.00    +0.000 N 
ATOM     18  C   UNL     1      10.689  14.264  18.131  0.00  0.00    +0.000 A 
ATOM     19  N   UNL     1       9.719  14.889  18.814  0.00  0.00    +0.000 NA
ATOM     20  C   UNL     1       9.396  16.136  18.427  0.00  0.00    +0.000 A 
ATOM     21  C   UNL     1      10.010  16.788  17.388  0.00  0.00    +0.000 A 
ATOM     22  C   UNL     1      10.986  16.067  16.752  0.00  0.00    +0.000 A 
ATOM     23  N   UNL     1      11.339  14.813  17.095  0.00  0.00    +0.000 NA
ATOM     24  H   UNL     1      11.534  12.613  17.632  0.00  0.00    +0.000 HD
ENDBRANCH  16  17
ENDBRANCH  15  16
ENDBRANCH  12  15
ENDBRANCH   1  13
BRANCH   6  25
ATOM     25  C   UNL     1       3.541   3.567  17.207  0.00  0.00    +0.000 C 
BRANCH  25  26
ATOM     26  C   UNL     1       2.669   3.396  18.424  0.00  0.00    +0.000 A 
ATOM     27  C   UNL     1       2.691   2.200  19.157  0.00  0.00    +0.000 A 
ATOM     28  C   UNL     1       1.884   2.049  20.287  0.00  0.00    +0.000 A 
ATOM     29  C   UNL     1       1.055   3.091  20.703  0.00  0.00    +0.000 A 
ATOM     30  C   UNL     1       1.028   4.287  19.987  0.00  0.00    +0.000 A 
ATOM     31  C   UNL     1       1.836   4.430  18.860  0.00  0.00    +0.000 A 
ATOM     32  F   UNL     1       1.805   5.588  18.183  0.00  0.00    +0.000 F 
ENDBRANCH  25  26
ENDBRANCH   6  25
TORSDOF 6
ENDMDL
