MODEL 1
REMARK VINA RESULT:      -8.9      0.000      0.000
REMARK  Name = 
REMARK  4 active torsions:
REMARK  status: ('A' for Active; 'I' for Inactive)
REMARK    1  A    between atoms: C_7  and  C_8
REMARK    2  A    between atoms: N_10  and  C_11
REMARK    3  A    between atoms: C_11  and  C_12
REMARK    4  A    between atoms: C_12  and  C_13
REMARK                            x       y       z     vdW  Elec       q    Type
REMARK                         _______ _______ _______ _____ _____    ______ ____
ROOT
ATOM      1  C   UNL     1       3.088   5.569  17.852  0.00  0.00    +0.000 C 
ATOM      2  O   UNL     1       2.451   4.557  17.574  0.00  0.00    +0.000 OA
ATOM      3  N   UNL     1       4.360   5.802  17.378  0.00  0.00    +0.000 N 
ATOM      4  H   UNL     1       4.825   6.677  17.580  0.00  0.00    +0.000 HD
ENDROOT
BRANCH   1  11
ATOM      5  O   UNL     1       0.349  11.831  21.459  0.00  0.00    +0.000 OA
ATOM      6  C   UNL     1       0.626  10.926  20.676  0.00  0.00    +0.000 C 
ATOM      7  C   UNL     1       0.489  11.074  19.179  0.00  0.00    +0.000 C 
ATOM      8  C   UNL     1       1.547  10.290  18.422  0.00  0.00    +0.000 C 
ATOM      9  C   UNL     1       1.706   8.899  18.970  0.00  0.00    +0.000 A 
ATOM     10  C   UNL     1       2.259   7.880  18.185  0.00  0.00    +0.000 A 
ATOM     11  C   UNL     1       2.479   6.603  18.725  0.00  0.00    +0.000 A 
ATOM     12  C   UNL     1       2.143   6.367  20.059  0.00  0.00    +0.000 A 
ATOM     13  F   UNL     1       2.333   5.162  20.621  0.00  0.00    +0.000 F 
ATOM     14  C   UNL     1       1.618   7.379  20.859  0.00  0.00    +0.000 A 
ATOM     15  C   UNL     1       1.414   8.642  20.314  0.00  0.00    +0.000 A 
ATOM     16  N   UNL     1       0.959   9.678  21.131  0.00  0.00    +0.000 N 
ATOM     17  H   UNL     1       0.908   9.554  22.135  0.00  0.00    +0.000 HD
ENDBRANCH   1  11
BRANCH   3  18
ATOM     18  C   UNL     1       4.951   4.873  16.449  0.00  0.00    +0.000 C 
BRANCH  18  19
ATOM     19  C   UNL     1       6.450   4.998  16.254  0.00  0.00    +0.000 C 
ATOM     20  C   UNL     1       7.456   4.608  17.332  0.00  0.00    +0.000 C 
ATOM     21  C   UNL     1       7.219   6.058  17.030  0.00  0.00    +0.000 C 
BRANCH  19  22
ATOM     22  C   UNL     1       6.817   4.700  14.807  0.00  0.00    +0.000 A 
ATOM     23  C   UNL     1       6.065   3.783  14.066  0.00  0.00    +0.000 A 
ATOM     24  C   UNL     1       6.268   3.662  12.696  0.00  0.00    +0.000 A 
ATOM     25  C   UNL     1       7.229   4.457  12.086  0.00  0.00    +0.000 A 
ATOM     26  C   UNL     1       7.959   5.319  12.883  0.00  0.00    +0.000 A 
ATOM     27  N   UNL     1       7.781   5.453  14.215  0.00  0.00    +0.000 NA
ENDBRANCH  19  22
ENDBRANCH  18  19
ENDBRANCH   3  18
TORSDOF 4
ENDMDL
MODEL 2
REMARK VINA RESULT:      -8.6      1.423      2.790
REMARK  Name = 
REMARK  4 active torsions:
REMARK  status: ('A' for Active; 'I' for Inactive)
REMARK    1  A    between atoms: C_7  and  C_8
REMARK    2  A    between atoms: N_10  and  C_11
REMARK    3  A    between atoms: C_11  and  C_12
REMARK    4  A    between atoms: C_12  and  C_13
REMARK                            x       y       z     vdW  Elec       q    Type
REMARK                         _______ _______ _______ _____ _____    ______ ____
ROOT
ATOM      1  C   UNL     1       2.644   5.345  18.093  0.00  0.00    +0.000 C 
ATOM      2  O   UNL     1       1.829   4.605  17.549  0.00  0.00    +0.000 OA
ATOM      3  N   UNL     1       4.004   5.173  17.967  0.00  0.00    +0.000 N 
ATOM      4  H   UNL     1       4.641   5.842  18.380  0.00  0.00    +0.000 HD
ENDROOT
BRANCH   1  11
ATOM      5  O   UNL     1       0.648  12.050  21.375  0.00  0.00    +0.000 OA
ATOM      6  C   UNL     1       0.810  11.077  20.642  0.00  0.00    +0.000 C 
ATOM      7  C   UNL     1       0.641  11.151  19.143  0.00  0.00    +0.000 C 
ATOM      8  C   UNL     1       1.593  10.221  18.409  0.00  0.00    +0.000 C 
ATOM      9  C   UNL     1       1.632   8.856  19.038  0.00  0.00    +0.000 A 
ATOM     10  C   UNL     1       2.057   7.742  18.304  0.00  0.00    +0.000 A 
ATOM     11  C   UNL     1       2.167   6.484  18.915  0.00  0.00    +0.000 A 
ATOM     12  C   UNL     1       1.851   6.361  20.270  0.00  0.00    +0.000 A 
ATOM     13  F   UNL     1       1.939   5.178  20.900  0.00  0.00    +0.000 F 
ATOM     14  C   UNL     1       1.454   7.466  21.019  0.00  0.00    +0.000 A 
ATOM     15  C   UNL     1       1.358   8.709  20.403  0.00  0.00    +0.000 A 
ATOM     16  N   UNL     1       1.032   9.832  21.165  0.00  0.00    +0.000 N 
ATOM     17  H   UNL     1       1.000   9.772  22.175  0.00  0.00    +0.000 HD
ENDBRANCH   1  11
BRANCH   3  18
ATOM     18  C   UNL     1       4.512   4.142  17.099  0.00  0.00    +0.000 C 
BRANCH  18  19
ATOM     19  C   UNL     1       5.711   4.522  16.252  0.00  0.00    +0.000 C 
ATOM     20  C   UNL     1       5.601   4.842  14.764  0.00  0.00    +0.000 C 
ATOM     21  C   UNL     1       6.222   3.548  15.200  0.00  0.00    +0.000 C 
BRANCH  19  22
ATOM     22  C   UNL     1       6.697   5.338  17.076  0.00  0.00    +0.000 A 
ATOM     23  C   UNL     1       6.920   6.685  16.774  0.00  0.00    +0.000 A 
ATOM     24  C   UNL     1       7.658   7.480  17.643  0.00  0.00    +0.000 A 
ATOM     25  C   UNL     1       8.170   6.913  18.803  0.00  0.00    +0.000 A 
ATOM     26  C   UNL     1       7.939   5.569  19.024  0.00  0.00    +0.000 A 
ATOM     27  N   UNL     1       7.227   4.776  18.194  0.00  0.00    +0.000 NA
ENDBRANCH  19  22
ENDBRANCH  18  19
ENDBRANCH   3  18
TORSDOF 4
ENDMDL
MODEL 3
REMARK VINA RESULT:      -8.5      1.997      3.425
REMARK  Name = 
REMARK  4 active torsions:
REMARK  status: ('A' for Active; 'I' for Inactive)
REMARK    1  A    between atoms: C_7  and  C_8
REMARK    2  A    between atoms: N_10  and  C_11
REMARK    3  A    between atoms: C_11  and  C_12
REMARK    4  A    between atoms: C_12  and  C_13
REMARK                            x       y       z     vdW  Elec       q    Type
REMARK                         _______ _______ _______ _____ _____    ______ ____
ROOT
ATOM      1  C   UNL     1       3.059   6.242  18.934  0.00  0.00    +0.000 C 
ATOM      2  O   UNL     1       3.380   5.481  19.842  0.00  0.00    +0.000 OA
ATOM      3  N   UNL     1       3.390   6.013  17.618  0.00  0.00    +0.000 N 
ATOM      4  H   UNL     1       3.052   6.633  16.894  0.00  0.00    +0.000 HD
ENDROOT
BRANCH   1  11
ATOM      5  O   UNL     1      -1.531  11.869  21.578  0.00  0.00    +0.000 OA
ATOM      6  C   UNL     1      -0.696  10.983  21.415  0.00  0.00    +0.000 C 
ATOM      7  C   UNL     1      -0.118  10.188  22.562  0.00  0.00    +0.000 C 
ATOM      8  C   UNL     1       0.195   8.754  22.170  0.00  0.00    +0.000 C 
ATOM      9  C   UNL     1       0.905   8.682  20.848  0.00  0.00    +0.000 A 
ATOM     10  C   UNL     1       1.676   7.562  20.509  0.00  0.00    +0.000 A 
ATOM     11  C   UNL     1       2.273   7.462  19.244  0.00  0.00    +0.000 A 
ATOM     12  C   UNL     1       2.083   8.495  18.324  0.00  0.00    +0.000 A 
ATOM     13  F   UNL     1       2.635   8.448  17.100  0.00  0.00    +0.000 F 
ATOM     14  C   UNL     1       1.297   9.602  18.636  0.00  0.00    +0.000 A 
ATOM     15  C   UNL     1       0.703   9.683  19.891  0.00  0.00    +0.000 A 
ATOM     16  N   UNL     1      -0.146  10.753  20.183  0.00  0.00    +0.000 N 
ATOM     17  H   UNL     1      -0.437  11.388  19.451  0.00  0.00    +0.000 HD
ENDBRANCH   1  11
BRANCH   3  18
ATOM     18  C   UNL     1       4.066   4.793  17.259  0.00  0.00    +0.000 C 
BRANCH  18  19
ATOM     19  C   UNL     1       5.389   4.958  16.538  0.00  0.00    +0.000 C 
ATOM     20  C   UNL     1       5.503   4.975  15.016  0.00  0.00    +0.000 C 
ATOM     21  C   UNL     1       5.982   3.777  15.782  0.00  0.00    +0.000 C 
BRANCH  19  22
ATOM     22  C   UNL     1       6.300   5.893  17.321  0.00  0.00    +0.000 A 
ATOM     23  C   UNL     1       7.053   5.405  18.394  0.00  0.00    +0.000 A 
ATOM     24  C   UNL     1       8.032   6.202  18.977  0.00  0.00    +0.000 A 
ATOM     25  C   UNL     1       8.240   7.482  18.481  0.00  0.00    +0.000 A 
ATOM     26  C   UNL     1       7.440   7.912  17.440  0.00  0.00    +0.000 A 
ATOM     27  N   UNL     1       6.482   7.158  16.859  0.00  0.00    +0.000 NA
ENDBRANCH  19  22
ENDBRANCH  18  19
ENDBRANCH   3  18
TORSDOF 4
ENDMDL
MODEL 4
REMARK VINA RESULT:      -8.4      1.265      2.723
REMARK  Name = 
REMARK  4 active torsions:
REMARK  status: ('A' for Active; 'I' for Inactive)
REMARK    1  A    between atoms: C_7  and  C_8
REMARK    2  A    between atoms: N_10  and  C_11
REMARK    3  A    between atoms: C_11  and  C_12
REMARK    4  A    between atoms: C_12  and  C_13
REMARK                            x       y       z     vdW  Elec       q    Type
REMARK                         _______ _______ _______ _____ _____    ______ ____
ROOT
ATOM      1  C   UNL     1       2.735   5.545  18.314  0.00  0.00    +0.000 C 
ATOM      2  O   UNL     1       2.258   4.428  18.493  0.00  0.00    +0.000 OA
ATOM      3  N   UNL     1       3.778   5.779  17.447  0.00  0.00    +0.000 N 
ATOM      4  H   UNL     1       4.100   6.724  17.282  0.00  0.00    +0.000 HD
ENDROOT
BRANCH   1  11
ATOM      5  O   UNL     1       0.331  12.338  21.105  0.00  0.00    +0.000 OA
ATOM      6  C   UNL     1       0.567  11.335  20.437  0.00  0.00    +0.000 C 
ATOM      7  C   UNL     1       0.484  11.323  18.929  0.00  0.00    +0.000 C 
ATOM      8  C   UNL     1       1.507  10.390  18.303  0.00  0.00    +0.000 C 
ATOM      9  C   UNL     1       1.554   9.063  19.006  0.00  0.00    +0.000 A 
ATOM     10  C   UNL     1       2.058   7.928  18.360  0.00  0.00    +0.000 A 
ATOM     11  C   UNL     1       2.174   6.709  19.045  0.00  0.00    +0.000 A 
ATOM     12  C   UNL     1       1.783   6.646  20.384  0.00  0.00    +0.000 A 
ATOM     13  F   UNL     1       1.872   5.502  21.082  0.00  0.00    +0.000 F 
ATOM     14  C   UNL     1       1.306   7.774  21.047  0.00  0.00    +0.000 A 
ATOM     15  C   UNL     1       1.205   8.978  20.359  0.00  0.00    +0.000 A 
ATOM     16  N   UNL     1       0.799  10.127  21.040  0.00  0.00    +0.000 N 
ATOM     17  H   UNL     1       0.710  10.120  22.048  0.00  0.00    +0.000 HD
ENDBRANCH   1  11
BRANCH   3  18
ATOM     18  C   UNL     1       4.288   4.697  16.644  0.00  0.00    +0.000 C 
BRANCH  18  19
ATOM     19  C   UNL     1       5.708   4.864  16.136  0.00  0.00    +0.000 C 
ATOM     20  C   UNL     1       6.052   4.909  14.651  0.00  0.00    +0.000 C 
ATOM     21  C   UNL     1       6.401   3.692  15.456  0.00  0.00    +0.000 C 
BRANCH  19  22
ATOM     22  C   UNL     1       6.494   5.775  17.069  0.00  0.00    +0.000 A 
ATOM     23  C   UNL     1       7.160   5.240  18.176  0.00  0.00    +0.000 A 
ATOM     24  C   UNL     1       8.040   6.030  18.908  0.00  0.00    +0.000 A 
ATOM     25  C   UNL     1       8.238   7.349  18.522  0.00  0.00    +0.000 A 
ATOM     26  C   UNL     1       7.524   7.822  17.438  0.00  0.00    +0.000 A 
ATOM     27  N   UNL     1       6.662   7.075  16.714  0.00  0.00    +0.000 NA
ENDBRANCH  19  22
ENDBRANCH  18  19
ENDBRANCH   3  18
TORSDOF 4
ENDMDL
MODEL 5
REMARK VINA RESULT:      -8.3      2.716      3.888
REMARK  Name = 
REMARK  4 active torsions:
REMARK  status: ('A' for Active; 'I' for Inactive)
REMARK    1  A    between atoms: C_7  and  C_8
REMARK    2  A    between atoms: N_10  and  C_11
REMARK    3  A    between atoms: C_11  and  C_12
REMARK    4  A    between atoms: C_12  and  C_13
REMARK                            x       y       z     vdW  Elec       q    Type
REMARK                         _______ _______ _______ _____ _____    ______ ____
ROOT
ATOM      1  C   UNL     1       2.729   7.063  18.274  0.00  0.00    +0.000 C 
ATOM      2  O   UNL     1       3.776   7.350  17.699  0.00  0.00    +0.000 OA
ATOM      3  N   UNL     1       2.217   5.786  18.294  0.00  0.00    +0.000 N 
ATOM      4  H   UNL     1       1.385   5.581  18.833  0.00  0.00    +0.000 HD
ENDROOT
BRANCH   1  11
ATOM      5  O   UNL     1      -1.586  11.565  22.838  0.00  0.00    +0.000 OA
ATOM      6  C   UNL     1      -0.769  10.789  22.350  0.00  0.00    +0.000 C 
ATOM      7  C   UNL     1      -0.069   9.725  23.163  0.00  0.00    +0.000 C 
ATOM      8  C   UNL     1       0.208   8.470  22.354  0.00  0.00    +0.000 C 
ATOM      9  C   UNL     1       0.776   8.794  21.001  0.00  0.00    +0.000 A 
ATOM     10  C   UNL     1       1.512   7.841  20.286  0.00  0.00    +0.000 A 
ATOM     11  C   UNL     1       1.973   8.120  18.991  0.00  0.00    +0.000 A 
ATOM     12  C   UNL     1       1.682   9.362  18.423  0.00  0.00    +0.000 A 
ATOM     13  F   UNL     1       2.103   9.678  17.187  0.00  0.00    +0.000 F 
ATOM     14  C   UNL     1       0.928  10.309  19.111  0.00  0.00    +0.000 A 
ATOM     15  C   UNL     1       0.468  10.016  20.391  0.00  0.00    +0.000 A 
ATOM     16  N   UNL     1      -0.350  10.931  21.054  0.00  0.00    +0.000 N 
ATOM     17  H   UNL     1      -0.720  11.736  20.564  0.00  0.00    +0.000 HD
ENDBRANCH   1  11
BRANCH   3  18
ATOM     18  C   UNL     1       2.966   4.711  17.697  0.00  0.00    +0.000 C 
BRANCH  18  19
ATOM     19  C   UNL     1       3.863   3.929  18.637  0.00  0.00    +0.000 C 
ATOM     20  C   UNL     1       3.638   2.453  18.953  0.00  0.00    +0.000 C 
ATOM     21  C   UNL     1       3.324   3.489  19.991  0.00  0.00    +0.000 C 
BRANCH  19  22
ATOM     22  C   UNL     1       5.301   4.411  18.512  0.00  0.00    +0.000 A 
ATOM     23  C   UNL     1       5.927   4.437  17.262  0.00  0.00    +0.000 A 
ATOM     24  C   UNL     1       7.160   5.063  17.114  0.00  0.00    +0.000 A 
ATOM     25  C   UNL     1       7.753   5.651  18.223  0.00  0.00    +0.000 A 
ATOM     26  C   UNL     1       7.095   5.561  19.435  0.00  0.00    +0.000 A 
ATOM     27  N   UNL     1       5.898   4.956  19.604  0.00  0.00    +0.000 NA
ENDBRANCH  19  22
ENDBRANCH  18  19
ENDBRANCH   3  18
TORSDOF 4
ENDMDL
MODEL 6
REMARK VINA RESULT:      -8.3      1.448      1.951
REMARK  Name = 
REMARK  4 active torsions:
REMARK  status: ('A' for Active; 'I' for Inactive)
REMARK    1  A    between atoms: C_7  and  C_8
REMARK    2  A    between atoms: N_10  and  C_11
REMARK    3  A    between atoms: C_11  and  C_12
REMARK    4  A    between atoms: C_12  and  C_13
REMARK                            x       y       z     vdW  Elec       q    Type
REMARK                         _______ _______ _______ _____ _____    ______ ____
ROOT
ATOM      1  C   UNL     1       3.812   6.034  18.478  0.00  0.00    +0.000 C 
ATOM      2  O   UNL     1       4.132   5.301  19.410  0.00  0.00    +0.000 OA
ATOM      3  N   UNL     1       4.236   5.822  17.185  0.00  0.00    +0.000 N 
ATOM      4  H   UNL     1       3.898   6.412  16.437  0.00  0.00    +0.000 HD
ENDROOT
BRANCH   1  11
ATOM      5  O   UNL     1      -1.307  11.335  20.802  0.00  0.00    +0.000 OA
ATOM      6  C   UNL     1      -0.403  10.511  20.695  0.00  0.00    +0.000 C 
ATOM      7  C   UNL     1       0.170   9.772  21.881  0.00  0.00    +0.000 C 
ATOM      8  C   UNL     1       0.606   8.361  21.526  0.00  0.00    +0.000 C 
ATOM      9  C   UNL     1       1.388   8.327  20.243  0.00  0.00    +0.000 A 
ATOM     10  C   UNL     1       2.255   7.264  19.961  0.00  0.00    +0.000 A 
ATOM     11  C   UNL     1       2.924   7.196  18.729  0.00  0.00    +0.000 A 
ATOM     12  C   UNL     1       2.708   8.203  17.786  0.00  0.00    +0.000 A 
ATOM     13  F   UNL     1       3.327   8.184  16.594  0.00  0.00    +0.000 F 
ATOM     14  C   UNL     1       1.829   9.252  18.043  0.00  0.00    +0.000 A 
ATOM     15  C   UNL     1       1.165   9.302  19.264  0.00  0.00    +0.000 A 
ATOM     16  N   UNL     1       0.227  10.310  19.496  0.00  0.00    +0.000 N 
ATOM     17  H   UNL     1      -0.071  10.915  18.741  0.00  0.00    +0.000 HD
ENDBRANCH   1  11
BRANCH   3  18
ATOM     18  C   UNL     1       5.017   4.651  16.878  0.00  0.00    +0.000 C 
BRANCH  18  19
ATOM     19  C   UNL     1       6.485   4.894  16.589  0.00  0.00    +0.000 C 
ATOM     20  C   UNL     1       7.585   4.596  17.604  0.00  0.00    +0.000 C 
ATOM     21  C   UNL     1       7.213   6.019  17.311  0.00  0.00    +0.000 C 
BRANCH  19  22
ATOM     22  C   UNL     1       6.785   4.612  15.123  0.00  0.00    +0.000 A 
ATOM     23  C   UNL     1       6.001   3.702  14.408  0.00  0.00    +0.000 A 
ATOM     24  C   UNL     1       6.140   3.596  13.029  0.00  0.00    +0.000 A 
ATOM     25  C   UNL     1       7.069   4.401  12.384  0.00  0.00    +0.000 A 
ATOM     26  C   UNL     1       7.834   5.255  13.155  0.00  0.00    +0.000 A 
ATOM     27  N   UNL     1       7.718   5.374  14.495  0.00  0.00    +0.000 NA
ENDBRANCH  19  22
ENDBRANCH  18  19
ENDBRANCH   3  18
TORSDOF 4
ENDMDL
MODEL 7
REMARK VINA RESULT:      -8.3      2.030      3.421
REMARK  Name = 
REMARK  4 active torsions:
REMARK  status: ('A' for Active; 'I' for Inactive)
REMARK    1  A    between atoms: C_7  and  C_8
REMARK    2  A    between atoms: N_10  and  C_11
REMARK    3  A    between atoms: C_11  and  C_12
REMARK    4  A    between atoms: C_12  and  C_13
REMARK                            x       y       z     vdW  Elec       q    Type
REMARK                         _______ _______ _______ _____ _____    ______ ____
ROOT
ATOM      1  C   UNL     1       3.408   6.134  18.795  0.00  0.00    +0.000 C 
ATOM      2  O   UNL     1       4.000   5.598  19.728  0.00  0.00    +0.000 OA
ATOM      3  N   UNL     1       3.472   5.662  17.503  0.00  0.00    +0.000 N 
ATOM      4  H   UNL     1       2.918   6.096  16.776  0.00  0.00    +0.000 HD
ENDROOT
BRANCH   1  11
ATOM      5  O   UNL     1      -1.430  11.680  21.150  0.00  0.00    +0.000 OA
ATOM      6  C   UNL     1      -0.564  10.817  21.036  0.00  0.00    +0.000 C 
ATOM      7  C   UNL     1       0.003  10.071  22.220  0.00  0.00    +0.000 C 
ATOM      8  C   UNL     1       0.372   8.638  21.877  0.00  0.00    +0.000 C 
ATOM      9  C   UNL     1       1.123   8.553  20.578  0.00  0.00    +0.000 A 
ATOM     10  C   UNL     1       1.938   7.450  20.293  0.00  0.00    +0.000 A 
ATOM     11  C   UNL     1       2.575   7.336  19.048  0.00  0.00    +0.000 A 
ATOM     12  C   UNL     1       2.381   8.338  18.095  0.00  0.00    +0.000 A 
ATOM     13  F   UNL     1       2.971   8.276  16.890  0.00  0.00    +0.000 F 
ATOM     14  C   UNL     1       1.552   9.427  18.355  0.00  0.00    +0.000 A 
ATOM     15  C   UNL     1       0.919   9.523  19.589  0.00  0.00    +0.000 A 
ATOM     16  N   UNL     1       0.029  10.572  19.826  0.00  0.00    +0.000 N 
ATOM     17  H   UNL     1      -0.260  11.179  19.069  0.00  0.00    +0.000 HD
ENDBRANCH   1  11
BRANCH   3  18
ATOM     18  C   UNL     1       4.186   4.442  17.229  0.00  0.00    +0.000 C 
BRANCH  18  19
ATOM     19  C   UNL     1       5.443   4.586  16.393  0.00  0.00    +0.000 C 
ATOM     20  C   UNL     1       5.409   4.770  14.879  0.00  0.00    +0.000 C 
ATOM     21  C   UNL     1       5.852   3.459  15.456  0.00  0.00    +0.000 C 
BRANCH  19  22
ATOM     22  C   UNL     1       6.505   5.350  17.171  0.00  0.00    +0.000 A 
ATOM     23  C   UNL     1       6.789   6.682  16.851  0.00  0.00    +0.000 A 
ATOM     24  C   UNL     1       7.605   7.440  17.684  0.00  0.00    +0.000 A 
ATOM     25  C   UNL     1       8.131   6.851  18.826  0.00  0.00    +0.000 A 
ATOM     26  C   UNL     1       7.836   5.522  19.066  0.00  0.00    +0.000 A 
ATOM     27  N   UNL     1       7.048   4.765  18.271  0.00  0.00    +0.000 NA
ENDBRANCH  19  22
ENDBRANCH  18  19
ENDBRANCH   3  18
TORSDOF 4
ENDMDL
MODEL 8
REMARK VINA RESULT:      -8.3      3.078      4.867
REMARK  Name = 
REMARK  4 active torsions:
REMARK  status: ('A' for Active; 'I' for Inactive)
REMARK    1  A    between atoms: C_7  and  C_8
REMARK    2  A    between atoms: N_10  and  C_11
REMARK    3  A    between atoms: C_11  and  C_12
REMARK    4  A    between atoms: C_12  and  C_13
REMARK                            x       y       z     vdW  Elec       q    Type
REMARK                         _______ _______ _______ _____ _____    ______ ____
ROOT
ATOM      1  C   UNL     1       2.140   8.246  18.512  0.00  0.00    +0.000 C 
ATOM      2  O   UNL     1       2.244   8.780  17.411  0.00  0.00    +0.000 OA
ATOM      3  N   UNL     1       2.708   7.026  18.803  0.00  0.00    +0.000 N 
ATOM      4  H   UNL     1       2.651   6.651  19.742  0.00  0.00    +0.000 HD
ENDROOT
BRANCH   1  11
ATOM      5  O   UNL     1      -1.543  12.938  23.424  0.00  0.00    +0.000 OA
ATOM      6  C   UNL     1      -1.135  12.299  22.458  0.00  0.00    +0.000 C 
ATOM      7  C   UNL     1      -1.339  12.758  21.034  0.00  0.00    +0.000 C 
ATOM      8  C   UNL     1      -0.183  12.365  20.130  0.00  0.00    +0.000 C 
ATOM      9  C   UNL     1       0.232  10.937  20.347  0.00  0.00    +0.000 A 
ATOM     10  C   UNL     1       0.931  10.236  19.356  0.00  0.00    +0.000 A 
ATOM     11  C   UNL     1       1.386   8.930  19.591  0.00  0.00    +0.000 A 
ATOM     12  C   UNL     1       1.134   8.340  20.832  0.00  0.00    +0.000 A 
ATOM     13  F   UNL     1       1.547   7.091  21.104  0.00  0.00    +0.000 F 
ATOM     14  C   UNL     1       0.464   9.035  21.836  0.00  0.00    +0.000 A 
ATOM     15  C   UNL     1       0.027  10.333  21.592  0.00  0.00    +0.000 A 
ATOM     16  N   UNL     1      -0.578  11.059  22.620  0.00  0.00    +0.000 N 
ATOM     17  H   UNL     1      -0.578  10.702  23.567  0.00  0.00    +0.000 HD
ENDBRANCH   1  11
BRANCH   3  18
ATOM     18  C   UNL     1       3.531   6.373  17.819  0.00  0.00    +0.000 C 
BRANCH  18  19
ATOM     19  C   UNL     1       3.716   4.879  17.998  0.00  0.00    +0.000 C 
ATOM     20  C   UNL     1       5.082   4.203  17.932  0.00  0.00    +0.000 C 
ATOM     21  C   UNL     1       4.112   4.025  16.802  0.00  0.00    +0.000 C 
BRANCH  19  22
ATOM     22  C   UNL     1       2.715   4.345  19.014  0.00  0.00    +0.000 A 
ATOM     23  C   UNL     1       1.611   3.600  18.587  0.00  0.00    +0.000 A 
ATOM     24  C   UNL     1       0.814   2.943  19.518  0.00  0.00    +0.000 A 
ATOM     25  C   UNL     1       1.130   3.045  20.866  0.00  0.00    +0.000 A 
ATOM     26  C   UNL     1       2.216   3.823  21.220  0.00  0.00    +0.000 A 
ATOM     27  N   UNL     1       3.004   4.472  20.335  0.00  0.00    +0.000 NA
ENDBRANCH  19  22
ENDBRANCH  18  19
ENDBRANCH   3  18
TORSDOF 4
ENDMDL
MODEL 9
REMARK VINA RESULT:      -8.3      1.587      2.224
REMARK  Name = 
REMARK  4 active torsions:
REMARK  status: ('A' for Active; 'I' for Inactive)
REMARK    1  A    between atoms: C_7  and  C_8
REMARK    2  A    between atoms: N_10  and  C_11
REMARK    3  A    between atoms: C_11  and  C_12
REMARK    4  A    between atoms: C_12  and  C_13
REMARK                            x       y       z     vdW  Elec       q    Type
REMARK                         _______ _______ _______ _____ _____    ______ ____
ROOT
ATOM      1  C   UNL     1       3.223   6.083  18.571  0.00  0.00    +0.000 C 
ATOM      2  O   UNL     1       2.691   5.220  17.878  0.00  0.00    +0.000 OA
ATOM      3  N   UNL     1       4.522   5.984  19.016  0.00  0.00    +0.000 N 
ATOM      4  H   UNL     1       4.942   6.747  19.531  0.00  0.00    +0.000 HD
ENDROOT
BRANCH   1  11
ATOM      5  O   UNL     1      -1.248  11.639  21.546  0.00  0.00    +0.000 OA
ATOM      6  C   UNL     1      -0.427  10.752  21.328  0.00  0.00    +0.000 C 
ATOM      7  C   UNL     1       0.168   9.905  22.428  0.00  0.00    +0.000 C 
ATOM      8  C   UNL     1       0.458   8.486  21.971  0.00  0.00    +0.000 C 
ATOM      9  C   UNL     1       1.138   8.461  20.631  0.00  0.00    +0.000 A 
ATOM     10  C   UNL     1       1.889   7.349  20.230  0.00  0.00    +0.000 A 
ATOM     11  C   UNL     1       2.456   7.296  18.948  0.00  0.00    +0.000 A 
ATOM     12  C   UNL     1       2.256   8.368  18.075  0.00  0.00    +0.000 A 
ATOM     13  F   UNL     1       2.781   8.365  16.839  0.00  0.00    +0.000 F 
ATOM     14  C   UNL     1       1.489   9.468  18.451  0.00  0.00    +0.000 A 
ATOM     15  C   UNL     1       0.924   9.503  19.721  0.00  0.00    +0.000 A 
ATOM     16  N   UNL     1       0.093  10.568  20.075  0.00  0.00    +0.000 N 
ATOM     17  H   UNL     1      -0.208  11.236  19.377  0.00  0.00    +0.000 HD
ENDBRANCH   1  11
BRANCH   3  18
ATOM     18  C   UNL     1       5.334   4.873  18.592  0.00  0.00    +0.000 C 
BRANCH  18  19
ATOM     19  C   UNL     1       6.639   5.231  17.908  0.00  0.00    +0.000 C 
ATOM     20  C   UNL     1       7.982   5.217  18.633  0.00  0.00    +0.000 C 
ATOM     21  C   UNL     1       7.346   6.528  18.278  0.00  0.00    +0.000 C 
BRANCH  19  22
ATOM     22  C   UNL     1       6.617   4.765  16.459  0.00  0.00    +0.000 A 
ATOM     23  C   UNL     1       5.648   3.854  16.029  0.00  0.00    +0.000 A 
ATOM     24  C   UNL     1       5.498   3.585  14.673  0.00  0.00    +0.000 A 
ATOM     25  C   UNL     1       6.327   4.229  13.764  0.00  0.00    +0.000 A 
ATOM     26  C   UNL     1       7.284   5.094  14.260  0.00  0.00    +0.000 A 
ATOM     27  N   UNL     1       7.450   5.369  15.572  0.00  0.00    +0.000 NA
ENDBRANCH  19  22
ENDBRANCH  18  19
ENDBRANCH   3  18
TORSDOF 4
ENDMDL
