MODEL 1
REMARK VINA RESULT:      -9.2      0.000      0.000
REMARK  Name = 
REMARK  3 active torsions:
REMARK  status: ('A' for Active; 'I' for Inactive)
REMARK    1  A    between atoms: C_6  and  S_7
REMARK    2  A    between atoms: S_7  and  N_10
REMARK    3  A    between atoms: N_16  and  C_17
REMARK                            x       y       z     vdW  Elec       q    Type
REMARK                         _______ _______ _______ _____ _____    ______ ____
ROOT
ATOM      1  N   UNL     1       2.252   4.050  19.065  0.00  0.00    +0.000 NA
ATOM      2  C   UNL     1       1.894   4.814  17.852  0.00  0.00    +0.000 C 
ATOM      3  C   UNL     1       2.282   6.308  17.992  0.00  0.00    +0.000 C 
ATOM      4  N   UNL     1       1.931   6.880  19.309  0.00  0.00    +0.000 N 
ATOM      5  C   UNL     1       1.715   8.225  19.580  0.00  0.00    +0.000 C 
ATOM      6  O   UNL     1       1.804   8.666  20.726  0.00  0.00    +0.000 OA
ATOM      7  N   UNL     1       1.332   8.999  18.508  0.00  0.00    +0.000 N 
ATOM      8  C   UNL     1       2.315   6.046  20.459  0.00  0.00    +0.000 C 
ATOM      9  C   UNL     1       1.753   4.632  20.322  0.00  0.00    +0.000 C 
ATOM     10  H   UNL     1       0.741   8.526  17.838  0.00  0.00    +0.000 HD
ENDROOT
BRANCH   7  11
ATOM     11  C   UNL     1       1.051  10.384  18.659  0.00  0.00    +0.000 A 
ATOM     12  C   UNL     1       2.016  11.375  18.453  0.00  0.00    +0.000 A 
ATOM     13  C   UNL     1       1.701  12.723  18.658  0.00  0.00    +0.000 A 
ATOM     14  C   UNL     1       0.422  13.088  19.079  0.00  0.00    +0.000 A 
ATOM     15  C   UNL     1      -0.550  12.108  19.278  0.00  0.00    +0.000 A 
ATOM     16  C   UNL     1      -0.234  10.770  19.048  0.00  0.00    +0.000 A 
ATOM     17  F   UNL     1      -1.171   9.832  19.265  0.00  0.00    +0.000 F 
ENDBRANCH   7  11
BRANCH   1  18
ATOM     18  S   UNL     1       3.457   2.892  19.077  0.00  0.00    +0.000 S 
ATOM     19  O   UNL     1       3.003   1.733  18.346  0.00  0.00    +0.000 OA
ATOM     20  O   UNL     1       3.962   2.776  20.429  0.00  0.00    +0.000 OA
BRANCH  18  26
ATOM     21  O   UNL     1       7.756   5.375  13.342  0.00  0.00    +0.000 OA
ATOM     22  C   UNL     1       7.167   5.076  14.367  0.00  0.00    +0.000 C 
ATOM     23  C   UNL     1       5.916   4.192  14.484  0.00  0.00    +0.000 C 
ATOM     24  C   UNL     1       5.687   4.162  15.967  0.00  0.00    +0.000 A 
ATOM     25  C   UNL     1       4.713   3.507  16.699  0.00  0.00    +0.000 A 
ATOM     26  C   UNL     1       4.727   3.671  18.091  0.00  0.00    +0.000 A 
ATOM     27  C   UNL     1       5.682   4.502  18.721  0.00  0.00    +0.000 A 
ATOM     28  C   UNL     1       6.666   5.149  17.964  0.00  0.00    +0.000 A 
ATOM     29  C   UNL     1       6.643   4.955  16.598  0.00  0.00    +0.000 A 
ATOM     30  N   UNL     1       7.509   5.482  15.652  0.00  0.00    +0.000 N 
ATOM     31  H   UNL     1       8.299   6.083  15.839  0.00  0.00    +0.000 HD
ENDBRANCH  18  26
ENDBRANCH   1  18
TORSDOF 3
ENDMDL
MODEL 2
REMARK VINA RESULT:      -9.1      0.910      1.246
REMARK  Name = 
REMARK  3 active torsions:
REMARK  status: ('A' for Active; 'I' for Inactive)
REMARK    1  A    between atoms: C_6  and  S_7
REMARK    2  A    between atoms: S_7  and  N_10
REMARK    3  A    between atoms: N_16  and  C_17
REMARK                            x       y       z     vdW  Elec       q    Type
REMARK                         _______ _______ _______ _____ _____    ______ ____
ROOT
ATOM      1  N   UNL     1       2.223   3.995  19.148  0.00  0.00    +0.000 NA
ATOM      2  C   UNL     1       1.890   4.873  18.006  0.00  0.00    +0.000 C 
ATOM      3  C   UNL     1       2.256   6.349  18.306  0.00  0.00    +0.000 C 
ATOM      4  N   UNL     1       1.860   6.783  19.662  0.00  0.00    +0.000 N 
ATOM      5  C   UNL     1       1.620   8.093  20.059  0.00  0.00    +0.000 C 
ATOM      6  O   UNL     1       1.670   8.418  21.246  0.00  0.00    +0.000 OA
ATOM      7  N   UNL     1       1.258   8.966  19.059  0.00  0.00    +0.000 N 
ATOM      8  C   UNL     1       2.222   5.842  20.734  0.00  0.00    +0.000 C 
ATOM      9  C   UNL     1       1.681   4.444  20.441  0.00  0.00    +0.000 C 
ATOM     10  H   UNL     1       0.693   8.557  18.328  0.00  0.00    +0.000 HD
ENDROOT
BRANCH   7  11
ATOM     11  C   UNL     1       0.955  10.326  19.339  0.00  0.00    +0.000 A 
ATOM     12  C   UNL     1      -0.066  10.705  20.216  0.00  0.00    +0.000 A 
ATOM     13  C   UNL     1      -0.354  12.059  20.423  0.00  0.00    +0.000 A 
ATOM     14  C   UNL     1       0.369  13.042  19.749  0.00  0.00    +0.000 A 
ATOM     15  C   UNL     1       1.396  12.674  18.878  0.00  0.00    +0.000 A 
ATOM     16  C   UNL     1       1.692  11.325  18.696  0.00  0.00    +0.000 A 
ATOM     17  F   UNL     1       2.667  10.981  17.839  0.00  0.00    +0.000 F 
ENDBRANCH   7  11
BRANCH   1  18
ATOM     18  S   UNL     1       3.442   2.853  19.080  0.00  0.00    +0.000 S 
ATOM     19  O   UNL     1       3.001   1.742  18.271  0.00  0.00    +0.000 OA
ATOM     20  O   UNL     1       3.949   2.651  20.421  0.00  0.00    +0.000 OA
BRANCH  18  26
ATOM     21  O   UNL     1       7.911   5.501  13.553  0.00  0.00    +0.000 OA
ATOM     22  C   UNL     1       7.275   5.189  14.546  0.00  0.00    +0.000 C 
ATOM     23  C   UNL     1       6.114   4.188  14.618  0.00  0.00    +0.000 C 
ATOM     24  C   UNL     1       5.773   4.202  16.079  0.00  0.00    +0.000 A 
ATOM     25  C   UNL     1       4.813   3.485  16.772  0.00  0.00    +0.000 A 
ATOM     26  C   UNL     1       4.702   3.713  18.150  0.00  0.00    +0.000 A 
ATOM     27  C   UNL     1       5.517   4.666  18.803  0.00  0.00    +0.000 A 
ATOM     28  C   UNL     1       6.488   5.376  18.087  0.00  0.00    +0.000 A 
ATOM     29  C   UNL     1       6.592   5.117  16.736  0.00  0.00    +0.000 A 
ATOM     30  N   UNL     1       7.473   5.688  15.829  0.00  0.00    +0.000 N 
ATOM     31  H   UNL     1       8.183   6.374  16.041  0.00  0.00    +0.000 HD
ENDBRANCH  18  26
ENDBRANCH   1  18
TORSDOF 3
ENDMDL
MODEL 3
REMARK VINA RESULT:      -8.7      1.202      1.285
REMARK  Name = 
REMARK  3 active torsions:
REMARK  status: ('A' for Active; 'I' for Inactive)
REMARK    1  A    between atoms: C_6  and  S_7
REMARK    2  A    between atoms: S_7  and  N_10
REMARK    3  A    between atoms: N_16  and  C_17
REMARK                            x       y       z     vdW  Elec       q    Type
REMARK                         _______ _______ _______ _____ _____    ______ ____
ROOT
ATOM      1  N   UNL     1       3.023   4.691  18.800  0.00  0.00    +0.000 NA
ATOM      2  C   UNL     1       2.971   5.818  17.845  0.00  0.00    +0.000 C 
ATOM      3  C   UNL     1       2.898   7.179  18.584  0.00  0.00    +0.000 C 
ATOM      4  N   UNL     1       1.949   7.177  19.717  0.00  0.00    +0.000 N 
ATOM      5  C   UNL     1       1.323   8.294  20.257  0.00  0.00    +0.000 C 
ATOM      6  O   UNL     1       0.863   8.276  21.398  0.00  0.00    +0.000 OA
ATOM      7  N   UNL     1       1.193   9.374  19.414  0.00  0.00    +0.000 N 
ATOM      8  C   UNL     1       2.065   6.012  20.608  0.00  0.00    +0.000 C 
ATOM      9  C   UNL     1       1.962   4.707  19.820  0.00  0.00    +0.000 C 
ATOM     10  H   UNL     1       1.033   9.134  18.445  0.00  0.00    +0.000 HD
ENDROOT
BRANCH   7  11
ATOM     11  C   UNL     1       0.544  10.566  19.835  0.00  0.00    +0.000 A 
ATOM     12  C   UNL     1       1.167  11.513  20.655  0.00  0.00    +0.000 A 
ATOM     13  C   UNL     1       0.469  12.650  21.079  0.00  0.00    +0.000 A 
ATOM     14  C   UNL     1      -0.857  12.843  20.694  0.00  0.00    +0.000 A 
ATOM     15  C   UNL     1      -1.484  11.909  19.868  0.00  0.00    +0.000 A 
ATOM     16  C   UNL     1      -0.774  10.792  19.431  0.00  0.00    +0.000 A 
ATOM     17  F   UNL     1      -1.395   9.888  18.656  0.00  0.00    +0.000 F 
ENDBRANCH   7  11
BRANCH   1  18
ATOM     18  S   UNL     1       4.381   3.735  18.990  0.00  0.00    +0.000 S 
ATOM     19  O   UNL     1       4.027   2.360  18.731  0.00  0.00    +0.000 OA
ATOM     20  O   UNL     1       5.039   4.122  20.220  0.00  0.00    +0.000 OA
BRANCH  18  26
ATOM     21  O   UNL     1       7.495   4.791  12.155  0.00  0.00    +0.000 OA
ATOM     22  C   UNL     1       7.102   4.749  13.309  0.00  0.00    +0.000 C 
ATOM     23  C   UNL     1       5.966   3.876  13.862  0.00  0.00    +0.000 C 
ATOM     24  C   UNL     1       5.976   4.229  15.321  0.00  0.00    +0.000 A 
ATOM     25  C   UNL     1       5.189   3.751  16.353  0.00  0.00    +0.000 A 
ATOM     26  C   UNL     1       5.408   4.278  17.634  0.00  0.00    +0.000 A 
ATOM     27  C   UNL     1       6.375   5.286  17.855  0.00  0.00    +0.000 A 
ATOM     28  C   UNL     1       7.168   5.750  16.799  0.00  0.00    +0.000 A 
ATOM     29  C   UNL     1       6.948   5.200  15.553  0.00  0.00    +0.000 A 
ATOM     30  N   UNL     1       7.605   5.495  14.368  0.00  0.00    +0.000 N 
ATOM     31  H   UNL     1       8.360   6.156  14.256  0.00  0.00    +0.000 HD
ENDBRANCH  18  26
ENDBRANCH   1  18
TORSDOF 3
ENDMDL
MODEL 4
REMARK VINA RESULT:      -8.7      1.883      2.300
REMARK  Name = 
REMARK  3 active torsions:
REMARK  status: ('A' for Active; 'I' for Inactive)
REMARK    1  A    between atoms: C_6  and  S_7
REMARK    2  A    between atoms: S_7  and  N_10
REMARK    3  A    between atoms: N_16  and  C_17
REMARK                            x       y       z     vdW  Elec       q    Type
REMARK                         _______ _______ _______ _____ _____    ______ ____
ROOT
ATOM      1  N   UNL     1       3.525   4.624  19.779  0.00  0.00    +0.000 NA
ATOM      2  C   UNL     1       2.562   4.679  20.899  0.00  0.00    +0.000 C 
ATOM      3  C   UNL     1       1.449   5.725  20.633  0.00  0.00    +0.000 C 
ATOM      4  N   UNL     1       1.964   6.998  20.088  0.00  0.00    +0.000 N 
ATOM      5  C   UNL     1       1.338   8.235  20.182  0.00  0.00    +0.000 C 
ATOM      6  O   UNL     1       1.615   9.149  19.406  0.00  0.00    +0.000 OA
ATOM      7  N   UNL     1       0.458   8.384  21.230  0.00  0.00    +0.000 N 
ATOM      8  C   UNL     1       2.925   6.846  18.984  0.00  0.00    +0.000 C 
ATOM      9  C   UNL     1       4.079   5.930  19.386  0.00  0.00    +0.000 C 
ATOM     10  H   UNL     1       0.723   7.896  22.074  0.00  0.00    +0.000 HD
ENDROOT
BRANCH   7  11
ATOM     11  C   UNL     1      -0.223   9.611  21.455  0.00  0.00    +0.000 A 
ATOM     12  C   UNL     1      -0.670  10.426  20.410  0.00  0.00    +0.000 A 
ATOM     13  C   UNL     1      -1.296  11.648  20.684  0.00  0.00    +0.000 A 
ATOM     14  C   UNL     1      -1.471  12.066  22.003  0.00  0.00    +0.000 A 
ATOM     15  C   UNL     1      -1.037  11.255  23.052  0.00  0.00    +0.000 A 
ATOM     16  C   UNL     1      -0.436  10.030  22.771  0.00  0.00    +0.000 A 
ATOM     17  F   UNL     1      -0.001   9.268  23.787  0.00  0.00    +0.000 F 
ENDBRANCH   7  11
BRANCH   1  18
ATOM     18  S   UNL     1       3.655   3.299  18.768  0.00  0.00    +0.000 S 
ATOM     19  O   UNL     1       2.438   3.172  18.002  0.00  0.00    +0.000 OA
ATOM     20  O   UNL     1       4.175   2.190  19.539  0.00  0.00    +0.000 OA
BRANCH  18  26
ATOM     21  O   UNL     1       7.647   5.066  12.565  0.00  0.00    +0.000 OA
ATOM     22  C   UNL     1       7.140   4.848  13.653  0.00  0.00    +0.000 C 
ATOM     23  C   UNL     1       5.740   4.277  13.917  0.00  0.00    +0.000 C 
ATOM     24  C   UNL     1       5.704   4.206  15.416  0.00  0.00    +0.000 A 
ATOM     25  C   UNL     1       4.703   3.753  16.257  0.00  0.00    +0.000 A 
ATOM     26  C   UNL     1       4.937   3.820  17.638  0.00  0.00    +0.000 A 
ATOM     27  C   UNL     1       6.136   4.363  18.153  0.00  0.00    +0.000 A 
ATOM     28  C   UNL     1       7.141   4.809  17.285  0.00  0.00    +0.000 A 
ATOM     29  C   UNL     1       6.895   4.712  15.931  0.00  0.00    +0.000 A 
ATOM     30  N   UNL     1       7.733   5.081  14.889  0.00  0.00    +0.000 N 
ATOM     31  H   UNL     1       8.662   5.467  14.981  0.00  0.00    +0.000 HD
ENDBRANCH  18  26
ENDBRANCH   1  18
TORSDOF 3
ENDMDL
MODEL 5
REMARK VINA RESULT:      -8.6      4.529     10.572
REMARK  Name = 
REMARK  3 active torsions:
REMARK  status: ('A' for Active; 'I' for Inactive)
REMARK    1  A    between atoms: C_6  and  S_7
REMARK    2  A    between atoms: S_7  and  N_10
REMARK    3  A    between atoms: N_16  and  C_17
REMARK                            x       y       z     vdW  Elec       q    Type
REMARK                         _______ _______ _______ _____ _____    ______ ____
ROOT
ATOM      1  N   UNL     1      -0.333  10.945  20.029  0.00  0.00    +0.000 NA
ATOM      2  C   UNL     1      -0.275   9.712  20.843  0.00  0.00    +0.000 C 
ATOM      3  C   UNL     1       1.057   8.953  20.619  0.00  0.00    +0.000 C 
ATOM      4  N   UNL     1       1.451   8.873  19.197  0.00  0.00    +0.000 N 
ATOM      5  C   UNL     1       2.283   7.912  18.636  0.00  0.00    +0.000 C 
ATOM      6  O   UNL     1       2.860   8.116  17.567  0.00  0.00    +0.000 OA
ATOM      7  N   UNL     1       2.357   6.715  19.310  0.00  0.00    +0.000 N 
ATOM      8  C   UNL     1       1.351  10.145  18.463  0.00  0.00    +0.000 C 
ATOM      9  C   UNL     1      -0.047  10.746  18.599  0.00  0.00    +0.000 C 
ATOM     10  H   UNL     1       1.494   6.427  19.752  0.00  0.00    +0.000 HD
ENDROOT
BRANCH   7  11
ATOM     11  C   UNL     1       3.149   5.639  18.823  0.00  0.00    +0.000 A 
ATOM     12  C   UNL     1       4.474   5.439  19.224  0.00  0.00    +0.000 A 
ATOM     13  C   UNL     1       5.226   4.391  18.681  0.00  0.00    +0.000 A 
ATOM     14  C   UNL     1       4.662   3.543  17.728  0.00  0.00    +0.000 A 
ATOM     15  C   UNL     1       3.339   3.729  17.329  0.00  0.00    +0.000 A 
ATOM     16  C   UNL     1       2.589   4.760  17.892  0.00  0.00    +0.000 A 
ATOM     17  F   UNL     1       1.323   4.945  17.484  0.00  0.00    +0.000 F 
ENDBRANCH   7  11
BRANCH   1  18
ATOM     18  S   UNL     1      -0.294  12.473  20.707  0.00  0.00    +0.000 S 
ATOM     19  O   UNL     1      -0.311  13.456  19.650  0.00  0.00    +0.000 OA
ATOM     20  O   UNL     1       0.729  12.489  21.731  0.00  0.00    +0.000 OA
BRANCH  18  26
ATOM     21  O   UNL     1      -7.707  12.965  22.240  0.00  0.00    +0.000 OA
ATOM     22  C   UNL     1      -6.494  12.855  22.165  0.00  0.00    +0.000 C 
ATOM     23  C   UNL     1      -5.644  12.904  20.888  0.00  0.00    +0.000 C 
ATOM     24  C   UNL     1      -4.252  12.749  21.428  0.00  0.00    +0.000 A 
ATOM     25  C   UNL     1      -3.040  12.735  20.760  0.00  0.00    +0.000 A 
ATOM     26  C   UNL     1      -1.880  12.554  21.527  0.00  0.00    +0.000 A 
ATOM     27  C   UNL     1      -1.948  12.359  22.925  0.00  0.00    +0.000 A 
ATOM     28  C   UNL     1      -3.184  12.386  23.583  0.00  0.00    +0.000 A 
ATOM     29  C   UNL     1      -4.308  12.586  22.810  0.00  0.00    +0.000 A 
ATOM     30  N   UNL     1      -5.627  12.655  23.233  0.00  0.00    +0.000 N 
ATOM     31  H   UNL     1      -5.950  12.579  24.187  0.00  0.00    +0.000 HD
ENDBRANCH  18  26
ENDBRANCH   1  18
TORSDOF 3
ENDMDL
MODEL 6
REMARK VINA RESULT:      -8.6      4.702     10.811
REMARK  Name = 
REMARK  3 active torsions:
REMARK  status: ('A' for Active; 'I' for Inactive)
REMARK    1  A    between atoms: C_6  and  S_7
REMARK    2  A    between atoms: S_7  and  N_10
REMARK    3  A    between atoms: N_16  and  C_17
REMARK                            x       y       z     vdW  Elec       q    Type
REMARK                         _______ _______ _______ _____ _____    ______ ____
ROOT
ATOM      1  N   UNL     1      -0.521  10.569  20.710  0.00  0.00    +0.000 NA
ATOM      2  C   UNL     1      -0.307   9.290  21.419  0.00  0.00    +0.000 C 
ATOM      3  C   UNL     1       1.059   8.660  21.043  0.00  0.00    +0.000 C 
ATOM      4  N   UNL     1       1.347   8.715  19.594  0.00  0.00    +0.000 N 
ATOM      5  C   UNL     1       2.205   7.869  18.903  0.00  0.00    +0.000 C 
ATOM      6  O   UNL     1       2.681   8.195  17.816  0.00  0.00    +0.000 OA
ATOM      7  N   UNL     1       2.421   6.636  19.474  0.00  0.00    +0.000 N 
ATOM      8  C   UNL     1       1.094  10.024  18.971  0.00  0.00    +0.000 C 
ATOM      9  C   UNL     1      -0.330  10.498  19.252  0.00  0.00    +0.000 C 
ATOM     10  H   UNL     1       1.620   6.248  19.953  0.00  0.00    +0.000 HD
ENDROOT
BRANCH   7  11
ATOM     11  C   UNL     1       3.254   5.667  18.851  0.00  0.00    +0.000 A 
ATOM     12  C   UNL     1       4.614   5.540  19.150  0.00  0.00    +0.000 A 
ATOM     13  C   UNL     1       5.401   4.599  18.475  0.00  0.00    +0.000 A 
ATOM     14  C   UNL     1       4.836   3.787  17.492  0.00  0.00    +0.000 A 
ATOM     15  C   UNL     1       3.478   3.901  17.193  0.00  0.00    +0.000 A 
ATOM     16  C   UNL     1       2.696   4.823  17.887  0.00  0.00    +0.000 A 
ATOM     17  F   UNL     1       1.395   4.940  17.576  0.00  0.00    +0.000 F 
ENDBRANCH   7  11
BRANCH   1  18
ATOM     18  S   UNL     1      -0.547  12.042  21.500  0.00  0.00    +0.000 S 
ATOM     19  O   UNL     1      -0.049  13.062  20.609  0.00  0.00    +0.000 OA
ATOM     20  O   UNL     1       0.017  11.858  22.821  0.00  0.00    +0.000 OA
BRANCH  18  26
ATOM     21  O   UNL     1      -7.500  13.099  24.340  0.00  0.00    +0.000 OA
ATOM     22  C   UNL     1      -6.454  12.968  23.727  0.00  0.00    +0.000 C 
ATOM     23  C   UNL     1      -5.071  12.669  24.324  0.00  0.00    +0.000 C 
ATOM     24  C   UNL     1      -4.208  12.587  23.098  0.00  0.00    +0.000 A 
ATOM     25  C   UNL     1      -2.855  12.321  22.984  0.00  0.00    +0.000 A 
ATOM     26  C   UNL     1      -2.300  12.325  21.697  0.00  0.00    +0.000 A 
ATOM     27  C   UNL     1      -3.086  12.624  20.561  0.00  0.00    +0.000 A 
ATOM     28  C   UNL     1      -4.455  12.882  20.696  0.00  0.00    +0.000 A 
ATOM     29  C   UNL     1      -4.982  12.851  21.970  0.00  0.00    +0.000 A 
ATOM     30  N   UNL     1      -6.299  13.068  22.349  0.00  0.00    +0.000 N 
ATOM     31  H   UNL     1      -7.070  13.270  21.730  0.00  0.00    +0.000 HD
ENDBRANCH  18  26
ENDBRANCH   1  18
TORSDOF 3
ENDMDL
MODEL 7
REMARK VINA RESULT:      -8.4      1.146      1.471
REMARK  Name = 
REMARK  3 active torsions:
REMARK  status: ('A' for Active; 'I' for Inactive)
REMARK    1  A    between atoms: C_6  and  S_7
REMARK    2  A    between atoms: S_7  and  N_10
REMARK    3  A    between atoms: N_16  and  C_17
REMARK                            x       y       z     vdW  Elec       q    Type
REMARK                         _______ _______ _______ _____ _____    ______ ____
ROOT
ATOM      1  N   UNL     1       2.977   4.548  18.955  0.00  0.00    +0.000 NA
ATOM      2  C   UNL     1       2.712   5.336  17.733  0.00  0.00    +0.000 C 
ATOM      3  C   UNL     1       2.795   6.858  18.015  0.00  0.00    +0.000 C 
ATOM      4  N   UNL     1       2.117   7.256  19.266  0.00  0.00    +0.000 N 
ATOM      5  C   UNL     1       1.619   8.521  19.554  0.00  0.00    +0.000 C 
ATOM      6  O   UNL     1       1.420   8.877  20.716  0.00  0.00    +0.000 OA
ATOM      7  N   UNL     1       1.302   9.303  18.467  0.00  0.00    +0.000 N 
ATOM      8  C   UNL     1       2.432   6.409  20.428  0.00  0.00    +0.000 C 
ATOM      9  C   UNL     1       2.166   4.937  20.120  0.00  0.00    +0.000 C 
ATOM     10  H   UNL     1       0.935   8.792  17.675  0.00  0.00    +0.000 HD
ENDROOT
BRANCH   7  11
ATOM     11  C   UNL     1       0.755  10.604  18.627  0.00  0.00    +0.000 A 
ATOM     12  C   UNL     1      -0.590  10.822  18.944  0.00  0.00    +0.000 A 
ATOM     13  C   UNL     1      -1.091  12.125  19.046  0.00  0.00    +0.000 A 
ATOM     14  C   UNL     1      -0.254  13.218  18.823  0.00  0.00    +0.000 A 
ATOM     15  C   UNL     1       1.091  13.011  18.515  0.00  0.00    +0.000 A 
ATOM     16  C   UNL     1       1.587  11.711  18.439  0.00  0.00    +0.000 A 
ATOM     17  F   UNL     1       2.878  11.523  18.119  0.00  0.00    +0.000 F 
ENDBRANCH   7  11
BRANCH   1  18
ATOM     18  S   UNL     1       4.349   3.610  19.142  0.00  0.00    +0.000 S 
ATOM     19  O   UNL     1       4.021   2.235  18.851  0.00  0.00    +0.000 OA
ATOM     20  O   UNL     1       4.987   3.983  20.386  0.00  0.00    +0.000 OA
BRANCH  18  26
ATOM     21  O   UNL     1       7.527   4.850  12.367  0.00  0.00    +0.000 OA
ATOM     22  C   UNL     1       7.120   4.780  13.515  0.00  0.00    +0.000 C 
ATOM     23  C   UNL     1       5.996   3.875  14.038  0.00  0.00    +0.000 C 
ATOM     24  C   UNL     1       5.981   4.202  15.502  0.00  0.00    +0.000 A 
ATOM     25  C   UNL     1       5.190   3.690  16.516  0.00  0.00    +0.000 A 
ATOM     26  C   UNL     1       5.382   4.198  17.808  0.00  0.00    +0.000 A 
ATOM     27  C   UNL     1       6.325   5.221  18.060  0.00  0.00    +0.000 A 
ATOM     28  C   UNL     1       7.122   5.720  17.023  0.00  0.00    +0.000 A 
ATOM     29  C   UNL     1       6.929   5.188  15.764  0.00  0.00    +0.000 A 
ATOM     30  N   UNL     1       7.595   5.517  14.593  0.00  0.00    +0.000 N 
ATOM     31  H   UNL     1       8.338   6.195  14.503  0.00  0.00    +0.000 HD
ENDBRANCH  18  26
ENDBRANCH   1  18
TORSDOF 3
ENDMDL
MODEL 8
REMARK VINA RESULT:      -8.1      3.886      8.667
REMARK  Name = 
REMARK  3 active torsions:
REMARK  status: ('A' for Active; 'I' for Inactive)
REMARK    1  A    between atoms: C_6  and  S_7
REMARK    2  A    between atoms: S_7  and  N_10
REMARK    3  A    between atoms: N_16  and  C_17
REMARK                            x       y       z     vdW  Elec       q    Type
REMARK                         _______ _______ _______ _____ _____    ______ ____
ROOT
ATOM      1  N   UNL     1       0.992  10.403  21.540  0.00  0.00    +0.000 NA
ATOM      2  C   UNL     1       1.812  10.271  20.318  0.00  0.00    +0.000 C 
ATOM      3  C   UNL     1       1.577   8.904  19.626  0.00  0.00    +0.000 C 
ATOM      4  N   UNL     1       1.543   7.770  20.574  0.00  0.00    +0.000 N 
ATOM      5  C   UNL     1       1.814   6.443  20.264  0.00  0.00    +0.000 C 
ATOM      6  O   UNL     1       1.410   5.527  20.980  0.00  0.00    +0.000 OA
ATOM      7  N   UNL     1       2.614   6.235  19.163  0.00  0.00    +0.000 N 
ATOM      8  C   UNL     1       0.710   7.995  21.766  0.00  0.00    +0.000 C 
ATOM      9  C   UNL     1       1.118   9.280  22.483  0.00  0.00    +0.000 C 
ATOM     10  H   UNL     1       3.331   6.934  19.027  0.00  0.00    +0.000 HD
ENDROOT
BRANCH   7  11
ATOM     11  C   UNL     1       2.990   4.925  18.759  0.00  0.00    +0.000 A 
ATOM     12  C   UNL     1       4.139   4.290  19.243  0.00  0.00    +0.000 A 
ATOM     13  C   UNL     1       4.490   3.017  18.780  0.00  0.00    +0.000 A 
ATOM     14  C   UNL     1       3.703   2.375  17.825  0.00  0.00    +0.000 A 
ATOM     15  C   UNL     1       2.550   2.997  17.343  0.00  0.00    +0.000 A 
ATOM     16  C   UNL     1       2.194   4.254  17.827  0.00  0.00    +0.000 A 
ATOM     17  F   UNL     1       1.096   4.854  17.340  0.00  0.00    +0.000 F 
ENDBRANCH   7  11
BRANCH   1  18
ATOM     18  S   UNL     1      -0.279  11.484  21.658  0.00  0.00    +0.000 S 
ATOM     19  O   UNL     1       0.244  12.788  21.988  0.00  0.00    +0.000 OA
ATOM     20  O   UNL     1      -1.323  10.870  22.451  0.00  0.00    +0.000 OA
BRANCH  18  26
ATOM     21  O   UNL     1      -3.685  10.053  15.034  0.00  0.00    +0.000 OA
ATOM     22  C   UNL     1      -3.090  10.436  16.027  0.00  0.00    +0.000 C 
ATOM     23  C   UNL     1      -2.996   9.714  17.379  0.00  0.00    +0.000 C 
ATOM     24  C   UNL     1      -2.121  10.639  18.173  0.00  0.00    +0.000 A 
ATOM     25  C   UNL     1      -1.656  10.522  19.471  0.00  0.00    +0.000 A 
ATOM     26  C   UNL     1      -0.858  11.560  19.970  0.00  0.00    +0.000 A 
ATOM     27  C   UNL     1      -0.566  12.701  19.188  0.00  0.00    +0.000 A 
ATOM     28  C   UNL     1      -1.038  12.797  17.873  0.00  0.00    +0.000 A 
ATOM     29  C   UNL     1      -1.804  11.752  17.398  0.00  0.00    +0.000 A 
ATOM     30  N   UNL     1      -2.373  11.622  16.140  0.00  0.00    +0.000 N 
ATOM     31  H   UNL     1      -2.291  12.281  15.380  0.00  0.00    +0.000 HD
ENDBRANCH  18  26
ENDBRANCH   1  18
TORSDOF 3
ENDMDL
MODEL 9
REMARK VINA RESULT:      -8.1      1.571      2.010
REMARK  Name = 
REMARK  3 active torsions:
REMARK  status: ('A' for Active; 'I' for Inactive)
REMARK    1  A    between atoms: C_6  and  S_7
REMARK    2  A    between atoms: S_7  and  N_10
REMARK    3  A    between atoms: N_16  and  C_17
REMARK                            x       y       z     vdW  Elec       q    Type
REMARK                         _______ _______ _______ _____ _____    ______ ____
ROOT
ATOM      1  N   UNL     1       3.975   5.282  19.324  0.00  0.00    +0.000 NA
ATOM      2  C   UNL     1       2.870   5.591  20.256  0.00  0.00    +0.000 C 
ATOM      3  C   UNL     1       1.801   6.489  19.583  0.00  0.00    +0.000 C 
ATOM      4  N   UNL     1       2.382   7.595  18.793  0.00  0.00    +0.000 N 
ATOM      5  C   UNL     1       1.747   8.790  18.478  0.00  0.00    +0.000 C 
ATOM      6  O   UNL     1       2.124   9.480  17.531  0.00  0.00    +0.000 OA
ATOM      7  N   UNL     1       0.734   9.174  19.326  0.00  0.00    +0.000 N 
ATOM      8  C   UNL     1       3.483   7.197  17.902  0.00  0.00    +0.000 C 
ATOM      9  C   UNL     1       4.574   6.460  18.676  0.00  0.00    +0.000 C 
ATOM     10  H   UNL     1       0.884   8.932  20.296  0.00  0.00    +0.000 HD
ENDROOT
BRANCH   7  11
ATOM     11  C   UNL     1       0.026  10.391  19.131  0.00  0.00    +0.000 A 
ATOM     12  C   UNL     1      -1.040  10.506  18.233  0.00  0.00    +0.000 A 
ATOM     13  C   UNL     1      -1.675  11.739  18.044  0.00  0.00    +0.000 A 
ATOM     14  C   UNL     1      -1.243  12.865  18.743  0.00  0.00    +0.000 A 
ATOM     15  C   UNL     1      -0.187  12.758  19.647  0.00  0.00    +0.000 A 
ATOM     16  C   UNL     1       0.425  11.522  19.847  0.00  0.00    +0.000 A 
ATOM     17  F   UNL     1       1.456  11.436  20.703  0.00  0.00    +0.000 F 
ENDBRANCH   7  11
BRANCH   1  18
ATOM     18  S   UNL     1       4.242   3.745  18.722  0.00  0.00    +0.000 S 
ATOM     19  O   UNL     1       3.014   3.245  18.151  0.00  0.00    +0.000 OA
ATOM     20  O   UNL     1       4.968   2.988  19.719  0.00  0.00    +0.000 OA
BRANCH  18  26
ATOM     21  O   UNL     1       7.341   4.572  11.849  0.00  0.00    +0.000 OA
ATOM     22  C   UNL     1       6.992   4.509  13.016  0.00  0.00    +0.000 C 
ATOM     23  C   UNL     1       5.629   4.039  13.543  0.00  0.00    +0.000 C 
ATOM     24  C   UNL     1       5.808   4.150  15.029  0.00  0.00    +0.000 A 
ATOM     25  C   UNL     1       4.927   3.847  16.053  0.00  0.00    +0.000 A 
ATOM     26  C   UNL     1       5.361   4.068  17.368  0.00  0.00    +0.000 A 
ATOM     27  C   UNL     1       6.637   4.612  17.637  0.00  0.00    +0.000 A 
ATOM     28  C   UNL     1       7.517   4.904  16.588  0.00  0.00    +0.000 A 
ATOM     29  C   UNL     1       7.076   4.657  15.304  0.00  0.00    +0.000 A 
ATOM     30  N   UNL     1       7.764   4.860  14.117  0.00  0.00    +0.000 N 
ATOM     31  H   UNL     1       8.707   5.211  14.029  0.00  0.00    +0.000 HD
ENDBRANCH  18  26
ENDBRANCH   1  18
TORSDOF 3
ENDMDL
