MODEL 1
REMARK VINA RESULT:      -9.3      0.000      0.000
REMARK  Name = 
REMARK  5 active torsions:
REMARK  status: ('A' for Active; 'I' for Inactive)
REMARK    1  A    between atoms: C_1  and  C_2
REMARK    2  A    between atoms: C_7  and  C_8
REMARK    3  A    between atoms: N_10  and  C_11
REMARK    4  A    between atoms: N_15  and  C_16
REMARK    5  A    between atoms: C_16  and  C_17
REMARK                            x       y       z     vdW  Elec       q    Type
REMARK                         _______ _______ _______ _____ _____    ______ ____
ROOT
ATOM      1  C   UNL     1       2.306   6.617  19.370  0.00  0.00    +0.000 C 
ATOM      2  O   UNL     1       2.241   6.244  18.210  0.00  0.00    +0.000 OA
ATOM      3  N   UNL     1       2.885   5.787  20.394  0.00  0.00    +0.000 N 
ATOM      4  H   UNL     1       2.810   6.062  21.367  0.00  0.00    +0.000 HD
ENDROOT
BRANCH   1  11
ATOM      5  C   UNL     1      -1.366  12.815  22.604  0.00  0.00    +0.000 C 
ATOM      6  C   UNL     1      -0.695  11.520  22.251  0.00  0.00    +0.000 A 
ATOM      7  C   UNL     1      -0.665  10.466  23.154  0.00  0.00    +0.000 A 
ATOM      8  C   UNL     1      -0.048   9.281  22.770  0.00  0.00    +0.000 A 
ATOM      9  C   UNL     1       0.523   9.176  21.496  0.00  0.00    +0.000 A 
ATOM     10  C   UNL     1       1.142   7.992  21.060  0.00  0.00    +0.000 A 
ATOM     11  C   UNL     1       1.705   7.909  19.778  0.00  0.00    +0.000 A 
ATOM     12  C   UNL     1       1.638   9.011  18.927  0.00  0.00    +0.000 A 
ATOM     13  C   UNL     1       1.016  10.187  19.376  0.00  0.00    +0.000 A 
ATOM     14  C   UNL     1       0.455  10.294  20.645  0.00  0.00    +0.000 A 
ATOM     15  N   UNL     1      -0.138  11.441  21.016  0.00  0.00    +0.000 NA
ENDBRANCH   1  11
BRANCH   3  16
ATOM     16  C   UNL     1       3.484   4.558  20.102  0.00  0.00    +0.000 A 
ATOM     17  C   UNL     1       3.008   3.298  20.395  0.00  0.00    +0.000 A 
ATOM     18  C   UNL     1       3.965   2.404  19.883  0.00  0.00    +0.000 A 
ATOM     19  N   UNL     1       4.986   3.035  19.306  0.00  0.00    +0.000 NA
ATOM     20  N   UNL     1       4.676   4.345  19.440  0.00  0.00    +0.000 N 
BRANCH  20  21
ATOM     21  C   UNL     1       5.658   5.333  19.023  0.00  0.00    +0.000 C 
BRANCH  21  22
ATOM     22  C   UNL     1       5.919   5.248  17.548  0.00  0.00    +0.000 A 
ATOM     23  C   UNL     1       4.995   5.751  16.619  0.00  0.00    +0.000 A 
ATOM     24  C   UNL     1       5.269   5.691  15.251  0.00  0.00    +0.000 A 
ATOM     25  C   UNL     1       6.465   5.131  14.799  0.00  0.00    +0.000 A 
ATOM     26  C   UNL     1       7.390   4.631  15.716  0.00  0.00    +0.000 A 
ATOM     27  C   UNL     1       7.113   4.699  17.078  0.00  0.00    +0.000 A 
ATOM     28  F   UNL     1       8.019   4.246  17.961  0.00  0.00    +0.000 F 
ENDBRANCH  21  22
ENDBRANCH  20  21
ENDBRANCH   3  16
TORSDOF 4
ENDMDL
MODEL 2
REMARK VINA RESULT:      -9.2      1.878      2.369
REMARK  Name = 
REMARK  5 active torsions:
REMARK  status: ('A' for Active; 'I' for Inactive)
REMARK    1  A    between atoms: C_1  and  C_2
REMARK    2  A    between atoms: C_7  and  C_8
REMARK    3  A    between atoms: N_10  and  C_11
REMARK    4  A    between atoms: N_15  and  C_16
REMARK    5  A    between atoms: C_16  and  C_17
REMARK                            x       y       z     vdW  Elec       q    Type
REMARK                         _______ _______ _______ _____ _____    ______ ____
ROOT
ATOM      1  C   UNL     1       2.907   6.208  19.049  0.00  0.00    +0.000 C 
ATOM      2  O   UNL     1       3.862   5.978  19.773  0.00  0.00    +0.000 OA
ATOM      3  N   UNL     1       2.388   5.208  18.153  0.00  0.00    +0.000 N 
ATOM      4  H   UNL     1       1.681   5.462  17.471  0.00  0.00    +0.000 HD
ENDROOT
BRANCH   1  11
ATOM      5  C   UNL     1      -0.887  13.072  19.967  0.00  0.00    +0.000 C 
ATOM      6  C   UNL     1      -0.224  11.730  20.072  0.00  0.00    +0.000 A 
ATOM      7  C   UNL     1      -0.324  10.977  21.233  0.00  0.00    +0.000 A 
ATOM      8  C   UNL     1       0.292   9.731  21.272  0.00  0.00    +0.000 A 
ATOM      9  C   UNL     1       0.991   9.267  20.152  0.00  0.00    +0.000 A 
ATOM     10  C   UNL     1       1.615   8.008  20.139  0.00  0.00    +0.000 A 
ATOM     11  C   UNL     1       2.307   7.562  19.005  0.00  0.00    +0.000 A 
ATOM     12  C   UNL     1       2.367   8.376  17.875  0.00  0.00    +0.000 A 
ATOM     13  C   UNL     1       1.738   9.631  17.900  0.00  0.00    +0.000 A 
ATOM     14  C   UNL     1       1.050  10.096  19.016  0.00  0.00    +0.000 A 
ATOM     15  N   UNL     1       0.458  11.301  18.980  0.00  0.00    +0.000 NA
ENDBRANCH   1  11
BRANCH   3  16
ATOM     16  C   UNL     1       2.883   3.901  18.131  0.00  0.00    +0.000 A 
ATOM     17  C   UNL     1       2.529   2.851  18.951  0.00  0.00    +0.000 A 
ATOM     18  C   UNL     1       3.298   1.757  18.517  0.00  0.00    +0.000 A 
ATOM     19  N   UNL     1       4.094   2.073  17.498  0.00  0.00    +0.000 NA
ATOM     20  N   UNL     1       3.826   3.379  17.269  0.00  0.00    +0.000 N 
BRANCH  20  21
ATOM     21  C   UNL     1       4.630   4.086  16.285  0.00  0.00    +0.000 C 
BRANCH  21  22
ATOM     22  C   UNL     1       5.640   4.975  16.950  0.00  0.00    +0.000 A 
ATOM     23  C   UNL     1       6.627   4.444  17.794  0.00  0.00    +0.000 A 
ATOM     24  C   UNL     1       7.578   5.283  18.380  0.00  0.00    +0.000 A 
ATOM     25  C   UNL     1       7.552   6.656  18.128  0.00  0.00    +0.000 A 
ATOM     26  C   UNL     1       6.575   7.192  17.288  0.00  0.00    +0.000 A 
ATOM     27  C   UNL     1       5.635   6.349  16.704  0.00  0.00    +0.000 A 
ATOM     28  F   UNL     1       4.714   6.862  15.870  0.00  0.00    +0.000 F 
ENDBRANCH  21  22
ENDBRANCH  20  21
ENDBRANCH   3  16
TORSDOF 4
ENDMDL
MODEL 3
REMARK VINA RESULT:      -9.2      1.831      3.555
REMARK  Name = 
REMARK  5 active torsions:
REMARK  status: ('A' for Active; 'I' for Inactive)
REMARK    1  A    between atoms: C_1  and  C_2
REMARK    2  A    between atoms: C_7  and  C_8
REMARK    3  A    between atoms: N_10  and  C_11
REMARK    4  A    between atoms: N_15  and  C_16
REMARK    5  A    between atoms: C_16  and  C_17
REMARK                            x       y       z     vdW  Elec       q    Type
REMARK                         _______ _______ _______ _____ _____    ______ ____
ROOT
ATOM      1  C   UNL     1       2.543   7.239  18.090  0.00  0.00    +0.000 C 
ATOM      2  O   UNL     1       1.889   6.328  17.608  0.00  0.00    +0.000 OA
ATOM      3  N   UNL     1       3.981   7.234  18.048  0.00  0.00    +0.000 N 
ATOM      4  H   UNL     1       4.503   7.933  18.568  0.00  0.00    +0.000 HD
ENDROOT
BRANCH   1  11
ATOM      5  C   UNL     1      -1.245  12.193  22.934  0.00  0.00    +0.000 C 
ATOM      6  C   UNL     1      -0.495  11.089  22.249  0.00  0.00    +0.000 A 
ATOM      7  C   UNL     1      -0.196   9.911  22.918  0.00  0.00    +0.000 A 
ATOM      8  C   UNL     1       0.483   8.911  22.232  0.00  0.00    +0.000 A 
ATOM      9  C   UNL     1       0.846   9.110  20.895  0.00  0.00    +0.000 A 
ATOM     10  C   UNL     1       1.519   8.121  20.157  0.00  0.00    +0.000 A 
ATOM     11  C   UNL     1       1.870   8.341  18.818  0.00  0.00    +0.000 A 
ATOM     12  C   UNL     1       1.539   9.552  18.213  0.00  0.00    +0.000 A 
ATOM     13  C   UNL     1       0.866  10.531  18.960  0.00  0.00    +0.000 A 
ATOM     14  C   UNL     1       0.511  10.337  20.292  0.00  0.00    +0.000 A 
ATOM     15  N   UNL     1      -0.142  11.304  20.956  0.00  0.00    +0.000 NA
ENDBRANCH   1  11
BRANCH   3  16
ATOM     16  C   UNL     1       4.701   6.241  17.377  0.00  0.00    +0.000 A 
ATOM     17  C   UNL     1       5.154   6.264  16.075  0.00  0.00    +0.000 A 
ATOM     18  C   UNL     1       5.828   5.044  15.888  0.00  0.00    +0.000 A 
ATOM     19  N   UNL     1       5.809   4.285  16.983  0.00  0.00    +0.000 NA
ATOM     20  N   UNL     1       5.126   5.029  17.882  0.00  0.00    +0.000 N 
BRANCH  20  21
ATOM     21  C   UNL     1       4.806   4.434  19.170  0.00  0.00    +0.000 C 
BRANCH  21  22
ATOM     22  C   UNL     1       3.438   3.818  19.156  0.00  0.00    +0.000 A 
ATOM     23  C   UNL     1       3.106   2.814  18.234  0.00  0.00    +0.000 A 
ATOM     24  C   UNL     1       1.838   2.230  18.257  0.00  0.00    +0.000 A 
ATOM     25  C   UNL     1       0.893   2.641  19.197  0.00  0.00    +0.000 A 
ATOM     26  C   UNL     1       1.215   3.638  20.119  0.00  0.00    +0.000 A 
ATOM     27  C   UNL     1       2.483   4.211  20.095  0.00  0.00    +0.000 A 
ATOM     28  F   UNL     1       2.803   5.148  21.003  0.00  0.00    +0.000 F 
ENDBRANCH  21  22
ENDBRANCH  20  21
ENDBRANCH   3  16
TORSDOF 4
ENDMDL
MODEL 4
REMARK VINA RESULT:      -9.1      1.588      3.452
REMARK  Name = 
REMARK  5 active torsions:
REMARK  status: ('A' for Active; 'I' for Inactive)
REMARK    1  A    between atoms: C_1  and  C_2
REMARK    2  A    between atoms: C_7  and  C_8
REMARK    3  A    between atoms: N_10  and  C_11
REMARK    4  A    between atoms: N_15  and  C_16
REMARK    5  A    between atoms: C_16  and  C_17
REMARK                            x       y       z     vdW  Elec       q    Type
REMARK                         _______ _______ _______ _____ _____    ______ ____
ROOT
ATOM      1  C   UNL     1       2.571   7.041  18.052  0.00  0.00    +0.000 C 
ATOM      2  O   UNL     1       1.923   6.136  17.550  0.00  0.00    +0.000 OA
ATOM      3  N   UNL     1       4.010   7.024  18.047  0.00  0.00    +0.000 N 
ATOM      4  H   UNL     1       4.523   7.717  18.581  0.00  0.00    +0.000 HD
ENDROOT
BRANCH   1  11
ATOM      5  C   UNL     1      -1.173  12.052  22.870  0.00  0.00    +0.000 C 
ATOM      6  C   UNL     1      -0.412  10.950  22.195  0.00  0.00    +0.000 A 
ATOM      7  C   UNL     1      -0.023   9.819  22.899  0.00  0.00    +0.000 A 
ATOM      8  C   UNL     1       0.663   8.818  22.222  0.00  0.00    +0.000 A 
ATOM      9  C   UNL     1       0.944   8.968  20.860  0.00  0.00    +0.000 A 
ATOM     10  C   UNL     1       1.621   7.975  20.131  0.00  0.00    +0.000 A 
ATOM     11  C   UNL     1       1.889   8.146  18.766  0.00  0.00    +0.000 A 
ATOM     12  C   UNL     1       1.470   9.312  18.125  0.00  0.00    +0.000 A 
ATOM     13  C   UNL     1       0.795  10.295  18.864  0.00  0.00    +0.000 A 
ATOM     14  C   UNL     1       0.522  10.149  20.221  0.00  0.00    +0.000 A 
ATOM     15  N   UNL     1      -0.139  11.118  20.876  0.00  0.00    +0.000 NA
ENDBRANCH   1  11
BRANCH   3  16
ATOM     16  C   UNL     1       4.739   6.028  17.391  0.00  0.00    +0.000 A 
ATOM     17  C   UNL     1       5.113   5.992  16.064  0.00  0.00    +0.000 A 
ATOM     18  C   UNL     1       5.836   4.796  15.908  0.00  0.00    +0.000 A 
ATOM     19  N   UNL     1       5.919   4.105  17.043  0.00  0.00    +0.000 NA
ATOM     20  N   UNL     1       5.254   4.870  17.938  0.00  0.00    +0.000 N 
BRANCH  20  21
ATOM     21  C   UNL     1       5.040   4.340  19.275  0.00  0.00    +0.000 C 
BRANCH  21  22
ATOM     22  C   UNL     1       3.609   3.937  19.475  0.00  0.00    +0.000 A 
ATOM     23  C   UNL     1       2.799   4.584  20.421  0.00  0.00    +0.000 A 
ATOM     24  C   UNL     1       1.460   4.215  20.571  0.00  0.00    +0.000 A 
ATOM     25  C   UNL     1       0.919   3.201  19.779  0.00  0.00    +0.000 A 
ATOM     26  C   UNL     1       1.716   2.554  18.835  0.00  0.00    +0.000 A 
ATOM     27  C   UNL     1       3.048   2.930  18.687  0.00  0.00    +0.000 A 
ATOM     28  F   UNL     1       3.806   2.328  17.755  0.00  0.00    +0.000 F 
ENDBRANCH  21  22
ENDBRANCH  20  21
ENDBRANCH   3  16
TORSDOF 4
ENDMDL
MODEL 5
REMARK VINA RESULT:      -9.0      1.732      3.680
REMARK  Name = 
REMARK  5 active torsions:
REMARK  status: ('A' for Active; 'I' for Inactive)
REMARK    1  A    between atoms: C_1  and  C_2
REMARK    2  A    between atoms: C_7  and  C_8
REMARK    3  A    between atoms: N_10  and  C_11
REMARK    4  A    between atoms: N_15  and  C_16
REMARK    5  A    between atoms: C_16  and  C_17
REMARK                            x       y       z     vdW  Elec       q    Type
REMARK                         _______ _______ _______ _____ _____    ______ ____
ROOT
ATOM      1  C   UNL     1       2.867   7.794  17.841  0.00  0.00    +0.000 C 
ATOM      2  O   UNL     1       2.987   8.002  16.644  0.00  0.00    +0.000 OA
ATOM      3  N   UNL     1       3.533   6.690  18.480  0.00  0.00    +0.000 N 
ATOM      4  H   UNL     1       3.315   6.460  19.445  0.00  0.00    +0.000 HD
ENDROOT
BRANCH   1  11
ATOM      5  C   UNL     1      -1.749  11.334  23.180  0.00  0.00    +0.000 C 
ATOM      6  C   UNL     1      -0.757  10.530  22.394  0.00  0.00    +0.000 A 
ATOM      7  C   UNL     1       0.021   9.560  23.011  0.00  0.00    +0.000 A 
ATOM      8  C   UNL     1       0.912   8.829  22.234  0.00  0.00    +0.000 A 
ATOM      9  C   UNL     1       1.004   9.082  20.861  0.00  0.00    +0.000 A 
ATOM     10  C   UNL     1       1.879   8.356  20.033  0.00  0.00    +0.000 A 
ATOM     11  C   UNL     1       1.952   8.625  18.659  0.00  0.00    +0.000 A 
ATOM     12  C   UNL     1       1.141   9.617  18.110  0.00  0.00    +0.000 A 
ATOM     13  C   UNL     1       0.272  10.333  18.947  0.00  0.00    +0.000 A 
ATOM     14  C   UNL     1       0.185  10.087  20.315  0.00  0.00    +0.000 A 
ATOM     15  N   UNL     1      -0.673  10.796  21.066  0.00  0.00    +0.000 NA
ENDBRANCH   1  11
BRANCH   3  16
ATOM     16  C   UNL     1       4.421   5.858  17.791  0.00  0.00    +0.000 A 
ATOM     17  C   UNL     1       5.702   6.153  17.377  0.00  0.00    +0.000 A 
ATOM     18  C   UNL     1       6.173   4.987  16.747  0.00  0.00    +0.000 A 
ATOM     19  N   UNL     1       5.265   4.013  16.747  0.00  0.00    +0.000 NA
ATOM     20  N   UNL     1       4.207   4.554  17.392  0.00  0.00    +0.000 N 
BRANCH  20  21
ATOM     21  C   UNL     1       2.973   3.789  17.458  0.00  0.00    +0.000 C 
BRANCH  21  22
ATOM     22  C   UNL     1       2.543   3.576  18.880  0.00  0.00    +0.000 A 
ATOM     23  C   UNL     1       1.355   4.139  19.369  0.00  0.00    +0.000 A 
ATOM     24  C   UNL     1       0.956   3.904  20.687  0.00  0.00    +0.000 A 
ATOM     25  C   UNL     1       1.737   3.107  21.525  0.00  0.00    +0.000 A 
ATOM     26  C   UNL     1       2.919   2.541  21.046  0.00  0.00    +0.000 A 
ATOM     27  C   UNL     1       3.308   2.775  19.730  0.00  0.00    +0.000 A 
ATOM     28  F   UNL     1       4.429   2.203  19.260  0.00  0.00    +0.000 F 
ENDBRANCH  21  22
ENDBRANCH  20  21
ENDBRANCH   3  16
TORSDOF 4
ENDMDL
MODEL 6
REMARK VINA RESULT:      -9.0      1.833      3.721
REMARK  Name = 
REMARK  5 active torsions:
REMARK  status: ('A' for Active; 'I' for Inactive)
REMARK    1  A    between atoms: C_1  and  C_2
REMARK    2  A    between atoms: C_7  and  C_8
REMARK    3  A    between atoms: N_10  and  C_11
REMARK    4  A    between atoms: N_15  and  C_16
REMARK    5  A    between atoms: C_16  and  C_17
REMARK                            x       y       z     vdW  Elec       q    Type
REMARK                         _______ _______ _______ _____ _____    ______ ____
ROOT
ATOM      1  C   UNL     1       3.225   6.636  18.839  0.00  0.00    +0.000 C 
ATOM      2  O   UNL     1       3.866   6.058  19.701  0.00  0.00    +0.000 OA
ATOM      3  N   UNL     1       3.393   6.325  17.444  0.00  0.00    +0.000 N 
ATOM      4  H   UNL     1       2.948   6.906  16.742  0.00  0.00    +0.000 HD
ENDROOT
BRANCH   1  11
ATOM      5  C   UNL     1      -1.770  11.910  21.936  0.00  0.00    +0.000 C 
ATOM      6  C   UNL     1      -0.788  10.821  21.620  0.00  0.00    +0.000 A 
ATOM      7  C   UNL     1      -0.365   9.938  22.603  0.00  0.00    +0.000 A 
ATOM      8  C   UNL     1       0.532   8.934  22.254  0.00  0.00    +0.000 A 
ATOM      9  C   UNL     1       0.984   8.837  20.933  0.00  0.00    +0.000 A 
ATOM     10  C   UNL     1       1.877   7.829  20.531  0.00  0.00    +0.000 A 
ATOM     11  C   UNL     1       2.314   7.748  19.201  0.00  0.00    +0.000 A 
ATOM     12  C   UNL     1       1.848   8.674  18.269  0.00  0.00    +0.000 A 
ATOM     13  C   UNL     1       0.955   9.674  18.683  0.00  0.00    +0.000 A 
ATOM     14  C   UNL     1       0.512   9.777  19.999  0.00  0.00    +0.000 A 
ATOM     15  N   UNL     1      -0.352  10.748  20.336  0.00  0.00    +0.000 NA
ENDBRANCH   1  11
BRANCH   3  16
ATOM     16  C   UNL     1       4.222   5.287  17.010  0.00  0.00    +0.000 A 
ATOM     17  C   UNL     1       5.514   5.382  16.538  0.00  0.00    +0.000 A 
ATOM     18  C   UNL     1       5.908   4.064  16.248  0.00  0.00    +0.000 A 
ATOM     19  N   UNL     1       4.944   3.181  16.506  0.00  0.00    +0.000 NA
ATOM     20  N   UNL     1       3.927   3.939  16.975  0.00  0.00    +0.000 N 
BRANCH  20  21
ATOM     21  C   UNL     1       2.650   3.295  17.239  0.00  0.00    +0.000 C 
BRANCH  21  22
ATOM     22  C   UNL     1       2.338   3.293  18.706  0.00  0.00    +0.000 A 
ATOM     23  C   UNL     1       1.213   3.965  19.207  0.00  0.00    +0.000 A 
ATOM     24  C   UNL     1       0.920   3.926  20.572  0.00  0.00    +0.000 A 
ATOM     25  C   UNL     1       1.746   3.217  21.447  0.00  0.00    +0.000 A 
ATOM     26  C   UNL     1       2.866   2.544  20.956  0.00  0.00    +0.000 A 
ATOM     27  C   UNL     1       3.147   2.583  19.594  0.00  0.00    +0.000 A 
ATOM     28  F   UNL     1       4.208   1.908  19.119  0.00  0.00    +0.000 F 
ENDBRANCH  21  22
ENDBRANCH  20  21
ENDBRANCH   3  16
TORSDOF 4
ENDMDL
MODEL 7
REMARK VINA RESULT:      -8.9      1.899      4.039
REMARK  Name = 
REMARK  5 active torsions:
REMARK  status: ('A' for Active; 'I' for Inactive)
REMARK    1  A    between atoms: C_1  and  C_2
REMARK    2  A    between atoms: C_7  and  C_8
REMARK    3  A    between atoms: N_10  and  C_11
REMARK    4  A    between atoms: N_15  and  C_16
REMARK    5  A    between atoms: C_16  and  C_17
REMARK                            x       y       z     vdW  Elec       q    Type
REMARK                         _______ _______ _______ _____ _____    ______ ____
ROOT
ATOM      1  C   UNL     1       3.241   6.414  19.079  0.00  0.00    +0.000 C 
ATOM      2  O   UNL     1       4.041   5.898  19.843  0.00  0.00    +0.000 OA
ATOM      3  N   UNL     1       3.285   6.161  17.663  0.00  0.00    +0.000 N 
ATOM      4  H   UNL     1       2.697   6.700  17.037  0.00  0.00    +0.000 HD
ENDROOT
BRANCH   1  11
ATOM      5  C   UNL     1      -1.653  12.395  20.703  0.00  0.00    +0.000 C 
ATOM      6  C   UNL     1      -0.708  11.378  20.134  0.00  0.00    +0.000 A 
ATOM      7  C   UNL     1      -0.158  11.548  18.871  0.00  0.00    +0.000 A 
ATOM      8  C   UNL     1       0.728  10.587  18.397  0.00  0.00    +0.000 A 
ATOM      9  C   UNL     1       1.044   9.481  19.195  0.00  0.00    +0.000 A 
ATOM     10  C   UNL     1       1.947   8.494  18.764  0.00  0.00    +0.000 A 
ATOM     11  C   UNL     1       2.251   7.396  19.581  0.00  0.00    +0.000 A 
ATOM     12  C   UNL     1       1.657   7.292  20.838  0.00  0.00    +0.000 A 
ATOM     13  C   UNL     1       0.759   8.285  21.256  0.00  0.00    +0.000 A 
ATOM     14  C   UNL     1       0.437   9.381  20.460  0.00  0.00    +0.000 A 
ATOM     15  N   UNL     1      -0.421  10.308  20.917  0.00  0.00    +0.000 NA
ENDBRANCH   1  11
BRANCH   3  16
ATOM     16  C   UNL     1       4.178   5.245  17.101  0.00  0.00    +0.000 A 
ATOM     17  C   UNL     1       5.436   5.495  16.595  0.00  0.00    +0.000 A 
ATOM     18  C   UNL     1       5.925   4.249  16.164  0.00  0.00    +0.000 A 
ATOM     19  N   UNL     1       5.050   3.266  16.369  0.00  0.00    +0.000 NA
ATOM     20  N   UNL     1       3.996   3.885  16.946  0.00  0.00    +0.000 N 
BRANCH  20  21
ATOM     21  C   UNL     1       2.789   3.111  17.190  0.00  0.00    +0.000 C 
BRANCH  21  22
ATOM     22  C   UNL     1       2.406   3.149  18.640  0.00  0.00    +0.000 A 
ATOM     23  C   UNL     1       1.186   3.705  19.052  0.00  0.00    +0.000 A 
ATOM     24  C   UNL     1       0.832   3.703  20.404  0.00  0.00    +0.000 A 
ATOM     25  C   UNL     1       1.692   3.148  21.353  0.00  0.00    +0.000 A 
ATOM     26  C   UNL     1       2.907   2.591  20.952  0.00  0.00    +0.000 A 
ATOM     27  C   UNL     1       3.250   2.591  19.603  0.00  0.00    +0.000 A 
ATOM     28  F   UNL     1       4.405   2.026  19.214  0.00  0.00    +0.000 F 
ENDBRANCH  21  22
ENDBRANCH  20  21
ENDBRANCH   3  16
TORSDOF 4
ENDMDL
MODEL 8
REMARK VINA RESULT:      -8.9      2.219      3.927
REMARK  Name = 
REMARK  5 active torsions:
REMARK  status: ('A' for Active; 'I' for Inactive)
REMARK    1  A    between atoms: C_1  and  C_2
REMARK    2  A    between atoms: C_7  and  C_8
REMARK    3  A    between atoms: N_10  and  C_11
REMARK    4  A    between atoms: N_15  and  C_16
REMARK    5  A    between atoms: C_16  and  C_17
REMARK                            x       y       z     vdW  Elec       q    Type
REMARK                         _______ _______ _______ _____ _____    ______ ____
ROOT
ATOM      1  C   UNL     1       3.425   6.716  18.541  0.00  0.00    +0.000 C 
ATOM      2  O   UNL     1       3.844   6.034  19.462  0.00  0.00    +0.000 OA
ATOM      3  N   UNL     1       3.912   6.543  17.198  0.00  0.00    +0.000 N 
ATOM      4  H   UNL     1       3.647   7.206  16.477  0.00  0.00    +0.000 HD
ENDROOT
BRANCH   1  11
ATOM      5  C   UNL     1      -1.871  11.980  21.111  0.00  0.00    +0.000 C 
ATOM      6  C   UNL     1      -0.836  10.914  20.902  0.00  0.00    +0.000 A 
ATOM      7  C   UNL     1      -0.410  10.120  21.957  0.00  0.00    +0.000 A 
ATOM      8  C   UNL     1       0.536   9.132  21.705  0.00  0.00    +0.000 A 
ATOM      9  C   UNL     1       1.033   8.962  20.408  0.00  0.00    +0.000 A 
ATOM     10  C   UNL     1       1.978   7.966  20.104  0.00  0.00    +0.000 A 
ATOM     11  C   UNL     1       2.460   7.812  18.797  0.00  0.00    +0.000 A 
ATOM     12  C   UNL     1       1.987   8.650  17.788  0.00  0.00    +0.000 A 
ATOM     13  C   UNL     1       1.042   9.638  18.105  0.00  0.00    +0.000 A 
ATOM     14  C   UNL     1       0.554   9.814  19.396  0.00  0.00    +0.000 A 
ATOM     15  N   UNL     1      -0.358  10.770  19.640  0.00  0.00    +0.000 NA
ENDBRANCH   1  11
BRANCH   3  16
ATOM     16  C   UNL     1       4.816   5.531  16.861  0.00  0.00    +0.000 A 
ATOM     17  C   UNL     1       6.173   5.648  16.652  0.00  0.00    +0.000 A 
ATOM     18  C   UNL     1       6.623   4.350  16.355  0.00  0.00    +0.000 A 
ATOM     19  N   UNL     1       5.633   3.459  16.363  0.00  0.00    +0.000 NA
ATOM     20  N   UNL     1       4.541   4.191  16.680  0.00  0.00    +0.000 N 
BRANCH  20  21
ATOM     21  C   UNL     1       3.241   3.540  16.650  0.00  0.00    +0.000 C 
BRANCH  21  22
ATOM     22  C   UNL     1       2.713   3.321  18.037  0.00  0.00    +0.000 A 
ATOM     23  C   UNL     1       3.478   2.656  19.007  0.00  0.00    +0.000 A 
ATOM     24  C   UNL     1       2.982   2.490  20.302  0.00  0.00    +0.000 A 
ATOM     25  C   UNL     1       1.722   2.986  20.640  0.00  0.00    +0.000 A 
ATOM     26  C   UNL     1       0.956   3.651  19.682  0.00  0.00    +0.000 A 
ATOM     27  C   UNL     1       1.459   3.818  18.395  0.00  0.00    +0.000 A 
ATOM     28  F   UNL     1       0.733   4.487  17.483  0.00  0.00    +0.000 F 
ENDBRANCH  21  22
ENDBRANCH  20  21
ENDBRANCH   3  16
TORSDOF 4
ENDMDL
MODEL 9
REMARK VINA RESULT:      -8.8      1.780      3.850
REMARK  Name = 
REMARK  5 active torsions:
REMARK  status: ('A' for Active; 'I' for Inactive)
REMARK    1  A    between atoms: C_1  and  C_2
REMARK    2  A    between atoms: C_7  and  C_8
REMARK    3  A    between atoms: N_10  and  C_11
REMARK    4  A    between atoms: N_15  and  C_16
REMARK    5  A    between atoms: C_16  and  C_17
REMARK                            x       y       z     vdW  Elec       q    Type
REMARK                         _______ _______ _______ _____ _____    ______ ____
ROOT
ATOM      1  C   UNL     1       2.597   7.765  18.274  0.00  0.00    +0.000 C 
ATOM      2  O   UNL     1       2.587   8.213  17.139  0.00  0.00    +0.000 OA
ATOM      3  N   UNL     1       3.341   6.579  18.606  0.00  0.00    +0.000 N 
ATOM      4  H   UNL     1       3.229   6.154  19.520  0.00  0.00    +0.000 HD
ENDROOT
BRANCH   1  11
ATOM      5  C   UNL     1      -1.909  12.119  23.080  0.00  0.00    +0.000 C 
ATOM      6  C   UNL     1      -1.139  11.477  21.964  0.00  0.00    +0.000 A 
ATOM      7  C   UNL     1      -1.075  12.070  20.711  0.00  0.00    +0.000 A 
ATOM      8  C   UNL     1      -0.331  11.445  19.717  0.00  0.00    +0.000 A 
ATOM      9  C   UNL     1       0.330  10.244  19.997  0.00  0.00    +0.000 A 
ATOM     10  C   UNL     1       1.107   9.584  19.028  0.00  0.00    +0.000 A 
ATOM     11  C   UNL     1       1.764   8.384  19.332  0.00  0.00    +0.000 A 
ATOM     12  C   UNL     1       1.651   7.846  20.613  0.00  0.00    +0.000 A 
ATOM     13  C   UNL     1       0.874   8.515  21.572  0.00  0.00    +0.000 A 
ATOM     14  C   UNL     1       0.208   9.705  21.291  0.00  0.00    +0.000 A 
ATOM     15  N   UNL     1      -0.512  10.308  22.251  0.00  0.00    +0.000 NA
ENDBRANCH   1  11
BRANCH   3  16
ATOM     16  C   UNL     1       4.161   5.933  17.676  0.00  0.00    +0.000 A 
ATOM     17  C   UNL     1       5.324   6.405  17.107  0.00  0.00    +0.000 A 
ATOM     18  C   UNL     1       5.772   5.379  16.256  0.00  0.00    +0.000 A 
ATOM     19  N   UNL     1       4.959   4.324  16.267  0.00  0.00    +0.000 NA
ATOM     20  N   UNL     1       3.988   4.672  17.141  0.00  0.00    +0.000 N 
BRANCH  20  21
ATOM     21  C   UNL     1       2.848   3.782  17.297  0.00  0.00    +0.000 C 
BRANCH  21  22
ATOM     22  C   UNL     1       2.510   3.585  18.745  0.00  0.00    +0.000 A 
ATOM     23  C   UNL     1       1.301   4.056  19.277  0.00  0.00    +0.000 A 
ATOM     24  C   UNL     1       0.990   3.836  20.621  0.00  0.00    +0.000 A 
ATOM     25  C   UNL     1       1.881   3.144  21.443  0.00  0.00    +0.000 A 
ATOM     26  C   UNL     1       3.085   2.670  20.921  0.00  0.00    +0.000 A 
ATOM     27  C   UNL     1       3.386   2.888  19.580  0.00  0.00    +0.000 A 
ATOM     28  F   UNL     1       4.531   2.403  19.072  0.00  0.00    +0.000 F 
ENDBRANCH  21  22
ENDBRANCH  20  21
ENDBRANCH   3  16
TORSDOF 4
ENDMDL
