MODEL 1
REMARK VINA RESULT:      -8.2      0.000      0.000
REMARK  Name = 
REMARK  8 active torsions:
REMARK  status: ('A' for Active; 'I' for Inactive)
REMARK    1  A    between atoms: C_1  and  O_2
REMARK    2  A    between atoms: O_2  and  C_3
REMARK    3  A    between atoms: C_3  and  C_5
REMARK    4  A    between atoms: C_5  and  C_6
REMARK    5  A    between atoms: C_6  and  N_7
REMARK    6  A    between atoms: C_6  and  C_25
REMARK    7  A    between atoms: C_8  and  C_10
REMARK    8  A    between atoms: N_14  and  C_15
REMARK                            x       y       z     vdW  Elec       q    Type
REMARK                         _______ _______ _______ _____ _____    ______ ____
ROOT
ATOM      1  N   UNL     1       2.628   7.645  18.174  0.00  0.00    +0.000 N 
ATOM      2  C   UNL     1       1.855   8.487  18.930  0.00  0.00    +0.000 C 
ATOM      3  O   UNL     1       1.772   8.369  20.166  0.00  0.00    +0.000 OA
ATOM      4  H   UNL     1       2.556   7.668  17.160  0.00  0.00    +0.000 HD
ENDROOT
BRANCH   2   5
ATOM      5  C   UNL     1       1.081   9.592  18.239  0.00  0.00    +0.000 C 
ATOM      6  C   UNL     1       1.788  10.942  18.211  0.00  0.00    +0.000 C 
ATOM      7  C   UNL     1       1.233  11.664  19.410  0.00  0.00    +0.000 C 
ATOM      8  O   UNL     1       1.722  12.685  19.860  0.00  0.00    +0.000 OA
ATOM      9  N   UNL     1       0.083  10.986  19.824  0.00  0.00    +0.000 N 
ATOM     10  C   UNL     1      -0.227   9.881  18.946  0.00  0.00    +0.000 C 
BRANCH   9  11
ATOM     11  C   UNL     1      -0.773  11.395  20.867  0.00  0.00    +0.000 A 
ATOM     12  C   UNL     1      -0.604  10.904  22.180  0.00  0.00    +0.000 A 
ATOM     13  C   UNL     1      -1.472  11.265  23.212  0.00  0.00    +0.000 A 
ATOM     14  C   UNL     1      -2.524  12.089  22.895  0.00  0.00    +0.000 A 
ATOM     15  C   UNL     1      -2.703  12.575  21.624  0.00  0.00    +0.000 A 
ATOM     16  C   UNL     1      -1.833  12.272  20.600  0.00  0.00    +0.000 A 
ATOM     17  O   UNL     1      -3.837  13.319  21.507  0.00  0.00    +0.000 OA
ATOM     18  C   UNL     1      -4.372  13.207  22.842  0.00  0.00    +0.000 C 
ATOM     19  O   UNL     1      -3.503  12.495  23.748  0.00  0.00    +0.000 OA
ENDBRANCH   9  11
ENDBRANCH   2   5
BRANCH   1  20
ATOM     20  C   UNL     1       3.353   6.515  18.782  0.00  0.00    +0.000 C 
BRANCH  20  21
ATOM     21  C   UNL     1       2.407   5.320  19.020  0.00  0.00    +0.000 A 
ATOM     22  C   UNL     1       1.923   4.515  17.971  0.00  0.00    +0.000 A 
ATOM     23  C   UNL     1       1.148   3.380  18.214  0.00  0.00    +0.000 A 
ATOM     24  C   UNL     1       0.804   3.043  19.517  0.00  0.00    +0.000 A 
ATOM     25  C   UNL     1       1.228   3.847  20.569  0.00  0.00    +0.000 A 
ATOM     26  C   UNL     1       2.026   4.974  20.329  0.00  0.00    +0.000 A 
ENDBRANCH  20  21
BRANCH  20  27
ATOM     27  C   UNL     1       4.594   6.109  17.965  0.00  0.00    +0.000 C 
BRANCH  27  28
ATOM     28  C   UNL     1       5.542   5.170  18.653  0.00  0.00    +0.000 C 
ATOM     29  O   UNL     1       6.119   5.390  19.701  0.00  0.00    +0.000 OA
BRANCH  28  31
ATOM     30  C   UNL     1       5.297   4.097  16.547  0.00  0.00    +0.000 C 
ATOM     31  O   UNL     1       5.573   4.005  17.946  0.00  0.00    +0.000 OA
ENDBRANCH  28  31
ENDBRANCH  27  28
ENDBRANCH  20  27
ENDBRANCH   1  20
TORSDOF 7
ENDMDL
MODEL 2
REMARK VINA RESULT:      -8.1      0.643      1.207
REMARK  Name = 
REMARK  8 active torsions:
REMARK  status: ('A' for Active; 'I' for Inactive)
REMARK    1  A    between atoms: C_1  and  O_2
REMARK    2  A    between atoms: O_2  and  C_3
REMARK    3  A    between atoms: C_3  and  C_5
REMARK    4  A    between atoms: C_5  and  C_6
REMARK    5  A    between atoms: C_6  and  N_7
REMARK    6  A    between atoms: C_6  and  C_25
REMARK    7  A    between atoms: C_8  and  C_10
REMARK    8  A    between atoms: N_14  and  C_15
REMARK                            x       y       z     vdW  Elec       q    Type
REMARK                         _______ _______ _______ _____ _____    ______ ____
ROOT
ATOM      1  N   UNL     1       2.746   7.455  18.081  0.00  0.00    +0.000 N 
ATOM      2  C   UNL     1       2.000   8.320  18.839  0.00  0.00    +0.000 C 
ATOM      3  O   UNL     1       1.962   8.239  20.080  0.00  0.00    +0.000 OA
ATOM      4  H   UNL     1       2.637   7.448  17.071  0.00  0.00    +0.000 HD
ENDROOT
BRANCH   2   5
ATOM      5  C   UNL     1       1.198   9.402  18.143  0.00  0.00    +0.000 C 
ATOM      6  C   UNL     1       1.891  10.757  18.067  0.00  0.00    +0.000 C 
ATOM      7  C   UNL     1       1.360  11.501  19.264  0.00  0.00    +0.000 C 
ATOM      8  O   UNL     1       1.851  12.536  19.679  0.00  0.00    +0.000 OA
ATOM      9  N   UNL     1       0.228  10.822  19.722  0.00  0.00    +0.000 N 
ATOM     10  C   UNL     1      -0.095   9.695  18.876  0.00  0.00    +0.000 C 
BRANCH   9  11
ATOM     11  C   UNL     1      -0.606  11.248  20.777  0.00  0.00    +0.000 A 
ATOM     12  C   UNL     1      -0.444  10.734  22.082  0.00  0.00    +0.000 A 
ATOM     13  C   UNL     1      -1.290  11.112  23.126  0.00  0.00    +0.000 A 
ATOM     14  C   UNL     1      -2.316  11.975  22.828  0.00  0.00    +0.000 A 
ATOM     15  C   UNL     1      -2.488  12.483  21.564  0.00  0.00    +0.000 A 
ATOM     16  C   UNL     1      -1.637  12.163  20.530  0.00  0.00    +0.000 A 
ATOM     17  O   UNL     1      -3.596  13.267  21.466  0.00  0.00    +0.000 OA
ATOM     18  C   UNL     1      -4.125  13.156  22.803  0.00  0.00    +0.000 C 
ATOM     19  O   UNL     1      -3.274  12.403  23.694  0.00  0.00    +0.000 OA
ENDBRANCH   9  11
ENDBRANCH   2   5
BRANCH   1  20
ATOM     20  C   UNL     1       3.495   6.345  18.696  0.00  0.00    +0.000 C 
BRANCH  20  21
ATOM     21  C   UNL     1       2.563   5.154  18.997  0.00  0.00    +0.000 A 
ATOM     22  C   UNL     1       2.091   4.869  20.293  0.00  0.00    +0.000 A 
ATOM     23  C   UNL     1       1.172   3.846  20.531  0.00  0.00    +0.000 A 
ATOM     24  C   UNL     1       0.728   3.055  19.478  0.00  0.00    +0.000 A 
ATOM     25  C   UNL     1       1.215   3.284  18.195  0.00  0.00    +0.000 A 
ATOM     26  C   UNL     1       2.120   4.324  17.951  0.00  0.00    +0.000 A 
ENDBRANCH  20  21
BRANCH  20  27
ATOM     27  C   UNL     1       4.712   5.922  17.851  0.00  0.00    +0.000 C 
BRANCH  27  28
ATOM     28  C   UNL     1       5.858   5.331  18.620  0.00  0.00    +0.000 C 
ATOM     29  O   UNL     1       5.779   4.410  19.410  0.00  0.00    +0.000 OA
BRANCH  28  31
ATOM     30  C   UNL     1       6.852   7.089  17.367  0.00  0.00    +0.000 C 
ATOM     31  O   UNL     1       7.004   5.948  18.214  0.00  0.00    +0.000 OA
ENDBRANCH  28  31
ENDBRANCH  27  28
ENDBRANCH  20  27
ENDBRANCH   1  20
TORSDOF 7
ENDMDL
MODEL 3
REMARK VINA RESULT:      -8.1      3.140      6.231
REMARK  Name = 
REMARK  8 active torsions:
REMARK  status: ('A' for Active; 'I' for Inactive)
REMARK    1  A    between atoms: C_1  and  O_2
REMARK    2  A    between atoms: O_2  and  C_3
REMARK    3  A    between atoms: C_3  and  C_5
REMARK    4  A    between atoms: C_5  and  C_6
REMARK    5  A    between atoms: C_6  and  N_7
REMARK    6  A    between atoms: C_6  and  C_25
REMARK    7  A    between atoms: C_8  and  C_10
REMARK    8  A    between atoms: N_14  and  C_15
REMARK                            x       y       z     vdW  Elec       q    Type
REMARK                         _______ _______ _______ _____ _____    ______ ____
ROOT
ATOM      1  N   UNL     1       5.491   5.059  17.174  0.00  0.00    +0.000 N 
ATOM      2  C   UNL     1       5.651   4.388  18.359  0.00  0.00    +0.000 C 
ATOM      3  O   UNL     1       6.777   4.159  18.838  0.00  0.00    +0.000 OA
ATOM      4  H   UNL     1       4.576   5.095  16.735  0.00  0.00    +0.000 HD
ENDROOT
BRANCH   2   5
ATOM      5  C   UNL     1       4.420   3.912  19.104  0.00  0.00    +0.000 C 
ATOM      6  C   UNL     1       3.247   3.524  18.212  0.00  0.00    +0.000 C 
ATOM      7  C   UNL     1       2.408   4.773  18.157  0.00  0.00    +0.000 C 
ATOM      8  O   UNL     1       1.504   4.936  17.356  0.00  0.00    +0.000 OA
ATOM      9  N   UNL     1       2.826   5.615  19.191  0.00  0.00    +0.000 N 
ATOM     10  C   UNL     1       3.855   4.997  19.997  0.00  0.00    +0.000 C 
BRANCH   9  11
ATOM     11  C   UNL     1       2.231   6.849  19.527  0.00  0.00    +0.000 A 
ATOM     12  C   UNL     1       1.567   7.022  20.761  0.00  0.00    +0.000 A 
ATOM     13  C   UNL     1       0.935   8.223  21.087  0.00  0.00    +0.000 A 
ATOM     14  C   UNL     1       0.948   9.223  20.144  0.00  0.00    +0.000 A 
ATOM     15  C   UNL     1       1.588   9.070  18.940  0.00  0.00    +0.000 A 
ATOM     16  C   UNL     1       2.260   7.913  18.615  0.00  0.00    +0.000 A 
ATOM     17  O   UNL     1       1.430  10.149  18.127  0.00  0.00    +0.000 OA
ATOM     18  C   UNL     1       0.578  10.979  18.944  0.00  0.00    +0.000 C 
ATOM     19  O   UNL     1       0.335  10.431  20.257  0.00  0.00    +0.000 OA
ENDBRANCH   9  11
ENDBRANCH   2   5
BRANCH   1  20
ATOM     20  C   UNL     1       6.652   5.491  16.375  0.00  0.00    +0.000 C 
BRANCH  20  21
ATOM     21  C   UNL     1       6.555   4.953  14.933  0.00  0.00    +0.000 A 
ATOM     22  C   UNL     1       7.520   5.243  13.949  0.00  0.00    +0.000 A 
ATOM     23  C   UNL     1       7.469   4.669  12.678  0.00  0.00    +0.000 A 
ATOM     24  C   UNL     1       6.424   3.816  12.345  0.00  0.00    +0.000 A 
ATOM     25  C   UNL     1       5.430   3.550  13.282  0.00  0.00    +0.000 A 
ATOM     26  C   UNL     1       5.493   4.107  14.565  0.00  0.00    +0.000 A 
ENDBRANCH  20  21
BRANCH  20  27
ATOM     27  C   UNL     1       6.846   7.018  16.405  0.00  0.00    +0.000 C 
BRANCH  27  28
ATOM     28  C   UNL     1       7.635   7.546  17.569  0.00  0.00    +0.000 C 
ATOM     29  O   UNL     1       8.045   6.885  18.504  0.00  0.00    +0.000 OA
BRANCH  28  31
ATOM     30  C   UNL     1       8.606   9.563  18.367  0.00  0.00    +0.000 C 
ATOM     31  O   UNL     1       7.883   8.869  17.348  0.00  0.00    +0.000 OA
ENDBRANCH  28  31
ENDBRANCH  27  28
ENDBRANCH  20  27
ENDBRANCH   1  20
TORSDOF 7
ENDMDL
MODEL 4
REMARK VINA RESULT:      -8.1      3.311      6.431
REMARK  Name = 
REMARK  8 active torsions:
REMARK  status: ('A' for Active; 'I' for Inactive)
REMARK    1  A    between atoms: C_1  and  O_2
REMARK    2  A    between atoms: O_2  and  C_3
REMARK    3  A    between atoms: C_3  and  C_5
REMARK    4  A    between atoms: C_5  and  C_6
REMARK    5  A    between atoms: C_6  and  N_7
REMARK    6  A    between atoms: C_6  and  C_25
REMARK    7  A    between atoms: C_8  and  C_10
REMARK    8  A    between atoms: N_14  and  C_15
REMARK                            x       y       z     vdW  Elec       q    Type
REMARK                         _______ _______ _______ _____ _____    ______ ____
ROOT
ATOM      1  N   UNL     1       5.546   4.046  16.731  0.00  0.00    +0.000 N 
ATOM      2  C   UNL     1       5.671   3.982  18.094  0.00  0.00    +0.000 C 
ATOM      3  O   UNL     1       6.737   4.266  18.670  0.00  0.00    +0.000 OA
ATOM      4  H   UNL     1       4.718   3.663  16.282  0.00  0.00    +0.000 HD
ENDROOT
BRANCH   2   5
ATOM      5  C   UNL     1       4.476   3.551  18.922  0.00  0.00    +0.000 C 
ATOM      6  C   UNL     1       3.247   3.161  18.109  0.00  0.00    +0.000 C 
ATOM      7  C   UNL     1       2.430   4.425  18.066  0.00  0.00    +0.000 C 
ATOM      8  O   UNL     1       1.485   4.583  17.314  0.00  0.00    +0.000 OA
ATOM      9  N   UNL     1       2.921   5.287  19.050  0.00  0.00    +0.000 N 
ATOM     10  C   UNL     1       3.984   4.672  19.813  0.00  0.00    +0.000 C 
BRANCH   9  11
ATOM     11  C   UNL     1       2.370   6.542  19.383  0.00  0.00    +0.000 A 
ATOM     12  C   UNL     1       1.741   6.749  20.630  0.00  0.00    +0.000 A 
ATOM     13  C   UNL     1       1.151   7.972  20.955  0.00  0.00    +0.000 A 
ATOM     14  C   UNL     1       1.169   8.958  19.998  0.00  0.00    +0.000 A 
ATOM     15  C   UNL     1       1.774   8.772  18.781  0.00  0.00    +0.000 A 
ATOM     16  C   UNL     1       2.406   7.592  18.456  0.00  0.00    +0.000 A 
ATOM     17  O   UNL     1       1.626   9.845  17.957  0.00  0.00    +0.000 OA
ATOM     18  C   UNL     1       0.818  10.708  18.783  0.00  0.00    +0.000 C 
ATOM     19  O   UNL     1       0.592  10.185  20.109  0.00  0.00    +0.000 OA
ENDBRANCH   9  11
ENDBRANCH   2   5
BRANCH   1  20
ATOM     20  C   UNL     1       6.690   4.397  15.871  0.00  0.00    +0.000 C 
BRANCH  20  21
ATOM     21  C   UNL     1       6.368   4.119  14.389  0.00  0.00    +0.000 A 
ATOM     22  C   UNL     1       7.318   4.283  13.362  0.00  0.00    +0.000 A 
ATOM     23  C   UNL     1       7.039   3.934  12.040  0.00  0.00    +0.000 A 
ATOM     24  C   UNL     1       5.783   3.444  11.704  0.00  0.00    +0.000 A 
ATOM     25  C   UNL     1       4.809   3.317  12.689  0.00  0.00    +0.000 A 
ATOM     26  C   UNL     1       5.095   3.646  14.021  0.00  0.00    +0.000 A 
ENDBRANCH  20  21
BRANCH  20  27
ATOM     27  C   UNL     1       7.164   5.846  16.092  0.00  0.00    +0.000 C 
BRANCH  27  28
ATOM     28  C   UNL     1       6.077   6.849  16.351  0.00  0.00    +0.000 C 
ATOM     29  O   UNL     1       5.050   6.960  15.709  0.00  0.00    +0.000 OA
BRANCH  28  31
ATOM     30  C   UNL     1       7.794   7.633  17.795  0.00  0.00    +0.000 C 
ATOM     31  O   UNL     1       6.404   7.548  17.475  0.00  0.00    +0.000 OA
ENDBRANCH  28  31
ENDBRANCH  27  28
ENDBRANCH  20  27
ENDBRANCH   1  20
TORSDOF 7
ENDMDL
MODEL 5
REMARK VINA RESULT:      -8.0      1.083      1.565
REMARK  Name = 
REMARK  8 active torsions:
REMARK  status: ('A' for Active; 'I' for Inactive)
REMARK    1  A    between atoms: C_1  and  O_2
REMARK    2  A    between atoms: O_2  and  C_3
REMARK    3  A    between atoms: C_3  and  C_5
REMARK    4  A    between atoms: C_5  and  C_6
REMARK    5  A    between atoms: C_6  and  N_7
REMARK    6  A    between atoms: C_6  and  C_25
REMARK    7  A    between atoms: C_8  and  C_10
REMARK    8  A    between atoms: N_14  and  C_15
REMARK                            x       y       z     vdW  Elec       q    Type
REMARK                         _______ _______ _______ _____ _____    ______ ____
ROOT
ATOM      1  N   UNL     1       2.896   7.273  18.337  0.00  0.00    +0.000 N 
ATOM      2  C   UNL     1       2.046   8.230  18.828  0.00  0.00    +0.000 C 
ATOM      3  O   UNL     1       1.716   8.263  20.027  0.00  0.00    +0.000 OA
ATOM      4  H   UNL     1       3.025   7.179  17.334  0.00  0.00    +0.000 HD
ENDROOT
BRANCH   2   5
ATOM      5  C   UNL     1       1.494   9.277  17.880  0.00  0.00    +0.000 C 
ATOM      6  C   UNL     1       2.252  10.599  17.880  0.00  0.00    +0.000 C 
ATOM      7  C   UNL     1       1.483  11.454  18.852  0.00  0.00    +0.000 C 
ATOM      8  O   UNL     1       1.910  12.504  19.300  0.00  0.00    +0.000 OA
ATOM      9  N   UNL     1       0.241  10.850  19.064  0.00  0.00    +0.000 N 
ATOM     10  C   UNL     1       0.078   9.669  18.248  0.00  0.00    +0.000 C 
BRANCH   9  11
ATOM     11  C   UNL     1      -0.802  11.387  19.847  0.00  0.00    +0.000 A 
ATOM     12  C   UNL     1      -1.849  12.125  19.254  0.00  0.00    +0.000 A 
ATOM     13  C   UNL     1      -2.863  12.700  20.022  0.00  0.00    +0.000 A 
ATOM     14  C   UNL     1      -2.784  12.555  21.385  0.00  0.00    +0.000 A 
ATOM     15  C   UNL     1      -1.773  11.842  21.978  0.00  0.00    +0.000 A 
ATOM     16  C   UNL     1      -0.789  11.224  21.239  0.00  0.00    +0.000 A 
ATOM     17  O   UNL     1      -1.843  11.872  23.337  0.00  0.00    +0.000 OA
ATOM     18  C   UNL     1      -2.990  12.725  23.529  0.00  0.00    +0.000 C 
ATOM     19  O   UNL     1      -3.639  13.096  22.294  0.00  0.00    +0.000 OA
ENDBRANCH   9  11
ENDBRANCH   2   5
BRANCH   1  20
ATOM     20  C   UNL     1       3.414   6.194  19.197  0.00  0.00    +0.000 C 
BRANCH  20  21
ATOM     21  C   UNL     1       2.416   5.022  19.270  0.00  0.00    +0.000 A 
ATOM     22  C   UNL     1       2.034   4.279  18.136  0.00  0.00    +0.000 A 
ATOM     23  C   UNL     1       1.205   3.161  18.235  0.00  0.00    +0.000 A 
ATOM     24  C   UNL     1       0.704   2.778  19.473  0.00  0.00    +0.000 A 
ATOM     25  C   UNL     1       1.026   3.522  20.604  0.00  0.00    +0.000 A 
ATOM     26  C   UNL     1       1.876   4.631  20.509  0.00  0.00    +0.000 A 
ENDBRANCH  20  21
BRANCH  20  27
ATOM     27  C   UNL     1       4.817   5.726  18.765  0.00  0.00    +0.000 C 
BRANCH  27  28
ATOM     28  C   UNL     1       5.291   6.245  17.438  0.00  0.00    +0.000 C 
ATOM     29  O   UNL     1       5.980   7.233  17.270  0.00  0.00    +0.000 OA
BRANCH  28  31
ATOM     30  C   UNL     1       5.512   5.496  15.193  0.00  0.00    +0.000 C 
ATOM     31  O   UNL     1       4.887   5.370  16.472  0.00  0.00    +0.000 OA
ENDBRANCH  28  31
ENDBRANCH  27  28
ENDBRANCH  20  27
ENDBRANCH   1  20
TORSDOF 7
ENDMDL
MODEL 6
REMARK VINA RESULT:      -8.0      3.024      6.402
REMARK  Name = 
REMARK  8 active torsions:
REMARK  status: ('A' for Active; 'I' for Inactive)
REMARK    1  A    between atoms: C_1  and  O_2
REMARK    2  A    between atoms: O_2  and  C_3
REMARK    3  A    between atoms: C_3  and  C_5
REMARK    4  A    between atoms: C_5  and  C_6
REMARK    5  A    between atoms: C_6  and  N_7
REMARK    6  A    between atoms: C_6  and  C_25
REMARK    7  A    between atoms: C_8  and  C_10
REMARK    8  A    between atoms: N_14  and  C_15
REMARK                            x       y       z     vdW  Elec       q    Type
REMARK                         _______ _______ _______ _____ _____    ______ ____
ROOT
ATOM      1  N   UNL     1       5.562   4.096  16.855  0.00  0.00    +0.000 N 
ATOM      2  C   UNL     1       5.670   4.041  18.220  0.00  0.00    +0.000 C 
ATOM      3  O   UNL     1       6.737   4.301  18.805  0.00  0.00    +0.000 OA
ATOM      4  H   UNL     1       4.730   3.732  16.399  0.00  0.00    +0.000 HD
ENDROOT
BRANCH   2   5
ATOM      5  C   UNL     1       4.454   3.651  19.037  0.00  0.00    +0.000 C 
ATOM      6  C   UNL     1       3.257   3.191  18.214  0.00  0.00    +0.000 C 
ATOM      7  C   UNL     1       2.426   4.437  18.060  0.00  0.00    +0.000 C 
ATOM      8  O   UNL     1       1.504   4.531  17.269  0.00  0.00    +0.000 OA
ATOM      9  N   UNL     1       2.876   5.371  18.997  0.00  0.00    +0.000 N 
ATOM     10  C   UNL     1       3.920   4.823  19.834  0.00  0.00    +0.000 C 
BRANCH   9  11
ATOM     11  C   UNL     1       2.299   6.637  19.227  0.00  0.00    +0.000 A 
ATOM     12  C   UNL     1       2.271   7.616  18.210  0.00  0.00    +0.000 A 
ATOM     13  C   UNL     1       1.745   8.889  18.438  0.00  0.00    +0.000 A 
ATOM     14  C   UNL     1       1.289   9.170  19.703  0.00  0.00    +0.000 A 
ATOM     15  C   UNL     1       1.311   8.229  20.703  0.00  0.00    +0.000 A 
ATOM     16  C   UNL     1       1.780   6.952  20.490  0.00  0.00    +0.000 A 
ATOM     17  O   UNL     1       0.876   8.726  21.892  0.00  0.00    +0.000 OA
ATOM     18  C   UNL     1       0.620  10.099  21.534  0.00  0.00    +0.000 C 
ATOM     19  O   UNL     1       0.805  10.367  20.128  0.00  0.00    +0.000 OA
ENDBRANCH   9  11
ENDBRANCH   2   5
BRANCH   1  20
ATOM     20  C   UNL     1       6.726   4.408  16.005  0.00  0.00    +0.000 C 
BRANCH  20  21
ATOM     21  C   UNL     1       6.426   4.092  14.526  0.00  0.00    +0.000 A 
ATOM     22  C   UNL     1       5.197   3.552  14.099  0.00  0.00    +0.000 A 
ATOM     23  C   UNL     1       4.907   3.365  12.747  0.00  0.00    +0.000 A 
ATOM     24  C   UNL     1       5.858   3.679  11.785  0.00  0.00    +0.000 A 
ATOM     25  C   UNL     1       7.099   4.168  12.180  0.00  0.00    +0.000 A 
ATOM     26  C   UNL     1       7.384   4.379  13.536  0.00  0.00    +0.000 A 
ENDBRANCH  20  21
BRANCH  20  27
ATOM     27  C   UNL     1       7.216   5.856  16.194  0.00  0.00    +0.000 C 
BRANCH  27  28
ATOM     28  C   UNL     1       6.140   6.876  16.433  0.00  0.00    +0.000 C 
ATOM     29  O   UNL     1       5.115   6.988  15.787  0.00  0.00    +0.000 OA
BRANCH  28  31
ATOM     30  C   UNL     1       7.818   8.068  17.621  0.00  0.00    +0.000 C 
ATOM     31  O   UNL     1       6.473   7.592  17.545  0.00  0.00    +0.000 OA
ENDBRANCH  28  31
ENDBRANCH  27  28
ENDBRANCH  20  27
ENDBRANCH   1  20
TORSDOF 7
ENDMDL
MODEL 7
REMARK VINA RESULT:      -8.0      2.912      6.302
REMARK  Name = 
REMARK  8 active torsions:
REMARK  status: ('A' for Active; 'I' for Inactive)
REMARK    1  A    between atoms: C_1  and  O_2
REMARK    2  A    between atoms: O_2  and  C_3
REMARK    3  A    between atoms: C_3  and  C_5
REMARK    4  A    between atoms: C_5  and  C_6
REMARK    5  A    between atoms: C_6  and  N_7
REMARK    6  A    between atoms: C_6  and  C_25
REMARK    7  A    between atoms: C_8  and  C_10
REMARK    8  A    between atoms: N_14  and  C_15
REMARK                            x       y       z     vdW  Elec       q    Type
REMARK                         _______ _______ _______ _____ _____    ______ ____
ROOT
ATOM      1  N   UNL     1       5.640   5.005  17.178  0.00  0.00    +0.000 N 
ATOM      2  C   UNL     1       5.769   4.430  18.416  0.00  0.00    +0.000 C 
ATOM      3  O   UNL     1       6.879   4.273  18.955  0.00  0.00    +0.000 OA
ATOM      4  H   UNL     1       4.744   4.980  16.700  0.00  0.00    +0.000 HD
ENDROOT
BRANCH   2   5
ATOM      5  C   UNL     1       4.521   3.973  19.145  0.00  0.00    +0.000 C 
ATOM      6  C   UNL     1       3.390   3.504  18.237  0.00  0.00    +0.000 C 
ATOM      7  C   UNL     1       2.528   4.729  18.075  0.00  0.00    +0.000 C 
ATOM      8  O   UNL     1       1.651   4.822  17.234  0.00  0.00    +0.000 OA
ATOM      9  N   UNL     1       2.890   5.642  19.069  0.00  0.00    +0.000 N 
ATOM     10  C   UNL     1       3.902   5.098  19.947  0.00  0.00    +0.000 C 
BRANCH   9  11
ATOM     11  C   UNL     1       2.259   6.881  19.306  0.00  0.00    +0.000 A 
ATOM     12  C   UNL     1       2.167   7.855  18.289  0.00  0.00    +0.000 A 
ATOM     13  C   UNL     1       1.586   9.102  18.523  0.00  0.00    +0.000 A 
ATOM     14  C   UNL     1       1.140   9.364  19.795  0.00  0.00    +0.000 A 
ATOM     15  C   UNL     1       1.223   8.428  20.796  0.00  0.00    +0.000 A 
ATOM     16  C   UNL     1       1.747   7.174  20.577  0.00  0.00    +0.000 A 
ATOM     17  O   UNL     1       0.785   8.907  21.992  0.00  0.00    +0.000 OA
ATOM     18  C   UNL     1       0.459  10.266  21.636  0.00  0.00    +0.000 C 
ATOM     19  O   UNL     1       0.607  10.539  20.226  0.00  0.00    +0.000 OA
ENDBRANCH   9  11
ENDBRANCH   2   5
BRANCH   1  20
ATOM     20  C   UNL     1       6.821   5.412  16.395  0.00  0.00    +0.000 C 
BRANCH  20  21
ATOM     21  C   UNL     1       6.747   4.853  14.959  0.00  0.00    +0.000 A 
ATOM     22  C   UNL     1       5.747   3.951  14.547  0.00  0.00    +0.000 A 
ATOM     23  C   UNL     1       5.638   3.533  13.220  0.00  0.00    +0.000 A 
ATOM     24  C   UNL     1       6.554   3.978  12.276  0.00  0.00    +0.000 A 
ATOM     25  C   UNL     1       7.581   4.831  12.665  0.00  0.00    +0.000 A 
ATOM     26  C   UNL     1       7.679   5.271  13.992  0.00  0.00    +0.000 A 
ENDBRANCH  20  21
BRANCH  20  27
ATOM     27  C   UNL     1       7.032   6.938  16.405  0.00  0.00    +0.000 C 
BRANCH  27  28
ATOM     28  C   UNL     1       7.617   7.500  17.669  0.00  0.00    +0.000 C 
ATOM     29  O   UNL     1       8.174   6.856  18.538  0.00  0.00    +0.000 OA
BRANCH  28  31
ATOM     30  C   UNL     1       8.545   9.617  18.219  0.00  0.00    +0.000 C 
ATOM     31  O   UNL     1       7.489   8.857  17.629  0.00  0.00    +0.000 OA
ENDBRANCH  28  31
ENDBRANCH  27  28
ENDBRANCH  20  27
ENDBRANCH   1  20
TORSDOF 7
ENDMDL
MODEL 8
REMARK VINA RESULT:      -8.0      1.216      1.462
REMARK  Name = 
REMARK  8 active torsions:
REMARK  status: ('A' for Active; 'I' for Inactive)
REMARK    1  A    between atoms: C_1  and  O_2
REMARK    2  A    between atoms: O_2  and  C_3
REMARK    3  A    between atoms: C_3  and  C_5
REMARK    4  A    between atoms: C_5  and  C_6
REMARK    5  A    between atoms: C_6  and  N_7
REMARK    6  A    between atoms: C_6  and  C_25
REMARK    7  A    between atoms: C_8  and  C_10
REMARK    8  A    between atoms: N_14  and  C_15
REMARK                            x       y       z     vdW  Elec       q    Type
REMARK                         _______ _______ _______ _____ _____    ______ ____
ROOT
ATOM      1  N   UNL     1       2.908   7.319  18.024  0.00  0.00    +0.000 N 
ATOM      2  C   UNL     1       2.119   8.188  18.730  0.00  0.00    +0.000 C 
ATOM      3  O   UNL     1       1.991   8.105  19.965  0.00  0.00    +0.000 OA
ATOM      4  H   UNL     1       2.872   7.315  17.009  0.00  0.00    +0.000 HD
ENDROOT
BRANCH   2   5
ATOM      5  C   UNL     1       1.380   9.281  17.983  0.00  0.00    +0.000 C 
ATOM      6  C   UNL     1       2.120  10.611  17.905  0.00  0.00    +0.000 C 
ATOM      7  C   UNL     1       1.569  11.396  19.066  0.00  0.00    +0.000 C 
ATOM      8  O   UNL     1       2.078  12.424  19.478  0.00  0.00    +0.000 OA
ATOM      9  N   UNL     1       0.399  10.765  19.494  0.00  0.00    +0.000 N 
ATOM     10  C   UNL     1       0.071   9.631  18.660  0.00  0.00    +0.000 C 
BRANCH   9  11
ATOM     11  C   UNL     1      -0.459  11.239  20.508  0.00  0.00    +0.000 A 
ATOM     12  C   UNL     1      -0.257  10.878  21.858  0.00  0.00    +0.000 A 
ATOM     13  C   UNL     1      -1.124  11.303  22.865  0.00  0.00    +0.000 A 
ATOM     14  C   UNL     1      -2.210  12.057  22.490  0.00  0.00    +0.000 A 
ATOM     15  C   UNL     1      -2.422  12.415  21.182  0.00  0.00    +0.000 A 
ATOM     16  C   UNL     1      -1.554  12.049  20.178  0.00  0.00    +0.000 A 
ATOM     17  O   UNL     1      -3.583  13.105  21.014  0.00  0.00    +0.000 OA
ATOM     18  C   UNL     1      -4.097  13.099  22.362  0.00  0.00    +0.000 C 
ATOM     19  O   UNL     1      -3.193  12.505  23.317  0.00  0.00    +0.000 OA
ENDBRANCH   9  11
ENDBRANCH   2   5
BRANCH   1  20
ATOM     20  C   UNL     1       3.601   6.199  18.688  0.00  0.00    +0.000 C 
BRANCH  20  21
ATOM     21  C   UNL     1       2.747   4.916  18.634  0.00  0.00    +0.000 A 
ATOM     22  C   UNL     1       2.891   3.951  17.619  0.00  0.00    +0.000 A 
ATOM     23  C   UNL     1       2.179   2.751  17.641  0.00  0.00    +0.000 A 
ATOM     24  C   UNL     1       1.273   2.502  18.663  0.00  0.00    +0.000 A 
ATOM     25  C   UNL     1       1.074   3.459  19.653  0.00  0.00    +0.000 A 
ATOM     26  C   UNL     1       1.805   4.654  19.646  0.00  0.00    +0.000 A 
ENDBRANCH  20  21
BRANCH  20  27
ATOM     27  C   UNL     1       5.016   5.970  18.123  0.00  0.00    +0.000 C 
BRANCH  27  28
ATOM     28  C   UNL     1       5.350   6.750  16.884  0.00  0.00    +0.000 C 
ATOM     29  O   UNL     1       4.714   6.738  15.847  0.00  0.00    +0.000 OA
BRANCH  28  31
ATOM     30  C   UNL     1       7.547   6.889  17.781  0.00  0.00    +0.000 C 
ATOM     31  O   UNL     1       6.434   7.532  17.155  0.00  0.00    +0.000 OA
ENDBRANCH  28  31
ENDBRANCH  27  28
ENDBRANCH  20  27
ENDBRANCH   1  20
TORSDOF 7
ENDMDL
MODEL 9
REMARK VINA RESULT:      -7.9      0.907      1.348
REMARK  Name = 
REMARK  8 active torsions:
REMARK  status: ('A' for Active; 'I' for Inactive)
REMARK    1  A    between atoms: C_1  and  O_2
REMARK    2  A    between atoms: O_2  and  C_3
REMARK    3  A    between atoms: C_3  and  C_5
REMARK    4  A    between atoms: C_5  and  C_6
REMARK    5  A    between atoms: C_6  and  N_7
REMARK    6  A    between atoms: C_6  and  C_25
REMARK    7  A    between atoms: C_8  and  C_10
REMARK    8  A    between atoms: N_14  and  C_15
REMARK                            x       y       z     vdW  Elec       q    Type
REMARK                         _______ _______ _______ _____ _____    ______ ____
ROOT
ATOM      1  N   UNL     1       2.804   7.309  18.252  0.00  0.00    +0.000 N 
ATOM      2  C   UNL     1       2.021   8.217  18.915  0.00  0.00    +0.000 C 
ATOM      3  O   UNL     1       1.898   8.199  20.153  0.00  0.00    +0.000 OA
ATOM      4  H   UNL     1       2.763   7.252  17.238  0.00  0.00    +0.000 HD
ENDROOT
BRANCH   2   5
ATOM      5  C   UNL     1       1.283   9.273  18.115  0.00  0.00    +0.000 C 
ATOM      6  C   UNL     1       2.019  10.600  17.981  0.00  0.00    +0.000 C 
ATOM      7  C   UNL     1       1.460  11.436  19.102  0.00  0.00    +0.000 C 
ATOM      8  O   UNL     1       1.963  12.482  19.470  0.00  0.00    +0.000 OA
ATOM      9  N   UNL     1       0.288  10.820  19.552  0.00  0.00    +0.000 N 
ATOM     10  C   UNL     1      -0.031   9.648  18.768  0.00  0.00    +0.000 C 
BRANCH   9  11
ATOM     11  C   UNL     1      -0.576  11.337  20.539  0.00  0.00    +0.000 A 
ATOM     12  C   UNL     1      -0.345  11.088  21.909  0.00  0.00    +0.000 A 
ATOM     13  C   UNL     1      -1.218  11.555  22.893  0.00  0.00    +0.000 A 
ATOM     14  C   UNL     1      -2.337  12.235  22.476  0.00  0.00    +0.000 A 
ATOM     15  C   UNL     1      -2.577  12.485  21.148  0.00  0.00    +0.000 A 
ATOM     16  C   UNL     1      -1.706  12.077  20.163  0.00  0.00    +0.000 A 
ATOM     17  O   UNL     1      -3.766  13.114  20.945  0.00  0.00    +0.000 OA
ATOM     18  C   UNL     1      -4.265  13.191  22.296  0.00  0.00    +0.000 C 
ATOM     19  O   UNL     1      -3.327  12.707  23.280  0.00  0.00    +0.000 OA
ENDBRANCH   9  11
ENDBRANCH   2   5
BRANCH   1  20
ATOM     20  C   UNL     1       3.495   6.223  18.970  0.00  0.00    +0.000 C 
BRANCH  20  21
ATOM     21  C   UNL     1       2.549   5.026  19.197  0.00  0.00    +0.000 A 
ATOM     22  C   UNL     1       2.100   4.647  20.477  0.00  0.00    +0.000 A 
ATOM     23  C   UNL     1       1.167   3.624  20.655  0.00  0.00    +0.000 A 
ATOM     24  C   UNL     1       0.688   2.926  19.554  0.00  0.00    +0.000 A 
ATOM     25  C   UNL     1       1.151   3.247  18.282  0.00  0.00    +0.000 A 
ATOM     26  C   UNL     1       2.069   4.289  18.099  0.00  0.00    +0.000 A 
ENDBRANCH  20  21
BRANCH  20  27
ATOM     27  C   UNL     1       4.799   5.797  18.270  0.00  0.00    +0.000 C 
BRANCH  27  28
ATOM     28  C   UNL     1       4.825   5.989  16.780  0.00  0.00    +0.000 C 
ATOM     29  O   UNL     1       4.732   7.056  16.203  0.00  0.00    +0.000 OA
BRANCH  28  31
ATOM     30  C   UNL     1       6.411   4.322  16.185  0.00  0.00    +0.000 C 
ATOM     31  O   UNL     1       5.056   4.777  16.200  0.00  0.00    +0.000 OA
ENDBRANCH  28  31
ENDBRANCH  27  28
ENDBRANCH  20  27
ENDBRANCH   1  20
TORSDOF 7
ENDMDL
