MODEL 1
REMARK VINA RESULT:      -8.2      0.000      0.000
REMARK  Name = 
REMARK  3 active torsions:
REMARK  status: ('A' for Active; 'I' for Inactive)
REMARK    1  A    between atoms: C_1  and  C_2
REMARK    2  A    between atoms: C_10  and  N_11
REMARK    3  A    between atoms: C_12  and  C_14
REMARK                            x       y       z     vdW  Elec       q    Type
REMARK                         _______ _______ _______ _____ _____    ______ ____
ROOT
ATOM      1  N   UNL     1       1.949   8.497  17.693  0.00  0.00    +0.000 N 
ATOM      2  C   UNL     1       2.468   7.519  18.526  0.00  0.00    +0.000 C 
ATOM      3  O   UNL     1       2.254   7.408  19.729  0.00  0.00    +0.000 OA
ATOM      4  H   UNL     1       2.232   8.455  16.712  0.00  0.00    +0.000 HD
ENDROOT
BRANCH   1  14
ATOM      5  C   UNL     1      -6.457  13.138  19.188  0.00  0.00    +0.000 C 
ATOM      6  C   UNL     1      -5.412  12.100  18.862  0.00  0.00    +0.000 C 
ATOM      7  O   UNL     1      -5.737  10.951  18.596  0.00  0.00    +0.000 OA
ATOM      8  N   UNL     1      -4.140  12.619  18.920  0.00  0.00    +0.000 N 
ATOM      9  C   UNL     1      -2.975  11.939  18.674  0.00  0.00    +0.000 A 
ATOM     10  N   UNL     1      -1.824  12.436  19.049  0.00  0.00    +0.000 NA
ATOM     11  C   UNL     1      -0.816  11.534  18.755  0.00  0.00    +0.000 A 
ATOM     12  C   UNL     1       0.538  11.678  19.096  0.00  0.00    +0.000 A 
ATOM     13  C   UNL     1       1.452  10.674  18.752  0.00  0.00    +0.000 A 
ATOM     14  C   UNL     1       1.054   9.534  18.053  0.00  0.00    +0.000 A 
ATOM     15  C   UNL     1      -0.295   9.383  17.695  0.00  0.00    +0.000 A 
ATOM     16  C   UNL     1      -1.213  10.385  18.070  0.00  0.00    +0.000 A 
ATOM     17  S   UNL     1      -2.918  10.461  17.831  0.00  0.00    +0.000 S 
ATOM     18  H   UNL     1      -3.988  13.524  19.342  0.00  0.00    +0.000 HD
ENDBRANCH   1  14
BRANCH   2  19
ATOM     19  C   UNL     1       3.355   6.506  17.903  0.00  0.00    +0.000 A 
ATOM     20  C   UNL     1       4.606   6.912  17.397  0.00  0.00    +0.000 A 
ATOM     21  C   UNL     1       5.479   5.988  16.836  0.00  0.00    +0.000 A 
ATOM     22  F   UNL     1       6.664   6.410  16.372  0.00  0.00    +0.000 F 
ATOM     23  C   UNL     1       5.164   4.634  16.745  0.00  0.00    +0.000 A 
ATOM     24  C   UNL     1       3.917   4.250  17.242  0.00  0.00    +0.000 A 
ATOM     25  N   UNL     1       3.292   3.030  17.318  0.00  0.00    +0.000 N 
ATOM     26  C   UNL     1       2.069   3.219  17.897  0.00  0.00    +0.000 A 
ATOM     27  N   UNL     1       1.865   4.479  18.207  0.00  0.00    +0.000 NA
ATOM     28  C   UNL     1       3.009   5.145  17.811  0.00  0.00    +0.000 A 
ATOM     29  H   UNL     1       3.670   2.149  17.002  0.00  0.00    +0.000 HD
ENDBRANCH   2  19
TORSDOF 2
ENDMDL
MODEL 2
REMARK VINA RESULT:      -8.1      2.604      3.546
REMARK  Name = 
REMARK  3 active torsions:
REMARK  status: ('A' for Active; 'I' for Inactive)
REMARK    1  A    between atoms: C_1  and  C_2
REMARK    2  A    between atoms: C_10  and  N_11
REMARK    3  A    between atoms: C_12  and  C_14
REMARK                            x       y       z     vdW  Elec       q    Type
REMARK                         _______ _______ _______ _____ _____    ______ ____
ROOT
ATOM      1  N   UNL     1       3.663   6.719  18.172  0.00  0.00    +0.000 N 
ATOM      2  C   UNL     1       3.539   5.452  17.624  0.00  0.00    +0.000 C 
ATOM      3  O   UNL     1       2.574   4.705  17.746  0.00  0.00    +0.000 OA
ATOM      4  H   UNL     1       4.539   7.212  17.983  0.00  0.00    +0.000 HD
ENDROOT
BRANCH   1  14
ATOM      5  C   UNL     1      -3.261  13.144  20.451  0.00  0.00    +0.000 C 
ATOM      6  C   UNL     1      -2.232  12.322  19.717  0.00  0.00    +0.000 C 
ATOM      7  O   UNL     1      -2.076  12.451  18.510  0.00  0.00    +0.000 OA
ATOM      8  N   UNL     1      -1.563  11.467  20.562  0.00  0.00    +0.000 N 
ATOM      9  C   UNL     1      -0.568  10.592  20.208  0.00  0.00    +0.000 A 
ATOM     10  N   UNL     1      -0.217   9.624  21.016  0.00  0.00    +0.000 NA
ATOM     11  C   UNL     1       0.747   8.841  20.404  0.00  0.00    +0.000 A 
ATOM     12  C   UNL     1       1.295   7.659  20.925  0.00  0.00    +0.000 A 
ATOM     13  C   UNL     1       2.253   6.953  20.188  0.00  0.00    +0.000 A 
ATOM     14  C   UNL     1       2.700   7.409  18.947  0.00  0.00    +0.000 A 
ATOM     15  C   UNL     1       2.170   8.597  18.420  0.00  0.00    +0.000 A 
ATOM     16  C   UNL     1       1.185   9.287  19.156  0.00  0.00    +0.000 A 
ATOM     17  S   UNL     1       0.313  10.719  18.758  0.00  0.00    +0.000 S 
ATOM     18  H   UNL     1      -1.915  11.310  21.495  0.00  0.00    +0.000 HD
ENDBRANCH   1  14
BRANCH   2  19
ATOM     19  C   UNL     1       4.674   4.960  16.806  0.00  0.00    +0.000 A 
ATOM     20  C   UNL     1       4.454   4.648  15.449  0.00  0.00    +0.000 A 
ATOM     21  C   UNL     1       5.497   4.215  14.641  0.00  0.00    +0.000 A 
ATOM     22  F   UNL     1       5.252   3.936  13.353  0.00  0.00    +0.000 F 
ATOM     23  C   UNL     1       6.796   4.069  15.125  0.00  0.00    +0.000 A 
ATOM     24  C   UNL     1       6.995   4.372  16.474  0.00  0.00    +0.000 A 
ATOM     25  N   UNL     1       8.115   4.346  17.267  0.00  0.00    +0.000 N 
ATOM     26  C   UNL     1       7.750   4.739  18.524  0.00  0.00    +0.000 A 
ATOM     27  N   UNL     1       6.470   5.025  18.593  0.00  0.00    +0.000 NA
ATOM     28  C   UNL     1       5.975   4.808  17.321  0.00  0.00    +0.000 A 
ATOM     29  H   UNL     1       9.045   4.083  16.973  0.00  0.00    +0.000 HD
ENDBRANCH   2  19
TORSDOF 2
ENDMDL
MODEL 3
REMARK VINA RESULT:      -8.1      1.494      1.499
REMARK  Name = 
REMARK  3 active torsions:
REMARK  status: ('A' for Active; 'I' for Inactive)
REMARK    1  A    between atoms: C_1  and  C_2
REMARK    2  A    between atoms: C_10  and  N_11
REMARK    3  A    between atoms: C_12  and  C_14
REMARK                            x       y       z     vdW  Elec       q    Type
REMARK                         _______ _______ _______ _____ _____    ______ ____
ROOT
ATOM      1  N   UNL     1       2.363   8.088  18.607  0.00  0.00    +0.000 N 
ATOM      2  C   UNL     1       2.560   6.836  19.167  0.00  0.00    +0.000 C 
ATOM      3  O   UNL     1       1.851   6.305  20.016  0.00  0.00    +0.000 OA
ATOM      4  H   UNL     1       3.053   8.390  17.916  0.00  0.00    +0.000 HD
ENDROOT
BRANCH   1  14
ATOM      5  C   UNL     1      -6.037  12.831  17.436  0.00  0.00    +0.000 C 
ATOM      6  C   UNL     1      -4.864  11.898  17.270  0.00  0.00    +0.000 C 
ATOM      7  O   UNL     1      -4.859  11.054  16.383  0.00  0.00    +0.000 OA
ATOM      8  N   UNL     1      -3.888  12.129  18.211  0.00  0.00    +0.000 N 
ATOM      9  C   UNL     1      -2.699  11.456  18.328  0.00  0.00    +0.000 A 
ATOM     10  N   UNL     1      -1.991  11.547  19.425  0.00  0.00    +0.000 NA
ATOM     11  C   UNL     1      -0.881  10.724  19.324  0.00  0.00    +0.000 A 
ATOM     12  C   UNL     1       0.057  10.487  20.340  0.00  0.00    +0.000 A 
ATOM     13  C   UNL     1       1.126   9.612  20.108  0.00  0.00    +0.000 A 
ATOM     14  C   UNL     1       1.298   8.981  18.876  0.00  0.00    +0.000 A 
ATOM     15  C   UNL     1       0.373   9.220  17.846  0.00  0.00    +0.000 A 
ATOM     16  C   UNL     1      -0.716  10.080  18.098  0.00  0.00    +0.000 A 
ATOM     17  S   UNL     1      -2.030  10.521  17.074  0.00  0.00    +0.000 S 
ATOM     18  H   UNL     1      -4.092  12.715  19.008  0.00  0.00    +0.000 HD
ENDBRANCH   1  14
BRANCH   2  19
ATOM     19  C   UNL     1       3.732   6.062  18.688  0.00  0.00    +0.000 A 
ATOM     20  C   UNL     1       4.636   6.673  17.795  0.00  0.00    +0.000 A 
ATOM     21  C   UNL     1       5.762   5.993  17.349  0.00  0.00    +0.000 A 
ATOM     22  F   UNL     1       6.603   6.608  16.507  0.00  0.00    +0.000 F 
ATOM     23  C   UNL     1       6.051   4.692  17.757  0.00  0.00    +0.000 A 
ATOM     24  C   UNL     1       5.140   4.098  18.634  0.00  0.00    +0.000 A 
ATOM     25  N   UNL     1       5.108   2.861  19.229  0.00  0.00    +0.000 N 
ATOM     26  C   UNL     1       3.982   2.795  20.001  0.00  0.00    +0.000 A 
ATOM     27  N   UNL     1       3.289   3.909  19.951  0.00  0.00    +0.000 NA
ATOM     28  C   UNL     1       3.996   4.744  19.105  0.00  0.00    +0.000 A 
ATOM     29  H   UNL     1       5.795   2.131  19.117  0.00  0.00    +0.000 HD
ENDBRANCH   2  19
TORSDOF 2
ENDMDL
MODEL 4
REMARK VINA RESULT:      -8.1      3.358      4.447
REMARK  Name = 
REMARK  3 active torsions:
REMARK  status: ('A' for Active; 'I' for Inactive)
REMARK    1  A    between atoms: C_1  and  C_2
REMARK    2  A    between atoms: C_10  and  N_11
REMARK    3  A    between atoms: C_12  and  C_14
REMARK                            x       y       z     vdW  Elec       q    Type
REMARK                         _______ _______ _______ _____ _____    ______ ____
ROOT
ATOM      1  N   UNL     1       1.954   8.369  17.810  0.00  0.00    +0.000 N 
ATOM      2  C   UNL     1       2.309   7.375  18.708  0.00  0.00    +0.000 C 
ATOM      3  O   UNL     1       2.218   7.441  19.930  0.00  0.00    +0.000 OA
ATOM      4  H   UNL     1       2.100   8.159  16.820  0.00  0.00    +0.000 HD
ENDROOT
BRANCH   1  14
ATOM      5  C   UNL     1       1.290  18.007  18.853  0.00  0.00    +0.000 C 
ATOM      6  C   UNL     1       1.770  16.613  18.535  0.00  0.00    +0.000 C 
ATOM      7  O   UNL     1       2.841  16.436  17.969  0.00  0.00    +0.000 OA
ATOM      8  N   UNL     1       0.871  15.656  18.943  0.00  0.00    +0.000 N 
ATOM      9  C   UNL     1       1.012  14.299  18.805  0.00  0.00    +0.000 A 
ATOM     10  N   UNL     1      -0.020  13.507  18.947  0.00  0.00    +0.000 NA
ATOM     11  C   UNL     1       0.364  12.202  18.687  0.00  0.00    +0.000 A 
ATOM     12  C   UNL     1      -0.489  11.089  18.649  0.00  0.00    +0.000 A 
ATOM     13  C   UNL     1       0.032   9.823  18.353  0.00  0.00    +0.000 A 
ATOM     14  C   UNL     1       1.393   9.632  18.116  0.00  0.00    +0.000 A 
ATOM     15  C   UNL     1       2.261  10.735  18.164  0.00  0.00    +0.000 A 
ATOM     16  C   UNL     1       1.723  12.010  18.435  0.00  0.00    +0.000 A 
ATOM     17  S   UNL     1       2.507  13.544  18.504  0.00  0.00    +0.000 S 
ATOM     18  H   UNL     1      -0.061  15.931  19.217  0.00  0.00    +0.000 HD
ENDBRANCH   1  14
BRANCH   2  19
ATOM     19  C   UNL     1       2.837   6.111  18.139  0.00  0.00    +0.000 A 
ATOM     20  C   UNL     1       2.057   4.941  18.231  0.00  0.00    +0.000 A 
ATOM     21  C   UNL     1       2.502   3.745  17.682  0.00  0.00    +0.000 A 
ATOM     22  F   UNL     1       1.729   2.655  17.783  0.00  0.00    +0.000 F 
ATOM     23  C   UNL     1       3.725   3.644  17.022  0.00  0.00    +0.000 A 
ATOM     24  C   UNL     1       4.490   4.811  16.948  0.00  0.00    +0.000 A 
ATOM     25  N   UNL     1       5.714   5.074  16.384  0.00  0.00    +0.000 N 
ATOM     26  C   UNL     1       6.003   6.391  16.602  0.00  0.00    +0.000 A 
ATOM     27  N   UNL     1       5.044   6.999  17.263  0.00  0.00    +0.000 NA
ATOM     28  C   UNL     1       4.082   6.031  17.487  0.00  0.00    +0.000 A 
ATOM     29  H   UNL     1       6.296   4.411  15.894  0.00  0.00    +0.000 HD
ENDBRANCH   2  19
TORSDOF 2
ENDMDL
MODEL 5
REMARK VINA RESULT:      -8.0      2.717      2.795
REMARK  Name = 
REMARK  3 active torsions:
REMARK  status: ('A' for Active; 'I' for Inactive)
REMARK    1  A    between atoms: C_1  and  C_2
REMARK    2  A    between atoms: C_10  and  N_11
REMARK    3  A    between atoms: C_12  and  C_14
REMARK                            x       y       z     vdW  Elec       q    Type
REMARK                         _______ _______ _______ _____ _____    ______ ____
ROOT
ATOM      1  N   UNL     1       2.164   7.824  20.006  0.00  0.00    +0.000 N 
ATOM      2  C   UNL     1       2.161   6.438  19.998  0.00  0.00    +0.000 C 
ATOM      3  O   UNL     1       1.442   5.714  20.679  0.00  0.00    +0.000 OA
ATOM      4  H   UNL     1       2.833   8.280  19.383  0.00  0.00    +0.000 HD
ENDROOT
BRANCH   1  14
ATOM      5  C   UNL     1      -4.758  14.335  22.034  0.00  0.00    +0.000 C 
ATOM      6  C   UNL     1      -3.832  13.376  21.329  0.00  0.00    +0.000 C 
ATOM      7  O   UNL     1      -3.965  13.146  20.134  0.00  0.00    +0.000 OA
ATOM      8  N   UNL     1      -2.899  12.841  22.186  0.00  0.00    +0.000 N 
ATOM      9  C   UNL     1      -1.916  11.944  21.857  0.00  0.00    +0.000 A 
ATOM     10  N   UNL     1      -1.287  11.277  22.791  0.00  0.00    +0.000 NA
ATOM     11  C   UNL     1      -0.401  10.389  22.204  0.00  0.00    +0.000 A 
ATOM     12  C   UNL     1       0.379   9.440  22.882  0.00  0.00    +0.000 A 
ATOM     13  C   UNL     1       1.222   8.588  22.159  0.00  0.00    +0.000 A 
ATOM     14  C   UNL     1       1.326   8.671  20.770  0.00  0.00    +0.000 A 
ATOM     15  C   UNL     1       0.561   9.625  20.080  0.00  0.00    +0.000 A 
ATOM     16  C   UNL     1      -0.306  10.460  20.814  0.00  0.00    +0.000 A 
ATOM     17  S   UNL     1      -1.401  11.670  20.259  0.00  0.00    +0.000 S 
ATOM     18  H   UNL     1      -3.014  12.955  23.183  0.00  0.00    +0.000 HD
ENDBRANCH   1  14
BRANCH   2  19
ATOM     19  C   UNL     1       3.107   5.769  19.072  0.00  0.00    +0.000 A 
ATOM     20  C   UNL     1       3.528   6.453  17.913  0.00  0.00    +0.000 A 
ATOM     21  C   UNL     1       4.438   5.874  17.037  0.00  0.00    +0.000 A 
ATOM     22  F   UNL     1       4.820   6.556  15.949  0.00  0.00    +0.000 F 
ATOM     23  C   UNL     1       4.973   4.606  17.258  0.00  0.00    +0.000 A 
ATOM     24  C   UNL     1       4.539   3.939  18.406  0.00  0.00    +0.000 A 
ATOM     25  N   UNL     1       4.850   2.707  18.928  0.00  0.00    +0.000 N 
ATOM     26  C   UNL     1       4.133   2.546  20.080  0.00  0.00    +0.000 A 
ATOM     27  N   UNL     1       3.385   3.593  20.341  0.00  0.00    +0.000 NA
ATOM     28  C   UNL     1       3.625   4.482  19.310  0.00  0.00    +0.000 A 
ATOM     29  H   UNL     1       5.495   2.040  18.531  0.00  0.00    +0.000 HD
ENDBRANCH   2  19
TORSDOF 2
ENDMDL
MODEL 6
REMARK VINA RESULT:      -8.0      2.922      3.659
REMARK  Name = 
REMARK  3 active torsions:
REMARK  status: ('A' for Active; 'I' for Inactive)
REMARK    1  A    between atoms: C_1  and  C_2
REMARK    2  A    between atoms: C_10  and  N_11
REMARK    3  A    between atoms: C_12  and  C_14
REMARK                            x       y       z     vdW  Elec       q    Type
REMARK                         _______ _______ _______ _____ _____    ______ ____
ROOT
ATOM      1  N   UNL     1       2.175   8.543  17.667  0.00  0.00    +0.000 N 
ATOM      2  C   UNL     1       2.535   7.490  18.493  0.00  0.00    +0.000 C 
ATOM      3  O   UNL     1       2.334   7.420  19.702  0.00  0.00    +0.000 OA
ATOM      4  H   UNL     1       2.424   8.450  16.680  0.00  0.00    +0.000 HD
ENDROOT
BRANCH   1  14
ATOM      5  C   UNL     1       0.499  17.983  19.246  0.00  0.00    +0.000 C 
ATOM      6  C   UNL     1       1.122  16.668  18.852  0.00  0.00    +0.000 C 
ATOM      7  O   UNL     1       2.205  16.637  18.282  0.00  0.00    +0.000 OA
ATOM      8  N   UNL     1       0.330  15.600  19.203  0.00  0.00    +0.000 N 
ATOM      9  C   UNL     1       0.614  14.275  18.989  0.00  0.00    +0.000 A 
ATOM     10  N   UNL     1      -0.328  13.371  19.083  0.00  0.00    +0.000 NA
ATOM     11  C   UNL     1       0.191  12.131  18.752  0.00  0.00    +0.000 A 
ATOM     12  C   UNL     1      -0.540  10.938  18.648  0.00  0.00    +0.000 A 
ATOM     13  C   UNL     1       0.111   9.753  18.284  0.00  0.00    +0.000 A 
ATOM     14  C   UNL     1       1.485   9.720  18.042  0.00  0.00    +0.000 A 
ATOM     15  C   UNL     1       2.231  10.904  18.155  0.00  0.00    +0.000 A 
ATOM     16  C   UNL     1       1.562  12.099  18.494  0.00  0.00    +0.000 A 
ATOM     17  S   UNL     1       2.180  13.700  18.652  0.00  0.00    +0.000 S 
ATOM     18  H   UNL     1      -0.625  15.759  19.489  0.00  0.00    +0.000 HD
ENDBRANCH   1  14
BRANCH   2  19
ATOM     19  C   UNL     1       3.216   6.337  17.856  0.00  0.00    +0.000 A 
ATOM     20  C   UNL     1       4.428   6.553  17.169  0.00  0.00    +0.000 A 
ATOM     21  C   UNL     1       5.113   5.493  16.587  0.00  0.00    +0.000 A 
ATOM     22  F   UNL     1       6.267   5.736  15.949  0.00  0.00    +0.000 F 
ATOM     23  C   UNL     1       4.642   4.184  16.651  0.00  0.00    +0.000 A 
ATOM     24  C   UNL     1       3.435   3.989  17.326  0.00  0.00    +0.000 A 
ATOM     25  N   UNL     1       2.695   2.861  17.581  0.00  0.00    +0.000 N 
ATOM     26  C   UNL     1       1.586   3.235  18.286  0.00  0.00    +0.000 A 
ATOM     27  N   UNL     1       1.564   4.529  18.511  0.00  0.00    +0.000 NA
ATOM     28  C   UNL     1       2.714   5.024  17.923  0.00  0.00    +0.000 A 
ATOM     29  H   UNL     1       2.930   1.920  17.298  0.00  0.00    +0.000 HD
ENDBRANCH   2  19
TORSDOF 2
ENDMDL
MODEL 7
REMARK VINA RESULT:      -7.9      2.372      2.828
REMARK  Name = 
REMARK  3 active torsions:
REMARK  status: ('A' for Active; 'I' for Inactive)
REMARK    1  A    between atoms: C_1  and  C_2
REMARK    2  A    between atoms: C_10  and  N_11
REMARK    3  A    between atoms: C_12  and  C_14
REMARK                            x       y       z     vdW  Elec       q    Type
REMARK                         _______ _______ _______ _____ _____    ______ ____
ROOT
ATOM      1  N   UNL     1       2.087   8.479  17.843  0.00  0.00    +0.000 N 
ATOM      2  C   UNL     1       2.353   7.459  18.742  0.00  0.00    +0.000 C 
ATOM      3  O   UNL     1       2.244   7.526  19.962  0.00  0.00    +0.000 OA
ATOM      4  H   UNL     1       2.237   8.263  16.854  0.00  0.00    +0.000 HD
ENDROOT
BRANCH   1  14
ATOM      5  C   UNL     1      -3.801  15.456  21.170  0.00  0.00    +0.000 C 
ATOM      6  C   UNL     1      -3.181  14.126  20.824  0.00  0.00    +0.000 C 
ATOM      7  O   UNL     1      -3.690  13.082  21.211  0.00  0.00    +0.000 OA
ATOM      8  N   UNL     1      -2.039  14.273  20.072  0.00  0.00    +0.000 N 
ATOM      9  C   UNL     1      -1.247  13.260  19.594  0.00  0.00    +0.000 A 
ATOM     10  N   UNL     1      -0.039  13.512  19.160  0.00  0.00    +0.000 NA
ATOM     11  C   UNL     1       0.578  12.324  18.803  0.00  0.00    +0.000 A 
ATOM     12  C   UNL     1       1.909  12.187  18.383  0.00  0.00    +0.000 A 
ATOM     13  C   UNL     1       2.412  10.918  18.071  0.00  0.00    +0.000 A 
ATOM     14  C   UNL     1       1.612   9.777  18.145  0.00  0.00    +0.000 A 
ATOM     15  C   UNL     1       0.273   9.902  18.552  0.00  0.00    +0.000 A 
ATOM     16  C   UNL     1      -0.216  11.181  18.892  0.00  0.00    +0.000 A 
ATOM     17  S   UNL     1      -1.771  11.646  19.473  0.00  0.00    +0.000 S 
ATOM     18  H   UNL     1      -1.613  15.184  19.984  0.00  0.00    +0.000 HD
ENDBRANCH   1  14
BRANCH   2  19
ATOM     19  C   UNL     1       2.801   6.163  18.176  0.00  0.00    +0.000 A 
ATOM     20  C   UNL     1       1.966   5.034  18.308  0.00  0.00    +0.000 A 
ATOM     21  C   UNL     1       2.335   3.811  17.763  0.00  0.00    +0.000 A 
ATOM     22  F   UNL     1       1.512   2.762  17.902  0.00  0.00    +0.000 F 
ATOM     23  C   UNL     1       3.531   3.640  17.069  0.00  0.00    +0.000 A 
ATOM     24  C   UNL     1       4.350   4.766  16.955  0.00  0.00    +0.000 A 
ATOM     25  N   UNL     1       5.568   4.960  16.351  0.00  0.00    +0.000 N 
ATOM     26  C   UNL     1       5.928   6.264  16.542  0.00  0.00    +0.000 A 
ATOM     27  N   UNL     1       5.021   6.928  17.222  0.00  0.00    +0.000 NA
ATOM     28  C   UNL     1       4.020   6.012  17.489  0.00  0.00    +0.000 A 
ATOM     29  H   UNL     1       6.102   4.263  15.854  0.00  0.00    +0.000 HD
ENDBRANCH   2  19
TORSDOF 2
ENDMDL
MODEL 8
REMARK VINA RESULT:      -7.9      3.484      3.918
REMARK  Name = 
REMARK  3 active torsions:
REMARK  status: ('A' for Active; 'I' for Inactive)
REMARK    1  A    between atoms: C_1  and  C_2
REMARK    2  A    between atoms: C_10  and  N_11
REMARK    3  A    between atoms: C_12  and  C_14
REMARK                            x       y       z     vdW  Elec       q    Type
REMARK                         _______ _______ _______ _____ _____    ______ ____
ROOT
ATOM      1  N   UNL     1       2.345   7.237  19.012  0.00  0.00    +0.000 N 
ATOM      2  C   UNL     1       2.118   6.220  19.925  0.00  0.00    +0.000 C 
ATOM      3  O   UNL     1       1.459   6.311  20.957  0.00  0.00    +0.000 OA
ATOM      4  H   UNL     1       2.925   6.999  18.204  0.00  0.00    +0.000 HD
ENDROOT
BRANCH   1  14
ATOM      5  C   UNL     1      -1.667  15.286  22.690  0.00  0.00    +0.000 C 
ATOM      6  C   UNL     1      -1.082  13.907  22.518  0.00  0.00    +0.000 C 
ATOM      7  O   UNL     1      -0.920  13.173  23.484  0.00  0.00    +0.000 OA
ATOM      8  N   UNL     1      -0.776  13.641  21.204  0.00  0.00    +0.000 N 
ATOM      9  C   UNL     1      -0.236  12.479  20.716  0.00  0.00    +0.000 A 
ATOM     10  N   UNL     1       0.291  12.443  19.519  0.00  0.00    +0.000 NA
ATOM     11  C   UNL     1       0.830  11.188  19.291  0.00  0.00    +0.000 A 
ATOM     12  C   UNL     1       1.560  10.804  18.156  0.00  0.00    +0.000 A 
ATOM     13  C   UNL     1       2.067   9.502  18.064  0.00  0.00    +0.000 A 
ATOM     14  C   UNL     1       1.845   8.560  19.069  0.00  0.00    +0.000 A 
ATOM     15  C   UNL     1       1.104   8.927  20.204  0.00  0.00    +0.000 A 
ATOM     16  C   UNL     1       0.622  10.249  20.301  0.00  0.00    +0.000 A 
ATOM     17  S   UNL     1      -0.255  11.010  21.575  0.00  0.00    +0.000 S 
ATOM     18  H   UNL     1      -0.771  14.394  20.530  0.00  0.00    +0.000 HD
ENDBRANCH   1  14
BRANCH   2  19
ATOM     19  C   UNL     1       2.716   4.897  19.622  0.00  0.00    +0.000 A 
ATOM     20  C   UNL     1       1.890   3.755  19.634  0.00  0.00    +0.000 A 
ATOM     21  C   UNL     1       2.405   2.502  19.324  0.00  0.00    +0.000 A 
ATOM     22  F   UNL     1       1.588   1.440  19.338  0.00  0.00    +0.000 F 
ATOM     23  C   UNL     1       3.745   2.316  18.991  0.00  0.00    +0.000 A 
ATOM     24  C   UNL     1       4.552   3.457  18.993  0.00  0.00    +0.000 A 
ATOM     25  N   UNL     1       5.884   3.642  18.719  0.00  0.00    +0.000 N 
ATOM     26  C   UNL     1       6.165   4.970  18.875  0.00  0.00    +0.000 A 
ATOM     27  N   UNL     1       5.101   5.656  19.224  0.00  0.00    +0.000 NA
ATOM     28  C   UNL     1       4.076   4.732  19.301  0.00  0.00    +0.000 A 
ATOM     29  H   UNL     1       6.540   2.924  18.448  0.00  0.00    +0.000 HD
ENDBRANCH   2  19
TORSDOF 2
ENDMDL
MODEL 9
REMARK VINA RESULT:      -7.8      2.418      2.527
REMARK  Name = 
REMARK  3 active torsions:
REMARK  status: ('A' for Active; 'I' for Inactive)
REMARK    1  A    between atoms: C_1  and  C_2
REMARK    2  A    between atoms: C_10  and  N_11
REMARK    3  A    between atoms: C_12  and  C_14
REMARK                            x       y       z     vdW  Elec       q    Type
REMARK                         _______ _______ _______ _____ _____    ______ ____
ROOT
ATOM      1  N   UNL     1       1.977   7.592  19.761  0.00  0.00    +0.000 N 
ATOM      2  C   UNL     1       2.514   7.793  18.500  0.00  0.00    +0.000 C 
ATOM      3  O   UNL     1       2.457   8.832  17.848  0.00  0.00    +0.000 OA
ATOM      4  H   UNL     1       2.104   6.662  20.165  0.00  0.00    +0.000 HD
ENDROOT
BRANCH   1  14
ATOM      5  C   UNL     1      -4.310  14.615  22.123  0.00  0.00    +0.000 C 
ATOM      6  C   UNL     1      -3.531  13.554  21.386  0.00  0.00    +0.000 C 
ATOM      7  O   UNL     1      -3.836  13.239  20.243  0.00  0.00    +0.000 OA
ATOM      8  N   UNL     1      -2.516  13.037  22.156  0.00  0.00    +0.000 N 
ATOM      9  C   UNL     1      -1.627  12.064  21.777  0.00  0.00    +0.000 A 
ATOM     10  N   UNL     1      -0.908  11.437  22.673  0.00  0.00    +0.000 NA
ATOM     11  C   UNL     1      -0.150  10.459  22.052  0.00  0.00    +0.000 A 
ATOM     12  C   UNL     1       0.672   9.524  22.700  0.00  0.00    +0.000 A 
ATOM     13  C   UNL     1       1.370   8.573  21.946  0.00  0.00    +0.000 A 
ATOM     14  C   UNL     1       1.289   8.542  20.554  0.00  0.00    +0.000 A 
ATOM     15  C   UNL     1       0.480   9.480  19.892  0.00  0.00    +0.000 A 
ATOM     16  C   UNL     1      -0.242  10.416  20.660  0.00  0.00    +0.000 A 
ATOM     17  S   UNL     1      -1.346  11.638  20.154  0.00  0.00    +0.000 S 
ATOM     18  H   UNL     1      -2.489  13.234  23.146  0.00  0.00    +0.000 HD
ENDBRANCH   1  14
BRANCH   2  19
ATOM     19  C   UNL     1       3.234   6.651  17.886  0.00  0.00    +0.000 A 
ATOM     20  C   UNL     1       4.444   6.893  17.203  0.00  0.00    +0.000 A 
ATOM     21  C   UNL     1       5.165   5.846  16.642  0.00  0.00    +0.000 A 
ATOM     22  F   UNL     1       6.315   6.114  16.007  0.00  0.00    +0.000 F 
ATOM     23  C   UNL     1       4.734   4.524  16.726  0.00  0.00    +0.000 A 
ATOM     24  C   UNL     1       3.530   4.303  17.397  0.00  0.00    +0.000 A 
ATOM     25  N   UNL     1       2.823   3.156  17.666  0.00  0.00    +0.000 N 
ATOM     26  C   UNL     1       1.699   3.508  18.358  0.00  0.00    +0.000 A 
ATOM     27  N   UNL     1       1.635   4.804  18.561  0.00  0.00    +0.000 NA
ATOM     28  C   UNL     1       2.773   5.324  17.972  0.00  0.00    +0.000 A 
ATOM     29  H   UNL     1       3.089   2.219  17.401  0.00  0.00    +0.000 HD
ENDBRANCH   2  19
TORSDOF 2
ENDMDL
