MODEL 1
REMARK VINA RESULT:      -9.0      0.000      0.000
REMARK  Name = 
REMARK  4 active torsions:
REMARK  status: ('A' for Active; 'I' for Inactive)
REMARK    1  A    between atoms: C_4  and  C_5
REMARK    2  A    between atoms: N_7  and  C_8
REMARK    3  A    between atoms: C_8  and  C_9
REMARK    4  A    between atoms: C_9  and  C_10
REMARK                            x       y       z     vdW  Elec       q    Type
REMARK                         _______ _______ _______ _____ _____    ______ ____
ROOT
ATOM      1  C   UNL     1       4.370   6.220  18.200  0.00  0.00    +0.000 C 
ATOM      2  O   UNL     1       4.032   6.950  17.278  0.00  0.00    +0.000 OA
ATOM      3  N   UNL     1       3.724   6.188  19.417  0.00  0.00    +0.000 N 
ATOM      4  H   UNL     1       4.271   5.851  20.204  0.00  0.00    +0.000 HD
ENDROOT
BRANCH   1   8
ATOM      5  O   UNL     1       8.229   7.594  18.565  0.00  0.00    +0.000 OA
ATOM      6  C   UNL     1       7.583   6.692  18.044  0.00  0.00    +0.000 C 
ATOM      7  C   UNL     1       6.741   5.722  18.842  0.00  0.00    +0.000 C 
ATOM      8  C   UNL     1       5.519   5.214  18.079  0.00  0.00    +0.000 C 
ATOM      9  C   UNL     1       5.855   4.866  16.644  0.00  0.00    +0.000 A 
ATOM     10  C   UNL     1       5.104   3.924  15.927  0.00  0.00    +0.000 A 
ATOM     11  C   UNL     1       5.421   3.638  14.597  0.00  0.00    +0.000 A 
ATOM     12  C   UNL     1       6.485   4.305  13.986  0.00  0.00    +0.000 A 
ATOM     13  F   UNL     1       6.785   4.018  12.710  0.00  0.00    +0.000 F 
ATOM     14  C   UNL     1       7.222   5.254  14.663  0.00  0.00    +0.000 A 
ATOM     15  C   UNL     1       6.912   5.521  16.006  0.00  0.00    +0.000 A 
ATOM     16  N   UNL     1       7.658   6.477  16.689  0.00  0.00    +0.000 N 
ATOM     17  H   UNL     1       8.307   7.072  16.188  0.00  0.00    +0.000 HD
ENDBRANCH   1   8
BRANCH   3  18
ATOM     18  C   UNL     1       2.598   7.029  19.752  0.00  0.00    +0.000 C 
BRANCH  18  19
ATOM     19  C   UNL     1       1.547   6.227  20.538  0.00  0.00    +0.000 C 
BRANCH  19  20
ATOM     20  C   UNL     1       1.868   4.760  20.563  0.00  0.00    +0.000 A 
ATOM     21  C   UNL     1       2.324   4.062  21.666  0.00  0.00    +0.000 A 
ATOM     22  N   UNL     1       2.426   2.751  21.305  0.00  0.00    +0.000 N 
ATOM     23  C   UNL     1       2.491   2.666  19.940  0.00  0.00    +0.000 A 
ATOM     24  C   UNL     1       2.962   1.642  19.112  0.00  0.00    +0.000 A 
ATOM     25  C   UNL     1       2.791   1.804  17.737  0.00  0.00    +0.000 A 
ATOM     26  C   UNL     1       2.095   2.900  17.229  0.00  0.00    +0.000 A 
ATOM     27  C   UNL     1       1.654   3.929  18.074  0.00  0.00    +0.000 A 
ATOM     28  C   UNL     1       1.931   3.848  19.454  0.00  0.00    +0.000 A 
ATOM     29  H   UNL     1       2.513   1.971  21.943  0.00  0.00    +0.000 HD
ENDBRANCH  19  20
ENDBRANCH  18  19
ENDBRANCH   3  18
TORSDOF 4
ENDMDL
MODEL 2
REMARK VINA RESULT:      -8.6      4.683      8.389
REMARK  Name = 
REMARK  4 active torsions:
REMARK  status: ('A' for Active; 'I' for Inactive)
REMARK    1  A    between atoms: C_4  and  C_5
REMARK    2  A    between atoms: N_7  and  C_8
REMARK    3  A    between atoms: C_8  and  C_9
REMARK    4  A    between atoms: C_9  and  C_10
REMARK                            x       y       z     vdW  Elec       q    Type
REMARK                         _______ _______ _______ _____ _____    ______ ____
ROOT
ATOM      1  C   UNL     1       6.841   6.883  17.484  0.00  0.00    +0.000 C 
ATOM      2  O   UNL     1       6.088   7.449  16.703  0.00  0.00    +0.000 OA
ATOM      3  N   UNL     1       7.888   7.515  18.119  0.00  0.00    +0.000 N 
ATOM      4  H   UNL     1       8.645   6.917  18.435  0.00  0.00    +0.000 HD
ENDROOT
BRANCH   1   8
ATOM      5  O   UNL     1       6.686   4.040  14.516  0.00  0.00    +0.000 OA
ATOM      6  C   UNL     1       6.302   4.244  15.662  0.00  0.00    +0.000 C 
ATOM      7  C   UNL     1       7.253   4.505  16.808  0.00  0.00    +0.000 C 
ATOM      8  C   UNL     1       6.666   5.415  17.885  0.00  0.00    +0.000 C 
ATOM      9  C   UNL     1       5.229   5.055  18.206  0.00  0.00    +0.000 A 
ATOM     10  C   UNL     1       4.666   5.348  19.456  0.00  0.00    +0.000 A 
ATOM     11  C   UNL     1       3.332   5.026  19.718  0.00  0.00    +0.000 A 
ATOM     12  C   UNL     1       2.564   4.420  18.721  0.00  0.00    +0.000 A 
ATOM     13  F   UNL     1       1.285   4.109  18.986  0.00  0.00    +0.000 F 
ATOM     14  C   UNL     1       3.089   4.145  17.477  0.00  0.00    +0.000 A 
ATOM     15  C   UNL     1       4.436   4.451  17.227  0.00  0.00    +0.000 A 
ATOM     16  N   UNL     1       4.966   4.172  15.971  0.00  0.00    +0.000 N 
ATOM     17  H   UNL     1       4.356   3.895  15.210  0.00  0.00    +0.000 HD
ENDBRANCH   1   8
BRANCH   3  18
ATOM     18  C   UNL     1       8.232   8.904  17.915  0.00  0.00    +0.000 C 
BRANCH  18  19
ATOM     19  C   UNL     1       9.018   9.443  19.124  0.00  0.00    +0.000 C 
BRANCH  19  20
ATOM     20  C   UNL     1       9.433  10.872  18.927  0.00  0.00    +0.000 A 
ATOM     21  C   UNL     1      10.042  11.378  17.793  0.00  0.00    +0.000 A 
ATOM     22  N   UNL     1      10.190  12.721  17.974  0.00  0.00    +0.000 N 
ATOM     23  C   UNL     1      10.122  13.003  19.313  0.00  0.00    +0.000 A 
ATOM     24  C   UNL     1      10.571  14.114  20.034  0.00  0.00    +0.000 A 
ATOM     25  C   UNL     1      10.252  14.164  21.391  0.00  0.00    +0.000 A 
ATOM     26  C   UNL     1       9.439  13.190  21.970  0.00  0.00    +0.000 A 
ATOM     27  C   UNL     1       9.022  12.070  21.236  0.00  0.00    +0.000 A 
ATOM     28  C   UNL     1       9.442  11.934  19.897  0.00  0.00    +0.000 A 
ATOM     29  H   UNL     1      10.390  13.394  17.246  0.00  0.00    +0.000 HD
ENDBRANCH  19  20
ENDBRANCH  18  19
ENDBRANCH   3  18
TORSDOF 4
ENDMDL
MODEL 3
REMARK VINA RESULT:      -8.5      4.130      6.107
REMARK  Name = 
REMARK  4 active torsions:
REMARK  status: ('A' for Active; 'I' for Inactive)
REMARK    1  A    between atoms: C_4  and  C_5
REMARK    2  A    between atoms: N_7  and  C_8
REMARK    3  A    between atoms: C_8  and  C_9
REMARK    4  A    between atoms: C_9  and  C_10
REMARK                            x       y       z     vdW  Elec       q    Type
REMARK                         _______ _______ _______ _____ _____    ______ ____
ROOT
ATOM      1  C   UNL     1       2.852   5.709  17.857  0.00  0.00    +0.000 C 
ATOM      2  O   UNL     1       1.786   5.140  18.043  0.00  0.00    +0.000 OA
ATOM      3  N   UNL     1       3.077   7.027  18.191  0.00  0.00    +0.000 N 
ATOM      4  H   UNL     1       3.821   7.496  17.685  0.00  0.00    +0.000 HD
ENDROOT
BRANCH   1   8
ATOM      5  O   UNL     1       4.210   2.308  19.728  0.00  0.00    +0.000 OA
ATOM      6  C   UNL     1       4.606   3.235  19.029  0.00  0.00    +0.000 C 
ATOM      7  C   UNL     1       4.048   3.516  17.652  0.00  0.00    +0.000 C 
ATOM      8  C   UNL     1       4.080   4.997  17.279  0.00  0.00    +0.000 C 
ATOM      9  C   UNL     1       5.387   5.651  17.677  0.00  0.00    +0.000 A 
ATOM     10  C   UNL     1       5.869   6.785  17.007  0.00  0.00    +0.000 A 
ATOM     11  C   UNL     1       7.066   7.382  17.408  0.00  0.00    +0.000 A 
ATOM     12  C   UNL     1       7.772   6.846  18.488  0.00  0.00    +0.000 A 
ATOM     13  F   UNL     1       8.925   7.424  18.861  0.00  0.00    +0.000 F 
ATOM     14  C   UNL     1       7.306   5.748  19.178  0.00  0.00    +0.000 A 
ATOM     15  C   UNL     1       6.113   5.139  18.756  0.00  0.00    +0.000 A 
ATOM     16  N   UNL     1       5.644   4.029  19.451  0.00  0.00    +0.000 N 
ATOM     17  H   UNL     1       6.070   3.759  20.330  0.00  0.00    +0.000 HD
ENDBRANCH   1   8
BRANCH   3  18
ATOM     18  C   UNL     1       2.074   7.891  18.772  0.00  0.00    +0.000 C 
BRANCH  18  19
ATOM     19  C   UNL     1       1.487   8.825  17.699  0.00  0.00    +0.000 C 
BRANCH  19  20
ATOM     20  C   UNL     1       0.673   9.931  18.306  0.00  0.00    +0.000 A 
ATOM     21  C   UNL     1       1.046  10.686  19.404  0.00  0.00    +0.000 A 
ATOM     22  N   UNL     1       0.080  11.628  19.597  0.00  0.00    +0.000 N 
ATOM     23  C   UNL     1      -1.071  11.225  18.974  0.00  0.00    +0.000 A 
ATOM     24  C   UNL     1      -2.399  11.616  19.172  0.00  0.00    +0.000 A 
ATOM     25  C   UNL     1      -3.353  11.102  18.293  0.00  0.00    +0.000 A 
ATOM     26  C   UNL     1      -2.972  10.310  17.210  0.00  0.00    +0.000 A 
ATOM     27  C   UNL     1      -1.638   9.908  17.045  0.00  0.00    +0.000 A 
ATOM     28  C   UNL     1      -0.679  10.309  17.997  0.00  0.00    +0.000 A 
ATOM     29  H   UNL     1       0.174  12.457  20.169  0.00  0.00    +0.000 HD
ENDBRANCH  19  20
ENDBRANCH  18  19
ENDBRANCH   3  18
TORSDOF 4
ENDMDL
MODEL 4
REMARK VINA RESULT:      -8.5      4.684      8.525
REMARK  Name = 
REMARK  4 active torsions:
REMARK  status: ('A' for Active; 'I' for Inactive)
REMARK    1  A    between atoms: C_4  and  C_5
REMARK    2  A    between atoms: N_7  and  C_8
REMARK    3  A    between atoms: C_8  and  C_9
REMARK    4  A    between atoms: C_9  and  C_10
REMARK                            x       y       z     vdW  Elec       q    Type
REMARK                         _______ _______ _______ _____ _____    ______ ____
ROOT
ATOM      1  C   UNL     1       6.693   6.894  17.358  0.00  0.00    +0.000 C 
ATOM      2  O   UNL     1       5.695   7.371  16.835  0.00  0.00    +0.000 OA
ATOM      3  N   UNL     1       7.751   7.655  17.806  0.00  0.00    +0.000 N 
ATOM      4  H   UNL     1       8.645   7.180  17.875  0.00  0.00    +0.000 HD
ENDROOT
BRANCH   1   8
ATOM      5  O   UNL     1       6.793   4.328  14.145  0.00  0.00    +0.000 OA
ATOM      6  C   UNL     1       6.496   4.357  15.334  0.00  0.00    +0.000 C 
ATOM      7  C   UNL     1       7.491   4.712  16.416  0.00  0.00    +0.000 C 
ATOM      8  C   UNL     1       6.850   5.394  17.624  0.00  0.00    +0.000 C 
ATOM      9  C   UNL     1       5.552   4.724  18.028  0.00  0.00    +0.000 A 
ATOM     10  C   UNL     1       5.074   4.794  19.343  0.00  0.00    +0.000 A 
ATOM     11  C   UNL     1       3.863   4.187  19.684  0.00  0.00    +0.000 A 
ATOM     12  C   UNL     1       3.130   3.519  18.700  0.00  0.00    +0.000 A 
ATOM     13  F   UNL     1       1.971   2.933  19.039  0.00  0.00    +0.000 F 
ATOM     14  C   UNL     1       3.568   3.458  17.394  0.00  0.00    +0.000 A 
ATOM     15  C   UNL     1       4.796   4.052  17.063  0.00  0.00    +0.000 A 
ATOM     16  N   UNL     1       5.239   3.989  15.746  0.00  0.00    +0.000 N 
ATOM     17  H   UNL     1       4.620   3.656  15.015  0.00  0.00    +0.000 HD
ENDBRANCH   1   8
BRANCH   3  18
ATOM     18  C   UNL     1       7.815   9.094  17.685  0.00  0.00    +0.000 C 
BRANCH  18  19
ATOM     19  C   UNL     1       8.936   9.656  18.576  0.00  0.00    +0.000 C 
BRANCH  19  20
ATOM     20  C   UNL     1       9.149  11.125  18.347  0.00  0.00    +0.000 A 
ATOM     21  C   UNL     1       8.415  11.911  17.477  0.00  0.00    +0.000 A 
ATOM     22  N   UNL     1       8.862  13.192  17.610  0.00  0.00    +0.000 N 
ATOM     23  C   UNL     1      10.112  13.175  18.169  0.00  0.00    +0.000 A 
ATOM     24  C   UNL     1      11.124  14.140  18.168  0.00  0.00    +0.000 A 
ATOM     25  C   UNL     1      12.262  13.872  18.930  0.00  0.00    +0.000 A 
ATOM     26  C   UNL     1      12.333  12.731  19.729  0.00  0.00    +0.000 A 
ATOM     27  C   UNL     1      11.319  11.763  19.694  0.00  0.00    +0.000 A 
ATOM     28  C   UNL     1      10.220  11.951  18.831  0.00  0.00    +0.000 A 
ATOM     29  H   UNL     1       8.381  14.019  17.282  0.00  0.00    +0.000 HD
ENDBRANCH  19  20
ENDBRANCH  18  19
ENDBRANCH   3  18
TORSDOF 4
ENDMDL
MODEL 5
REMARK VINA RESULT:      -8.5      3.586      5.895
REMARK  Name = 
REMARK  4 active torsions:
REMARK  status: ('A' for Active; 'I' for Inactive)
REMARK    1  A    between atoms: C_4  and  C_5
REMARK    2  A    between atoms: N_7  and  C_8
REMARK    3  A    between atoms: C_8  and  C_9
REMARK    4  A    between atoms: C_9  and  C_10
REMARK                            x       y       z     vdW  Elec       q    Type
REMARK                         _______ _______ _______ _____ _____    ______ ____
ROOT
ATOM      1  C   UNL     1       2.780   5.534  17.981  0.00  0.00    +0.000 C 
ATOM      2  O   UNL     1       1.692   4.980  18.054  0.00  0.00    +0.000 OA
ATOM      3  N   UNL     1       3.040   6.769  18.533  0.00  0.00    +0.000 N 
ATOM      4  H   UNL     1       3.811   7.289  18.123  0.00  0.00    +0.000 HD
ENDROOT
BRANCH   1   8
ATOM      5  O   UNL     1       4.336   2.110  19.646  0.00  0.00    +0.000 OA
ATOM      6  C   UNL     1       4.666   3.074  18.964  0.00  0.00    +0.000 C 
ATOM      7  C   UNL     1       4.028   3.389  17.630  0.00  0.00    +0.000 C 
ATOM      8  C   UNL     1       3.996   4.883  17.314  0.00  0.00    +0.000 C 
ATOM      9  C   UNL     1       5.303   5.563  17.667  0.00  0.00    +0.000 A 
ATOM     10  C   UNL     1       5.714   6.735  17.018  0.00  0.00    +0.000 A 
ATOM     11  C   UNL     1       6.913   7.355  17.379  0.00  0.00    +0.000 A 
ATOM     12  C   UNL     1       7.691   6.802  18.399  0.00  0.00    +0.000 A 
ATOM     13  F   UNL     1       8.844   7.402  18.734  0.00  0.00    +0.000 F 
ATOM     14  C   UNL     1       7.294   5.664  19.069  0.00  0.00    +0.000 A 
ATOM     15  C   UNL     1       6.100   5.034  18.686  0.00  0.00    +0.000 A 
ATOM     16  N   UNL     1       5.701   3.885  19.362  0.00  0.00    +0.000 N 
ATOM     17  H   UNL     1       6.181   3.596  20.206  0.00  0.00    +0.000 HD
ENDBRANCH   1   8
BRANCH   3  18
ATOM     18  C   UNL     1       2.054   7.562  19.233  0.00  0.00    +0.000 C 
BRANCH  18  19
ATOM     19  C   UNL     1       1.846   8.908  18.518  0.00  0.00    +0.000 C 
BRANCH  19  20
ATOM     20  C   UNL     1       0.743   9.709  19.148  0.00  0.00    +0.000 A 
ATOM     21  C   UNL     1       0.082  10.766  18.548  0.00  0.00    +0.000 A 
ATOM     22  N   UNL     1      -0.892  11.177  19.408  0.00  0.00    +0.000 N 
ATOM     23  C   UNL     1      -0.589  10.743  20.671  0.00  0.00    +0.000 A 
ATOM     24  C   UNL     1      -1.030  11.191  21.920  0.00  0.00    +0.000 A 
ATOM     25  C   UNL     1      -0.623  10.465  23.039  0.00  0.00    +0.000 A 
ATOM     26  C   UNL     1       0.114   9.289  22.897  0.00  0.00    +0.000 A 
ATOM     27  C   UNL     1       0.569   8.872  21.638  0.00  0.00    +0.000 A 
ATOM     28  C   UNL     1       0.279   9.663  20.508  0.00  0.00    +0.000 A 
ATOM     29  H   UNL     1      -1.676  11.770  19.168  0.00  0.00    +0.000 HD
ENDBRANCH  19  20
ENDBRANCH  18  19
ENDBRANCH   3  18
TORSDOF 4
ENDMDL
MODEL 6
REMARK VINA RESULT:      -8.4      3.332      5.651
REMARK  Name = 
REMARK  4 active torsions:
REMARK  status: ('A' for Active; 'I' for Inactive)
REMARK    1  A    between atoms: C_4  and  C_5
REMARK    2  A    between atoms: N_7  and  C_8
REMARK    3  A    between atoms: C_8  and  C_9
REMARK    4  A    between atoms: C_9  and  C_10
REMARK                            x       y       z     vdW  Elec       q    Type
REMARK                         _______ _______ _______ _____ _____    ______ ____
ROOT
ATOM      1  C   UNL     1       2.324   4.501  18.035  0.00  0.00    +0.000 C 
ATOM      2  O   UNL     1       1.198   4.258  17.624  0.00  0.00    +0.000 OA
ATOM      3  N   UNL     1       2.574   5.268  19.152  0.00  0.00    +0.000 N 
ATOM      4  H   UNL     1       3.489   5.706  19.197  0.00  0.00    +0.000 HD
ENDROOT
BRANCH   1   8
ATOM      5  O   UNL     1       4.631   1.866  20.192  0.00  0.00    +0.000 OA
ATOM      6  C   UNL     1       4.716   2.687  19.286  0.00  0.00    +0.000 C 
ATOM      7  C   UNL     1       3.926   2.573  18.002  0.00  0.00    +0.000 C 
ATOM      8  C   UNL     1       3.584   3.926  17.381  0.00  0.00    +0.000 C 
ATOM      9  C   UNL     1       4.762   4.879  17.422  0.00  0.00    +0.000 A 
ATOM     10  C   UNL     1       4.889   5.921  16.493  0.00  0.00    +0.000 A 
ATOM     11  C   UNL     1       5.973   6.800  16.567  0.00  0.00    +0.000 A 
ATOM     12  C   UNL     1       6.920   6.636  17.580  0.00  0.00    +0.000 A 
ATOM     13  F   UNL     1       7.961   7.482  17.638  0.00  0.00    +0.000 F 
ATOM     14  C   UNL     1       6.802   5.635  18.520  0.00  0.00    +0.000 A 
ATOM     15  C   UNL     1       5.723   4.742  18.427  0.00  0.00    +0.000 A 
ATOM     16  N   UNL     1       5.606   3.730  19.374  0.00  0.00    +0.000 N 
ATOM     17  H   UNL     1       6.198   3.729  20.197  0.00  0.00    +0.000 HD
ENDBRANCH   1   8
BRANCH   3  18
ATOM     18  C   UNL     1       1.541   5.894  19.946  0.00  0.00    +0.000 C 
BRANCH  18  19
ATOM     19  C   UNL     1       2.088   7.156  20.635  0.00  0.00    +0.000 C 
BRANCH  19  20
ATOM     20  C   UNL     1       1.270   8.371  20.304  0.00  0.00    +0.000 A 
ATOM     21  C   UNL     1       1.330   9.073  19.113  0.00  0.00    +0.000 A 
ATOM     22  N   UNL     1       0.389  10.057  19.173  0.00  0.00    +0.000 N 
ATOM     23  C   UNL     1       0.063  10.289  20.483  0.00  0.00    +0.000 A 
ATOM     24  C   UNL     1      -0.533  11.397  21.093  0.00  0.00    +0.000 A 
ATOM     25  C   UNL     1      -0.842  11.290  22.449  0.00  0.00    +0.000 A 
ATOM     26  C   UNL     1      -0.647  10.090  23.133  0.00  0.00    +0.000 A 
ATOM     27  C   UNL     1      -0.023   8.999  22.510  0.00  0.00    +0.000 A 
ATOM     28  C   UNL     1       0.417   9.130  21.177  0.00  0.00    +0.000 A 
ATOM     29  H   UNL     1       0.038  10.584  18.384  0.00  0.00    +0.000 HD
ENDBRANCH  19  20
ENDBRANCH  18  19
ENDBRANCH   3  18
TORSDOF 4
ENDMDL
MODEL 7
REMARK VINA RESULT:      -8.4      3.941      6.396
REMARK  Name = 
REMARK  4 active torsions:
REMARK  status: ('A' for Active; 'I' for Inactive)
REMARK    1  A    between atoms: C_4  and  C_5
REMARK    2  A    between atoms: N_7  and  C_8
REMARK    3  A    between atoms: C_8  and  C_9
REMARK    4  A    between atoms: C_9  and  C_10
REMARK                            x       y       z     vdW  Elec       q    Type
REMARK                         _______ _______ _______ _____ _____    ______ ____
ROOT
ATOM      1  C   UNL     1       2.480   7.493  18.406  0.00  0.00    +0.000 C 
ATOM      2  O   UNL     1       2.229   7.486  19.603  0.00  0.00    +0.000 OA
ATOM      3  N   UNL     1       2.295   8.595  17.600  0.00  0.00    +0.000 N 
ATOM      4  H   UNL     1       2.177   8.409  16.608  0.00  0.00    +0.000 HD
ENDROOT
BRANCH   1   8
ATOM      5  O   UNL     1       1.836   3.741  19.963  0.00  0.00    +0.000 OA
ATOM      6  C   UNL     1       2.640   4.366  19.281  0.00  0.00    +0.000 C 
ATOM      7  C   UNL     1       2.263   5.033  17.977  0.00  0.00    +0.000 C 
ATOM      8  C   UNL     1       3.084   6.287  17.681  0.00  0.00    +0.000 C 
ATOM      9  C   UNL     1       4.554   6.084  17.989  0.00  0.00    +0.000 A 
ATOM     10  C   UNL     1       5.545   6.831  17.338  0.00  0.00    +0.000 A 
ATOM     11  C   UNL     1       6.892   6.641  17.657  0.00  0.00    +0.000 A 
ATOM     12  C   UNL     1       7.239   5.708  18.637  0.00  0.00    +0.000 A 
ATOM     13  F   UNL     1       8.536   5.528  18.932  0.00  0.00    +0.000 F 
ATOM     14  C   UNL     1       6.280   4.980  19.309  0.00  0.00    +0.000 A 
ATOM     15  C   UNL     1       4.930   5.160  18.968  0.00  0.00    +0.000 A 
ATOM     16  N   UNL     1       3.963   4.424  19.645  0.00  0.00    +0.000 N 
ATOM     17  H   UNL     1       4.214   3.885  20.465  0.00  0.00    +0.000 HD
ENDBRANCH   1   8
BRANCH   3  18
ATOM     18  C   UNL     1       1.760   9.854  18.067  0.00  0.00    +0.000 C 
BRANCH  18  19
ATOM     19  C   UNL     1       0.225   9.850  17.972  0.00  0.00    +0.000 C 
BRANCH  19  20
ATOM     20  C   UNL     1      -0.405  10.642  19.081  0.00  0.00    +0.000 A 
ATOM     21  C   UNL     1      -0.791  11.968  18.996  0.00  0.00    +0.000 A 
ATOM     22  N   UNL     1      -1.384  12.296  20.178  0.00  0.00    +0.000 N 
ATOM     23  C   UNL     1      -0.992  11.404  21.140  0.00  0.00    +0.000 A 
ATOM     24  C   UNL     1      -1.003  11.503  22.535  0.00  0.00    +0.000 A 
ATOM     25  C   UNL     1      -0.640  10.367  23.259  0.00  0.00    +0.000 A 
ATOM     26  C   UNL     1      -0.372   9.162  22.608  0.00  0.00    +0.000 A 
ATOM     27  C   UNL     1      -0.340   9.091  21.208  0.00  0.00    +0.000 A 
ATOM     28  C   UNL     1      -0.577  10.260  20.456  0.00  0.00    +0.000 A 
ATOM     29  H   UNL     1      -1.963  13.110  20.340  0.00  0.00    +0.000 HD
ENDBRANCH  19  20
ENDBRANCH  18  19
ENDBRANCH   3  18
TORSDOF 4
ENDMDL
MODEL 8
REMARK VINA RESULT:      -8.3      2.699      4.674
REMARK  Name = 
REMARK  4 active torsions:
REMARK  status: ('A' for Active; 'I' for Inactive)
REMARK    1  A    between atoms: C_4  and  C_5
REMARK    2  A    between atoms: N_7  and  C_8
REMARK    3  A    between atoms: C_8  and  C_9
REMARK    4  A    between atoms: C_9  and  C_10
REMARK                            x       y       z     vdW  Elec       q    Type
REMARK                         _______ _______ _______ _____ _____    ______ ____
ROOT
ATOM      1  C   UNL     1       2.187   4.002  17.898  0.00  0.00    +0.000 C 
ATOM      2  O   UNL     1       1.149   4.066  17.255  0.00  0.00    +0.000 OA
ATOM      3  N   UNL     1       2.272   4.325  19.234  0.00  0.00    +0.000 N 
ATOM      4  H   UNL     1       3.192   4.591  19.572  0.00  0.00    +0.000 HD
ENDROOT
BRANCH   1   8
ATOM      5  O   UNL     1       4.689   1.748  20.260  0.00  0.00    +0.000 OA
ATOM      6  C   UNL     1       4.713   2.506  19.296  0.00  0.00    +0.000 C 
ATOM      7  C   UNL     1       3.953   2.227  18.019  0.00  0.00    +0.000 C 
ATOM      8  C   UNL     1       3.502   3.495  17.296  0.00  0.00    +0.000 C 
ATOM      9  C   UNL     1       4.590   4.549  17.274  0.00  0.00    +0.000 A 
ATOM     10  C   UNL     1       4.637   5.527  16.271  0.00  0.00    +0.000 A 
ATOM     11  C   UNL     1       5.638   6.502  16.286  0.00  0.00    +0.000 A 
ATOM     12  C   UNL     1       6.583   6.498  17.315  0.00  0.00    +0.000 A 
ATOM     13  F   UNL     1       7.544   7.435  17.317  0.00  0.00    +0.000 F 
ATOM     14  C   UNL     1       6.541   5.562  18.326  0.00  0.00    +0.000 A 
ATOM     15  C   UNL     1       5.546   4.572  18.293  0.00  0.00    +0.000 A 
ATOM     16  N   UNL     1       5.506   3.626  19.312  0.00  0.00    +0.000 N 
ATOM     17  H   UNL     1       6.085   3.739  20.136  0.00  0.00    +0.000 HD
ENDBRANCH   1   8
BRANCH   3  18
ATOM     18  C   UNL     1       1.156   4.803  20.019  0.00  0.00    +0.000 C 
BRANCH  18  19
ATOM     19  C   UNL     1       1.655   5.684  21.177  0.00  0.00    +0.000 C 
BRANCH  19  20
ATOM     20  C   UNL     1       1.419   7.143  20.911  0.00  0.00    +0.000 A 
ATOM     21  C   UNL     1       0.599   7.968  21.659  0.00  0.00    +0.000 A 
ATOM     22  N   UNL     1       0.708   9.226  21.146  0.00  0.00    +0.000 N 
ATOM     23  C   UNL     1       1.189   9.148  19.865  0.00  0.00    +0.000 A 
ATOM     24  C   UNL     1       1.130  10.065  18.812  0.00  0.00    +0.000 A 
ATOM     25  C   UNL     1       1.819   9.740  17.643  0.00  0.00    +0.000 A 
ATOM     26  C   UNL     1       2.608   8.591  17.576  0.00  0.00    +0.000 A 
ATOM     27  C   UNL     1       2.632   7.671  18.634  0.00  0.00    +0.000 A 
ATOM     28  C   UNL     1       1.839   7.916  19.774  0.00  0.00    +0.000 A 
ATOM     29  H   UNL     1       0.414  10.077  21.607  0.00  0.00    +0.000 HD
ENDBRANCH  19  20
ENDBRANCH  18  19
ENDBRANCH   3  18
TORSDOF 4
ENDMDL
MODEL 9
REMARK VINA RESULT:      -8.3      4.604      8.279
REMARK  Name = 
REMARK  4 active torsions:
REMARK  status: ('A' for Active; 'I' for Inactive)
REMARK    1  A    between atoms: C_4  and  C_5
REMARK    2  A    between atoms: N_7  and  C_8
REMARK    3  A    between atoms: C_8  and  C_9
REMARK    4  A    between atoms: C_9  and  C_10
REMARK                            x       y       z     vdW  Elec       q    Type
REMARK                         _______ _______ _______ _____ _____    ______ ____
ROOT
ATOM      1  C   UNL     1       6.781   6.938  17.376  0.00  0.00    +0.000 C 
ATOM      2  O   UNL     1       6.002   7.459  16.590  0.00  0.00    +0.000 OA
ATOM      3  N   UNL     1       7.841   7.607  17.948  0.00  0.00    +0.000 N 
ATOM      4  H   UNL     1       8.611   7.030  18.272  0.00  0.00    +0.000 HD
ENDROOT
BRANCH   1   8
ATOM      5  O   UNL     1       6.665   3.937  14.567  0.00  0.00    +0.000 OA
ATOM      6  C   UNL     1       6.279   4.197  15.701  0.00  0.00    +0.000 C 
ATOM      7  C   UNL     1       7.227   4.533  16.830  0.00  0.00    +0.000 C 
ATOM      8  C   UNL     1       6.627   5.492  17.857  0.00  0.00    +0.000 C 
ATOM      9  C   UNL     1       5.196   5.129  18.199  0.00  0.00    +0.000 A 
ATOM     10  C   UNL     1       4.629   5.482  19.431  0.00  0.00    +0.000 A 
ATOM     11  C   UNL     1       3.300   5.156  19.712  0.00  0.00    +0.000 A 
ATOM     12  C   UNL     1       2.540   4.485  18.751  0.00  0.00    +0.000 A 
ATOM     13  F   UNL     1       1.266   4.170  19.034  0.00  0.00    +0.000 F 
ATOM     14  C   UNL     1       3.069   4.151  17.522  0.00  0.00    +0.000 A 
ATOM     15  C   UNL     1       4.411   4.462  17.254  0.00  0.00    +0.000 A 
ATOM     16  N   UNL     1       4.944   4.122  16.015  0.00  0.00    +0.000 N 
ATOM     17  H   UNL     1       4.338   3.796  15.271  0.00  0.00    +0.000 HD
ENDBRANCH   1   8
BRANCH   3  18
ATOM     18  C   UNL     1       8.170   8.986  17.664  0.00  0.00    +0.000 C 
BRANCH  18  19
ATOM     19  C   UNL     1       8.823   9.643  18.892  0.00  0.00    +0.000 C 
BRANCH  19  20
ATOM     20  C   UNL     1       9.554  10.904  18.528  0.00  0.00    +0.000 A 
ATOM     21  C   UNL     1      10.901  11.135  18.740  0.00  0.00    +0.000 A 
ATOM     22  N   UNL     1      11.193  12.356  18.209  0.00  0.00    +0.000 N 
ATOM     23  C   UNL     1      10.036  13.080  18.084  0.00  0.00    +0.000 A 
ATOM     24  C   UNL     1       9.832  14.457  17.959  0.00  0.00    +0.000 A 
ATOM     25  C   UNL     1       8.525  14.890  17.734  0.00  0.00    +0.000 A 
ATOM     26  C   UNL     1       7.491  13.973  17.548  0.00  0.00    +0.000 A 
ATOM     27  C   UNL     1       7.713  12.597  17.704  0.00  0.00    +0.000 A 
ATOM     28  C   UNL     1       9.000  12.145  18.061  0.00  0.00    +0.000 A 
ATOM     29  H   UNL     1      12.121  12.702  18.007  0.00  0.00    +0.000 HD
ENDBRANCH  19  20
ENDBRANCH  18  19
ENDBRANCH   3  18
TORSDOF 4
ENDMDL
