MODEL 1
REMARK VINA RESULT:      -8.7      0.000      0.000
REMARK  Name = 
REMARK  9 active torsions:
REMARK  status: ('A' for Active; 'I' for Inactive)
REMARK    1  A    between atoms: C_1  and  C_2
REMARK    2  A    between atoms: C_3  and  N_4
REMARK    3  A    between atoms: N_7  and  C_8
REMARK    4  A    between atoms: C_8  and  C_9
REMARK    5  A    between atoms: C_8  and  C_17
REMARK    6  A    between atoms: C_9  and  C_10
REMARK    7  A    between atoms: C_10  and  C_11
REMARK    8  A    between atoms: N_22  and  C_23
REMARK    9  A    between atoms: C_23  and  C_24
REMARK                            x       y       z     vdW  Elec       q    Type
REMARK                         _______ _______ _______ _____ _____    ______ ____
ROOT
ATOM      1  N   UNL     1       2.110   6.722  20.772  0.00  0.00    +0.000 N 
ATOM      2  C   UNL     1       2.248   5.413  20.402  0.00  0.00    +0.000 C 
ATOM      3  O   UNL     1       2.488   4.555  21.246  0.00  0.00    +0.000 OA
ATOM      4  N   UNL     1       1.961   5.125  19.100  0.00  0.00    +0.000 N 
ATOM      5  H   UNL     1       2.129   6.881  21.768  0.00  0.00    +0.000 HD
ATOM      6  H   UNL     1       2.110   5.888  18.445  0.00  0.00    +0.000 HD
ENDROOT
BRANCH   1   9
ATOM      7  C   UNL     1       0.049   9.113  21.317  0.00  0.00    +0.000 C 
ATOM      8  C   UNL     1       0.956   8.816  20.186  0.00  0.00    +0.000 A 
ATOM      9  C   UNL     1       1.827   7.778  19.940  0.00  0.00    +0.000 A 
ATOM     10  N   UNL     1       2.393   7.931  18.704  0.00  0.00    +0.000 NA
ATOM     11  N   UNL     1       1.926   9.044  18.170  0.00  0.00    +0.000 NA
ATOM     12  N   UNL     1       1.040   9.571  19.038  0.00  0.00    +0.000 N 
BRANCH  12  13
ATOM     13  C   UNL     1       0.424  10.851  18.726  0.00  0.00    +0.000 C 
BRANCH  13  14
ATOM     14  C   UNL     1      -1.037  10.748  18.374  0.00  0.00    +0.000 A 
ATOM     15  C   UNL     1      -1.504   9.904  17.353  0.00  0.00    +0.000 A 
ATOM     16  C   UNL     1      -2.849   9.932  16.967  0.00  0.00    +0.000 A 
ATOM     17  C   UNL     1      -3.743  10.801  17.590  0.00  0.00    +0.000 A 
ATOM     18  C   UNL     1      -3.296  11.631  18.615  0.00  0.00    +0.000 A 
ATOM     19  C   UNL     1      -1.957  11.597  18.996  0.00  0.00    +0.000 A 
ATOM     20  F   UNL     1      -1.545  12.422  19.971  0.00  0.00    +0.000 F 
ENDBRANCH  13  14
ENDBRANCH  12  13
ENDBRANCH   1   9
BRANCH   4  21
ATOM     21  C   UNL     1       1.957   3.766  18.556  0.00  0.00    +0.000 C 
BRANCH  21  22
ATOM     22  C   UNL     1       1.020   2.833  19.342  0.00  0.00    +0.000 C 
ATOM     23  F   UNL     1       0.165   2.210  18.490  0.00  0.00    +0.000 F 
ATOM     24  F   UNL     1       1.716   1.858  19.977  0.00  0.00    +0.000 F 
ENDBRANCH  21  22
BRANCH  21  25
ATOM     25  C   UNL     1       3.416   3.262  18.532  0.00  0.00    +0.000 C 
BRANCH  25  26
ATOM     26  C   UNL     1       4.166   3.674  17.261  0.00  0.00    +0.000 C 
BRANCH  26  27
ATOM     27  C   UNL     1       5.241   4.731  17.388  0.00  0.00    +0.000 A 
ATOM     28  C   UNL     1       6.526   4.493  17.888  0.00  0.00    +0.000 A 
ATOM     29  C   UNL     1       7.460   5.530  17.965  0.00  0.00    +0.000 A 
ATOM     30  C   UNL     1       7.123   6.815  17.543  0.00  0.00    +0.000 A 
ATOM     31  C   UNL     1       5.854   7.063  17.035  0.00  0.00    +0.000 A 
ATOM     32  C   UNL     1       4.921   6.032  16.958  0.00  0.00    +0.000 A 
ENDBRANCH  26  27
ENDBRANCH  25  26
ENDBRANCH  21  25
ENDBRANCH   4  21
TORSDOF 8
ENDMDL
MODEL 2
REMARK VINA RESULT:      -8.7      0.681      1.036
REMARK  Name = 
REMARK  9 active torsions:
REMARK  status: ('A' for Active; 'I' for Inactive)
REMARK    1  A    between atoms: C_1  and  C_2
REMARK    2  A    between atoms: C_3  and  N_4
REMARK    3  A    between atoms: N_7  and  C_8
REMARK    4  A    between atoms: C_8  and  C_9
REMARK    5  A    between atoms: C_8  and  C_17
REMARK    6  A    between atoms: C_9  and  C_10
REMARK    7  A    between atoms: C_10  and  C_11
REMARK    8  A    between atoms: N_22  and  C_23
REMARK    9  A    between atoms: C_23  and  C_24
REMARK                            x       y       z     vdW  Elec       q    Type
REMARK                         _______ _______ _______ _____ _____    ______ ____
ROOT
ATOM      1  N   UNL     1       2.225   6.862  20.618  0.00  0.00    +0.000 N 
ATOM      2  C   UNL     1       2.405   5.582  20.170  0.00  0.00    +0.000 C 
ATOM      3  O   UNL     1       2.748   4.698  20.950  0.00  0.00    +0.000 OA
ATOM      4  N   UNL     1       2.045   5.343  18.877  0.00  0.00    +0.000 N 
ATOM      5  H   UNL     1       2.304   6.972  21.618  0.00  0.00    +0.000 HD
ATOM      6  H   UNL     1       2.109   6.145  18.255  0.00  0.00    +0.000 HD
ENDROOT
BRANCH   1   9
ATOM      7  C   UNL     1       0.037   9.068  21.396  0.00  0.00    +0.000 C 
ATOM      8  C   UNL     1       0.905   8.899  20.210  0.00  0.00    +0.000 A 
ATOM      9  C   UNL     1       1.831   7.940  19.864  0.00  0.00    +0.000 A 
ATOM     10  N   UNL     1       2.323   8.202  18.615  0.00  0.00    +0.000 NA
ATOM     11  N   UNL     1       1.757   9.307  18.169  0.00  0.00    +0.000 NA
ATOM     12  N   UNL     1       0.881   9.721  19.106  0.00  0.00    +0.000 N 
BRANCH  12  13
ATOM     13  C   UNL     1       0.165  10.970  18.898  0.00  0.00    +0.000 C 
BRANCH  13  14
ATOM     14  C   UNL     1      -1.233  10.784  18.370  0.00  0.00    +0.000 A 
ATOM     15  C   UNL     1      -1.526   9.893  17.324  0.00  0.00    +0.000 A 
ATOM     16  C   UNL     1      -2.812   9.843  16.772  0.00  0.00    +0.000 A 
ATOM     17  C   UNL     1      -3.817  10.679  17.253  0.00  0.00    +0.000 A 
ATOM     18  C   UNL     1      -3.544  11.555  18.300  0.00  0.00    +0.000 A 
ATOM     19  C   UNL     1      -2.264  11.599  18.847  0.00  0.00    +0.000 A 
ATOM     20  F   UNL     1      -2.019  12.466  19.841  0.00  0.00    +0.000 F 
ENDBRANCH  13  14
ENDBRANCH  12  13
ENDBRANCH   1   9
BRANCH   4  21
ATOM     21  C   UNL     1       2.075   4.015  18.263  0.00  0.00    +0.000 C 
BRANCH  21  22
ATOM     22  C   UNL     1       1.436   2.947  19.167  0.00  0.00    +0.000 C 
ATOM     23  F   UNL     1       0.214   3.365  19.587  0.00  0.00    +0.000 F 
ATOM     24  F   UNL     1       1.240   1.786  18.496  0.00  0.00    +0.000 F 
ENDBRANCH  21  22
BRANCH  21  25
ATOM     25  C   UNL     1       3.542   3.692  17.905  0.00  0.00    +0.000 C 
BRANCH  25  26
ATOM     26  C   UNL     1       4.184   4.759  17.013  0.00  0.00    +0.000 C 
BRANCH  26  27
ATOM     27  C   UNL     1       5.457   5.413  17.502  0.00  0.00    +0.000 A 
ATOM     28  C   UNL     1       6.185   6.363  16.776  0.00  0.00    +0.000 A 
ATOM     29  C   UNL     1       7.351   6.921  17.309  0.00  0.00    +0.000 A 
ATOM     30  C   UNL     1       7.803   6.539  18.571  0.00  0.00    +0.000 A 
ATOM     31  C   UNL     1       7.084   5.604  19.306  0.00  0.00    +0.000 A 
ATOM     32  C   UNL     1       5.923   5.046  18.778  0.00  0.00    +0.000 A 
ENDBRANCH  26  27
ENDBRANCH  25  26
ENDBRANCH  21  25
ENDBRANCH   4  21
TORSDOF 8
ENDMDL
MODEL 3
REMARK VINA RESULT:      -8.4      2.301      3.618
REMARK  Name = 
REMARK  9 active torsions:
REMARK  status: ('A' for Active; 'I' for Inactive)
REMARK    1  A    between atoms: C_1  and  C_2
REMARK    2  A    between atoms: C_3  and  N_4
REMARK    3  A    between atoms: N_7  and  C_8
REMARK    4  A    between atoms: C_8  and  C_9
REMARK    5  A    between atoms: C_8  and  C_17
REMARK    6  A    between atoms: C_9  and  C_10
REMARK    7  A    between atoms: C_10  and  C_11
REMARK    8  A    between atoms: N_22  and  C_23
REMARK    9  A    between atoms: C_23  and  C_24
REMARK                            x       y       z     vdW  Elec       q    Type
REMARK                         _______ _______ _______ _____ _____    ______ ____
ROOT
ATOM      1  N   UNL     1       2.585   6.747  19.847  0.00  0.00    +0.000 N 
ATOM      2  C   UNL     1       3.685   6.015  19.495  0.00  0.00    +0.000 C 
ATOM      3  O   UNL     1       3.989   5.011  20.133  0.00  0.00    +0.000 OA
ATOM      4  N   UNL     1       4.307   6.385  18.339  0.00  0.00    +0.000 N 
ATOM      5  H   UNL     1       2.027   6.339  20.583  0.00  0.00    +0.000 HD
ATOM      6  H   UNL     1       4.212   7.367  18.093  0.00  0.00    +0.000 HD
ENDROOT
BRANCH   1   9
ATOM      7  C   UNL     1       0.547   8.919  21.025  0.00  0.00    +0.000 C 
ATOM      8  C   UNL     1       1.262   8.820  19.734  0.00  0.00    +0.000 A 
ATOM      9  C   UNL     1       2.122   7.876  19.217  0.00  0.00    +0.000 A 
ATOM     10  N   UNL     1       2.465   8.214  17.937  0.00  0.00    +0.000 NA
ATOM     11  N   UNL     1       1.869   9.352  17.635  0.00  0.00    +0.000 NA
ATOM     12  N   UNL     1       1.121   9.713  18.696  0.00  0.00    +0.000 N 
BRANCH  12  13
ATOM     13  C   UNL     1       0.408  10.980  18.656  0.00  0.00    +0.000 C 
BRANCH  13  14
ATOM     14  C   UNL     1      -1.062  10.838  18.359  0.00  0.00    +0.000 A 
ATOM     15  C   UNL     1      -1.545   9.955  17.379  0.00  0.00    +0.000 A 
ATOM     16  C   UNL     1      -2.903   9.945  17.039  0.00  0.00    +0.000 A 
ATOM     17  C   UNL     1      -3.793  10.813  17.669  0.00  0.00    +0.000 A 
ATOM     18  C   UNL     1      -3.329  11.681  18.654  0.00  0.00    +0.000 A 
ATOM     19  C   UNL     1      -1.977  11.685  18.989  0.00  0.00    +0.000 A 
ATOM     20  F   UNL     1      -1.550  12.546  19.925  0.00  0.00    +0.000 F 
ENDBRANCH  13  14
ENDBRANCH  12  13
ENDBRANCH   1   9
BRANCH   4  21
ATOM     21  C   UNL     1       5.435   5.656  17.760  0.00  0.00    +0.000 C 
BRANCH  21  22
ATOM     22  C   UNL     1       6.696   6.532  17.658  0.00  0.00    +0.000 C 
ATOM     23  F   UNL     1       7.551   6.008  16.741  0.00  0.00    +0.000 F 
ATOM     24  F   UNL     1       6.393   7.784  17.235  0.00  0.00    +0.000 F 
ENDBRANCH  21  22
BRANCH  21  25
ATOM     25  C   UNL     1       4.986   5.097  16.393  0.00  0.00    +0.000 C 
BRANCH  25  26
ATOM     26  C   UNL     1       4.666   3.600  16.439  0.00  0.00    +0.000 C 
BRANCH  26  27
ATOM     27  C   UNL     1       3.521   3.150  17.320  0.00  0.00    +0.000 A 
ATOM     28  C   UNL     1       3.594   2.086  18.226  0.00  0.00    +0.000 A 
ATOM     29  C   UNL     1       2.485   1.743  19.006  0.00  0.00    +0.000 A 
ATOM     30  C   UNL     1       1.293   2.457  18.891  0.00  0.00    +0.000 A 
ATOM     31  C   UNL     1       1.212   3.522  18.002  0.00  0.00    +0.000 A 
ATOM     32  C   UNL     1       2.314   3.866  17.223  0.00  0.00    +0.000 A 
ENDBRANCH  26  27
ENDBRANCH  25  26
ENDBRANCH  21  25
ENDBRANCH   4  21
TORSDOF 8
ENDMDL
MODEL 4
REMARK VINA RESULT:      -8.4      3.051      3.565
REMARK  Name = 
REMARK  9 active torsions:
REMARK  status: ('A' for Active; 'I' for Inactive)
REMARK    1  A    between atoms: C_1  and  C_2
REMARK    2  A    between atoms: C_3  and  N_4
REMARK    3  A    between atoms: N_7  and  C_8
REMARK    4  A    between atoms: C_8  and  C_9
REMARK    5  A    between atoms: C_8  and  C_17
REMARK    6  A    between atoms: C_9  and  C_10
REMARK    7  A    between atoms: C_10  and  C_11
REMARK    8  A    between atoms: N_22  and  C_23
REMARK    9  A    between atoms: C_23  and  C_24
REMARK                            x       y       z     vdW  Elec       q    Type
REMARK                         _______ _______ _______ _____ _____    ______ ____
ROOT
ATOM      1  N   UNL     1       2.575   6.466  19.935  0.00  0.00    +0.000 N 
ATOM      2  C   UNL     1       3.642   5.711  19.536  0.00  0.00    +0.000 C 
ATOM      3  O   UNL     1       3.891   4.648  20.098  0.00  0.00    +0.000 OA
ATOM      4  N   UNL     1       4.292   6.136  18.415  0.00  0.00    +0.000 N 
ATOM      5  H   UNL     1       1.991   6.032  20.634  0.00  0.00    +0.000 HD
ATOM      6  H   UNL     1       4.247   7.137  18.243  0.00  0.00    +0.000 HD
ENDROOT
BRANCH   1   9
ATOM      7  C   UNL     1       0.673   8.664  21.282  0.00  0.00    +0.000 C 
ATOM      8  C   UNL     1       1.373   8.614  19.979  0.00  0.00    +0.000 A 
ATOM      9  C   UNL     1       2.173   7.661  19.389  0.00  0.00    +0.000 A 
ATOM     10  N   UNL     1       2.525   8.066  18.131  0.00  0.00    +0.000 NA
ATOM     11  N   UNL     1       1.994   9.255  17.915  0.00  0.00    +0.000 NA
ATOM     12  N   UNL     1       1.275   9.583  19.006  0.00  0.00    +0.000 N 
BRANCH  12  13
ATOM     13  C   UNL     1       0.636  10.888  19.062  0.00  0.00    +0.000 C 
BRANCH  13  14
ATOM     14  C   UNL     1      -0.831  10.858  18.720  0.00  0.00    +0.000 A 
ATOM     15  C   UNL     1      -1.350  10.016  17.722  0.00  0.00    +0.000 A 
ATOM     16  C   UNL     1      -2.694  10.108  17.341  0.00  0.00    +0.000 A 
ATOM     17  C   UNL     1      -3.534  11.041  17.946  0.00  0.00    +0.000 A 
ATOM     18  C   UNL     1      -3.036  11.870  18.948  0.00  0.00    +0.000 A 
ATOM     19  C   UNL     1      -1.699  11.772  19.324  0.00  0.00    +0.000 A 
ATOM     20  F   UNL     1      -1.237  12.596  20.276  0.00  0.00    +0.000 F 
ENDBRANCH  13  14
ENDBRANCH  12  13
ENDBRANCH   1   9
BRANCH   4  21
ATOM     21  C   UNL     1       5.390   5.399  17.789  0.00  0.00    +0.000 C 
BRANCH  21  22
ATOM     22  C   UNL     1       6.747   6.091  18.006  0.00  0.00    +0.000 C 
ATOM     23  F   UNL     1       7.745   5.170  17.995  0.00  0.00    +0.000 F 
ATOM     24  F   UNL     1       7.017   6.968  17.008  0.00  0.00    +0.000 F 
ENDBRANCH  21  22
BRANCH  21  25
ATOM     25  C   UNL     1       5.047   5.216  16.295  0.00  0.00    +0.000 C 
BRANCH  25  26
ATOM     26  C   UNL     1       5.744   4.003  15.671  0.00  0.00    +0.000 C 
BRANCH  26  27
ATOM     27  C   UNL     1       6.339   4.166  14.289  0.00  0.00    +0.000 A 
ATOM     28  C   UNL     1       7.350   5.079  13.969  0.00  0.00    +0.000 A 
ATOM     29  C   UNL     1       7.845   5.158  12.663  0.00  0.00    +0.000 A 
ATOM     30  C   UNL     1       7.339   4.328  11.665  0.00  0.00    +0.000 A 
ATOM     31  C   UNL     1       6.341   3.411  11.973  0.00  0.00    +0.000 A 
ATOM     32  C   UNL     1       5.845   3.330  13.271  0.00  0.00    +0.000 A 
ENDBRANCH  26  27
ENDBRANCH  25  26
ENDBRANCH  21  25
ENDBRANCH   4  21
TORSDOF 8
ENDMDL
MODEL 5
REMARK VINA RESULT:      -8.3      1.475      1.762
REMARK  Name = 
REMARK  9 active torsions:
REMARK  status: ('A' for Active; 'I' for Inactive)
REMARK    1  A    between atoms: C_1  and  C_2
REMARK    2  A    between atoms: C_3  and  N_4
REMARK    3  A    between atoms: N_7  and  C_8
REMARK    4  A    between atoms: C_8  and  C_9
REMARK    5  A    between atoms: C_8  and  C_17
REMARK    6  A    between atoms: C_9  and  C_10
REMARK    7  A    between atoms: C_10  and  C_11
REMARK    8  A    between atoms: N_22  and  C_23
REMARK    9  A    between atoms: C_23  and  C_24
REMARK                            x       y       z     vdW  Elec       q    Type
REMARK                         _______ _______ _______ _____ _____    ______ ____
ROOT
ATOM      1  N   UNL     1       1.875   5.932  21.230  0.00  0.00    +0.000 N 
ATOM      2  C   UNL     1       2.285   4.652  20.977  0.00  0.00    +0.000 C 
ATOM      3  O   UNL     1       2.229   3.800  21.859  0.00  0.00    +0.000 OA
ATOM      4  N   UNL     1       2.604   4.370  19.682  0.00  0.00    +0.000 N 
ATOM      5  H   UNL     1       1.455   6.066  22.138  0.00  0.00    +0.000 HD
ATOM      6  H   UNL     1       2.940   5.161  19.138  0.00  0.00    +0.000 HD
ENDROOT
BRANCH   1   9
ATOM      7  C   UNL     1       0.389   8.749  21.565  0.00  0.00    +0.000 C 
ATOM      8  C   UNL     1       1.245   8.195  20.494  0.00  0.00    +0.000 A 
ATOM      9  C   UNL     1       1.868   6.976  20.338  0.00  0.00    +0.000 A 
ATOM     10  N   UNL     1       2.497   6.930  19.125  0.00  0.00    +0.000 NA
ATOM     11  N   UNL     1       2.313   8.087  18.518  0.00  0.00    +0.000 NA
ATOM     12  N   UNL     1       1.538   8.846  19.317  0.00  0.00    +0.000 N 
BRANCH  12  13
ATOM     13  C   UNL     1       1.238  10.212  18.917  0.00  0.00    +0.000 C 
BRANCH  13  14
ATOM     14  C   UNL     1      -0.222  10.452  18.635  0.00  0.00    +0.000 A 
ATOM     15  C   UNL     1      -0.917   9.752  17.634  0.00  0.00    +0.000 A 
ATOM     16  C   UNL     1      -2.236  10.093  17.313  0.00  0.00    +0.000 A 
ATOM     17  C   UNL     1      -2.876  11.135  17.981  0.00  0.00    +0.000 A 
ATOM     18  C   UNL     1      -2.204  11.825  18.986  0.00  0.00    +0.000 A 
ATOM     19  C   UNL     1      -0.893  11.480  19.303  0.00  0.00    +0.000 A 
ATOM     20  F   UNL     1      -0.259  12.174  20.260  0.00  0.00    +0.000 F 
ENDBRANCH  13  14
ENDBRANCH  12  13
ENDBRANCH   1   9
BRANCH   4  21
ATOM     21  C   UNL     1       2.965   3.032  19.212  0.00  0.00    +0.000 C 
BRANCH  21  22
ATOM     22  C   UNL     1       4.411   2.662  19.584  0.00  0.00    +0.000 C 
ATOM     23  F   UNL     1       5.170   3.785  19.670  0.00  0.00    +0.000 F 
ATOM     24  F   UNL     1       4.469   2.060  20.797  0.00  0.00    +0.000 F 
ENDBRANCH  21  22
BRANCH  21  25
ATOM     25  C   UNL     1       2.710   2.980  17.690  0.00  0.00    +0.000 C 
BRANCH  25  26
ATOM     26  C   UNL     1       3.016   4.308  16.991  0.00  0.00    +0.000 C 
BRANCH  26  27
ATOM     27  C   UNL     1       4.455   4.596  16.623  0.00  0.00    +0.000 A 
ATOM     28  C   UNL     1       5.260   3.741  15.862  0.00  0.00    +0.000 A 
ATOM     29  C   UNL     1       6.581   4.092  15.564  0.00  0.00    +0.000 A 
ATOM     30  C   UNL     1       7.111   5.297  16.022  0.00  0.00    +0.000 A 
ATOM     31  C   UNL     1       6.319   6.158  16.770  0.00  0.00    +0.000 A 
ATOM     32  C   UNL     1       5.003   5.812  17.069  0.00  0.00    +0.000 A 
ENDBRANCH  26  27
ENDBRANCH  25  26
ENDBRANCH  21  25
ENDBRANCH   4  21
TORSDOF 8
ENDMDL
MODEL 6
REMARK VINA RESULT:      -8.3      1.031      1.396
REMARK  Name = 
REMARK  9 active torsions:
REMARK  status: ('A' for Active; 'I' for Inactive)
REMARK    1  A    between atoms: C_1  and  C_2
REMARK    2  A    between atoms: C_3  and  N_4
REMARK    3  A    between atoms: N_7  and  C_8
REMARK    4  A    between atoms: C_8  and  C_9
REMARK    5  A    between atoms: C_8  and  C_17
REMARK    6  A    between atoms: C_9  and  C_10
REMARK    7  A    between atoms: C_10  and  C_11
REMARK    8  A    between atoms: N_22  and  C_23
REMARK    9  A    between atoms: C_23  and  C_24
REMARK                            x       y       z     vdW  Elec       q    Type
REMARK                         _______ _______ _______ _____ _____    ______ ____
ROOT
ATOM      1  N   UNL     1       2.030   6.761  20.688  0.00  0.00    +0.000 N 
ATOM      2  C   UNL     1       2.213   5.473  20.268  0.00  0.00    +0.000 C 
ATOM      3  O   UNL     1       2.375   4.573  21.089  0.00  0.00    +0.000 OA
ATOM      4  N   UNL     1       2.059   5.249  18.932  0.00  0.00    +0.000 N 
ATOM      5  H   UNL     1       1.949   6.870  21.687  0.00  0.00    +0.000 HD
ATOM      6  H   UNL     1       2.267   6.045  18.334  0.00  0.00    +0.000 HD
ENDROOT
BRANCH   1   9
ATOM      7  C   UNL     1       0.158   9.285  21.308  0.00  0.00    +0.000 C 
ATOM      8  C   UNL     1       1.034   8.951  20.164  0.00  0.00    +0.000 A 
ATOM      9  C   UNL     1       1.823   7.857  19.885  0.00  0.00    +0.000 A 
ATOM     10  N   UNL     1       2.392   7.999  18.650  0.00  0.00    +0.000 NA
ATOM     11  N   UNL     1       2.008   9.158  18.147  0.00  0.00    +0.000 NA
ATOM     12  N   UNL     1       1.169   9.727  19.035  0.00  0.00    +0.000 N 
BRANCH  12  13
ATOM     13  C   UNL     1       0.650  11.057  18.760  0.00  0.00    +0.000 C 
BRANCH  13  14
ATOM     14  C   UNL     1      -0.836  11.087  18.515  0.00  0.00    +0.000 A 
ATOM     15  C   UNL     1      -1.693  11.953  19.215  0.00  0.00    +0.000 A 
ATOM     16  C   UNL     1      -3.081  11.862  19.056  0.00  0.00    +0.000 A 
ATOM     17  C   UNL     1      -3.630  10.908  18.203  0.00  0.00    +0.000 A 
ATOM     18  C   UNL     1      -2.792  10.055  17.491  0.00  0.00    +0.000 A 
ATOM     19  C   UNL     1      -1.412  10.151  17.651  0.00  0.00    +0.000 A 
ATOM     20  F   UNL     1      -0.625   9.303  16.972  0.00  0.00    +0.000 F 
ENDBRANCH  13  14
ENDBRANCH  12  13
ENDBRANCH   1   9
BRANCH   4  21
ATOM     21  C   UNL     1       2.120   3.920  18.323  0.00  0.00    +0.000 C 
BRANCH  21  22
ATOM     22  C   UNL     1       1.593   2.828  19.270  0.00  0.00    +0.000 C 
ATOM     23  F   UNL     1       0.263   2.640  19.069  0.00  0.00    +0.000 F 
ATOM     24  F   UNL     1       2.194   1.636  19.031  0.00  0.00    +0.000 F 
ENDBRANCH  21  22
BRANCH  21  25
ATOM     25  C   UNL     1       3.576   3.669  17.878  0.00  0.00    +0.000 C 
BRANCH  25  26
ATOM     26  C   UNL     1       4.189   4.869  17.148  0.00  0.00    +0.000 C 
BRANCH  26  27
ATOM     27  C   UNL     1       5.474   5.447  17.697  0.00  0.00    +0.000 A 
ATOM     28  C   UNL     1       6.059   5.059  18.908  0.00  0.00    +0.000 A 
ATOM     29  C   UNL     1       7.255   5.644  19.337  0.00  0.00    +0.000 A 
ATOM     30  C   UNL     1       7.880   6.620  18.563  0.00  0.00    +0.000 A 
ATOM     31  C   UNL     1       7.314   7.007  17.354  0.00  0.00    +0.000 A 
ATOM     32  C   UNL     1       6.123   6.426  16.925  0.00  0.00    +0.000 A 
ENDBRANCH  26  27
ENDBRANCH  25  26
ENDBRANCH  21  25
ENDBRANCH   4  21
TORSDOF 8
ENDMDL
MODEL 7
REMARK VINA RESULT:      -8.3      3.229      3.940
REMARK  Name = 
REMARK  9 active torsions:
REMARK  status: ('A' for Active; 'I' for Inactive)
REMARK    1  A    between atoms: C_1  and  C_2
REMARK    2  A    between atoms: C_3  and  N_4
REMARK    3  A    between atoms: N_7  and  C_8
REMARK    4  A    between atoms: C_8  and  C_9
REMARK    5  A    between atoms: C_8  and  C_17
REMARK    6  A    between atoms: C_9  and  C_10
REMARK    7  A    between atoms: C_10  and  C_11
REMARK    8  A    between atoms: N_22  and  C_23
REMARK    9  A    between atoms: C_23  and  C_24
REMARK                            x       y       z     vdW  Elec       q    Type
REMARK                         _______ _______ _______ _____ _____    ______ ____
ROOT
ATOM      1  N   UNL     1       2.976   5.644  19.236  0.00  0.00    +0.000 N 
ATOM      2  C   UNL     1       4.225   5.101  19.115  0.00  0.00    +0.000 C 
ATOM      3  O   UNL     1       4.424   3.933  19.435  0.00  0.00    +0.000 OA
ATOM      4  N   UNL     1       5.160   5.879  18.497  0.00  0.00    +0.000 N 
ATOM      5  H   UNL     1       2.258   4.989  19.507  0.00  0.00    +0.000 HD
ATOM      6  H   UNL     1       5.015   6.881  18.586  0.00  0.00    +0.000 HD
ENDROOT
BRANCH   1   9
ATOM      7  C   UNL     1       1.369   7.730  21.060  0.00  0.00    +0.000 C 
ATOM      8  C   UNL     1       1.937   7.828  19.698  0.00  0.00    +0.000 A 
ATOM      9  C   UNL     1       2.610   6.926  18.903  0.00  0.00    +0.000 A 
ATOM     10  N   UNL     1       2.869   7.487  17.683  0.00  0.00    +0.000 NA
ATOM     11  N   UNL     1       2.404   8.722  17.688  0.00  0.00    +0.000 NA
ATOM     12  N   UNL     1       1.816   8.930  18.882  0.00  0.00    +0.000 N 
BRANCH  12  13
ATOM     13  C   UNL     1       1.278  10.247  19.182  0.00  0.00    +0.000 C 
BRANCH  13  14
ATOM     14  C   UNL     1      -0.047  10.524  18.521  0.00  0.00    +0.000 A 
ATOM     15  C   UNL     1      -0.744   9.540  17.800  0.00  0.00    +0.000 A 
ATOM     16  C   UNL     1      -1.905   9.867  17.091  0.00  0.00    +0.000 A 
ATOM     17  C   UNL     1      -2.384  11.176  17.090  0.00  0.00    +0.000 A 
ATOM     18  C   UNL     1      -1.712  12.156  17.814  0.00  0.00    +0.000 A 
ATOM     19  C   UNL     1      -0.558  11.825  18.519  0.00  0.00    +0.000 A 
ATOM     20  F   UNL     1       0.084  12.792  19.191  0.00  0.00    +0.000 F 
ENDBRANCH  13  14
ENDBRANCH  12  13
ENDBRANCH   1   9
BRANCH   4  21
ATOM     21  C   UNL     1       6.517   5.423  18.194  0.00  0.00    +0.000 C 
BRANCH  21  22
ATOM     22  C   UNL     1       7.571   6.136  19.058  0.00  0.00    +0.000 C 
ATOM     23  F   UNL     1       8.486   5.239  19.507  0.00  0.00    +0.000 F 
ATOM     24  F   UNL     1       8.254   7.061  18.340  0.00  0.00    +0.000 F 
ENDBRANCH  21  22
BRANCH  21  25
ATOM     25  C   UNL     1       6.755   5.620  16.681  0.00  0.00    +0.000 C 
BRANCH  25  26
ATOM     26  C   UNL     1       5.810   4.781  15.817  0.00  0.00    +0.000 C 
BRANCH  26  27
ATOM     27  C   UNL     1       6.222   4.502  14.388  0.00  0.00    +0.000 A 
ATOM     28  C   UNL     1       5.562   3.607  13.538  0.00  0.00    +0.000 A 
ATOM     29  C   UNL     1       6.010   3.414  12.227  0.00  0.00    +0.000 A 
ATOM     30  C   UNL     1       7.118   4.112  11.751  0.00  0.00    +0.000 A 
ATOM     31  C   UNL     1       7.776   5.011  12.582  0.00  0.00    +0.000 A 
ATOM     32  C   UNL     1       7.333   5.204  13.888  0.00  0.00    +0.000 A 
ENDBRANCH  26  27
ENDBRANCH  25  26
ENDBRANCH  21  25
ENDBRANCH   4  21
TORSDOF 8
ENDMDL
MODEL 8
REMARK VINA RESULT:      -8.3      1.614      2.716
REMARK  Name = 
REMARK  9 active torsions:
REMARK  status: ('A' for Active; 'I' for Inactive)
REMARK    1  A    between atoms: C_1  and  C_2
REMARK    2  A    between atoms: C_3  and  N_4
REMARK    3  A    between atoms: N_7  and  C_8
REMARK    4  A    between atoms: C_8  and  C_9
REMARK    5  A    between atoms: C_8  and  C_17
REMARK    6  A    between atoms: C_9  and  C_10
REMARK    7  A    between atoms: C_10  and  C_11
REMARK    8  A    between atoms: N_22  and  C_23
REMARK    9  A    between atoms: C_23  and  C_24
REMARK                            x       y       z     vdW  Elec       q    Type
REMARK                         _______ _______ _______ _____ _____    ______ ____
ROOT
ATOM      1  N   UNL     1       2.741   6.617  20.118  0.00  0.00    +0.000 N 
ATOM      2  C   UNL     1       2.824   5.318  19.697  0.00  0.00    +0.000 C 
ATOM      3  O   UNL     1       3.286   4.456  20.439  0.00  0.00    +0.000 OA
ATOM      4  N   UNL     1       2.240   5.039  18.496  0.00  0.00    +0.000 N 
ATOM      5  H   UNL     1       2.995   6.761  21.084  0.00  0.00    +0.000 HD
ATOM      6  H   UNL     1       2.205   5.817  17.842  0.00  0.00    +0.000 HD
ENDROOT
BRANCH   1   9
ATOM      7  C   UNL     1       0.698   8.853  21.159  0.00  0.00    +0.000 C 
ATOM      8  C   UNL     1       1.373   8.647  19.859  0.00  0.00    +0.000 A 
ATOM      9  C   UNL     1       2.236   7.674  19.403  0.00  0.00    +0.000 A 
ATOM     10  N   UNL     1       2.530   7.897  18.086  0.00  0.00    +0.000 NA
ATOM     11  N   UNL     1       1.901   8.992  17.700  0.00  0.00    +0.000 NA
ATOM     12  N   UNL     1       1.180   9.437  18.748  0.00  0.00    +0.000 N 
BRANCH  12  13
ATOM     13  C   UNL     1       0.440  10.682  18.617  0.00  0.00    +0.000 C 
BRANCH  13  14
ATOM     14  C   UNL     1       1.242  11.903  18.985  0.00  0.00    +0.000 A 
ATOM     15  C   UNL     1       2.210  12.450  18.126  0.00  0.00    +0.000 A 
ATOM     16  C   UNL     1       3.026  13.504  18.553  0.00  0.00    +0.000 A 
ATOM     17  C   UNL     1       2.890  14.022  19.840  0.00  0.00    +0.000 A 
ATOM     18  C   UNL     1       1.924  13.499  20.695  0.00  0.00    +0.000 A 
ATOM     19  C   UNL     1       1.114  12.452  20.264  0.00  0.00    +0.000 A 
ATOM     20  F   UNL     1       0.205  11.950  21.113  0.00  0.00    +0.000 F 
ENDBRANCH  13  14
ENDBRANCH  12  13
ENDBRANCH   1   9
BRANCH   4  21
ATOM     21  C   UNL     1       2.146   3.690  17.939  0.00  0.00    +0.000 C 
BRANCH  21  22
ATOM     22  C   UNL     1       1.455   2.714  18.907  0.00  0.00    +0.000 C 
ATOM     23  F   UNL     1       0.255   2.330  18.401  0.00  0.00    +0.000 F 
ATOM     24  F   UNL     1       2.186   1.584  19.071  0.00  0.00    +0.000 F 
ENDBRANCH  21  22
BRANCH  21  25
ATOM     25  C   UNL     1       3.570   3.237  17.551  0.00  0.00    +0.000 C 
BRANCH  25  26
ATOM     26  C   UNL     1       4.233   4.169  16.534  0.00  0.00    +0.000 C 
BRANCH  26  27
ATOM     27  C   UNL     1       5.360   5.055  17.019  0.00  0.00    +0.000 A 
ATOM     28  C   UNL     1       5.471   6.420  16.729  0.00  0.00    +0.000 A 
ATOM     29  C   UNL     1       6.545   7.164  17.226  0.00  0.00    +0.000 A 
ATOM     30  C   UNL     1       7.519   6.556  18.016  0.00  0.00    +0.000 A 
ATOM     31  C   UNL     1       7.415   5.204  18.318  0.00  0.00    +0.000 A 
ATOM     32  C   UNL     1       6.347   4.460  17.825  0.00  0.00    +0.000 A 
ENDBRANCH  26  27
ENDBRANCH  25  26
ENDBRANCH  21  25
ENDBRANCH   4  21
TORSDOF 8
ENDMDL
MODEL 9
REMARK VINA RESULT:      -8.2      0.918      1.032
REMARK  Name = 
REMARK  9 active torsions:
REMARK  status: ('A' for Active; 'I' for Inactive)
REMARK    1  A    between atoms: C_1  and  C_2
REMARK    2  A    between atoms: C_3  and  N_4
REMARK    3  A    between atoms: N_7  and  C_8
REMARK    4  A    between atoms: C_8  and  C_9
REMARK    5  A    between atoms: C_8  and  C_17
REMARK    6  A    between atoms: C_9  and  C_10
REMARK    7  A    between atoms: C_10  and  C_11
REMARK    8  A    between atoms: N_22  and  C_23
REMARK    9  A    between atoms: C_23  and  C_24
REMARK                            x       y       z     vdW  Elec       q    Type
REMARK                         _______ _______ _______ _____ _____    ______ ____
ROOT
ATOM      1  N   UNL     1       2.644   6.962  20.122  0.00  0.00    +0.000 N 
ATOM      2  C   UNL     1       2.554   5.637  19.795  0.00  0.00    +0.000 C 
ATOM      3  O   UNL     1       3.106   4.790  20.493  0.00  0.00    +0.000 OA
ATOM      4  N   UNL     1       1.715   5.329  18.765  0.00  0.00    +0.000 N 
ATOM      5  H   UNL     1       3.103   7.147  21.001  0.00  0.00    +0.000 HD
ATOM      6  H   UNL     1       1.593   6.063  18.073  0.00  0.00    +0.000 HD
ENDROOT
BRANCH   1   9
ATOM      7  C   UNL     1       0.587   9.122  21.289  0.00  0.00    +0.000 C 
ATOM      8  C   UNL     1       1.200   8.948  19.954  0.00  0.00    +0.000 A 
ATOM      9  C   UNL     1       2.068   8.008  19.444  0.00  0.00    +0.000 A 
ATOM     10  N   UNL     1       2.285   8.251  18.116  0.00  0.00    +0.000 NA
ATOM     11  N   UNL     1       1.602   9.328  17.774  0.00  0.00    +0.000 NA
ATOM     12  N   UNL     1       0.923   9.740  18.863  0.00  0.00    +0.000 N 
BRANCH  12  13
ATOM     13  C   UNL     1       0.138  10.961  18.782  0.00  0.00    +0.000 C 
BRANCH  13  14
ATOM     14  C   UNL     1      -1.265  10.746  18.277  0.00  0.00    +0.000 A 
ATOM     15  C   UNL     1      -1.554   9.867  17.220  0.00  0.00    +0.000 A 
ATOM     16  C   UNL     1      -2.848   9.790  16.692  0.00  0.00    +0.000 A 
ATOM     17  C   UNL     1      -3.867  10.588  17.208  0.00  0.00    +0.000 A 
ATOM     18  C   UNL     1      -3.598  11.451  18.266  0.00  0.00    +0.000 A 
ATOM     19  C   UNL     1      -2.309  11.522  18.789  0.00  0.00    +0.000 A 
ATOM     20  F   UNL     1      -2.069  12.377  19.794  0.00  0.00    +0.000 F 
ENDBRANCH  13  14
ENDBRANCH  12  13
ENDBRANCH   1   9
BRANCH   4  21
ATOM     21  C   UNL     1       1.421   3.958  18.346  0.00  0.00    +0.000 C 
BRANCH  21  22
ATOM     22  C   UNL     1       1.440   2.977  19.531  0.00  0.00    +0.000 C 
ATOM     23  F   UNL     1       0.460   3.297  20.415  0.00  0.00    +0.000 F 
ATOM     24  F   UNL     1       1.195   1.707  19.123  0.00  0.00    +0.000 F 
ENDBRANCH  21  22
BRANCH  21  25
ATOM     25  C   UNL     1       2.427   3.574  17.240  0.00  0.00    +0.000 C 
BRANCH  25  26
ATOM     26  C   UNL     1       3.809   3.215  17.792  0.00  0.00    +0.000 C 
BRANCH  26  27
ATOM     27  C   UNL     1       4.994   4.019  17.305  0.00  0.00    +0.000 A 
ATOM     28  C   UNL     1       5.973   4.568  18.141  0.00  0.00    +0.000 A 
ATOM     29  C   UNL     1       7.039   5.294  17.602  0.00  0.00    +0.000 A 
ATOM     30  C   UNL     1       7.141   5.480  16.225  0.00  0.00    +0.000 A 
ATOM     31  C   UNL     1       6.181   4.932  15.383  0.00  0.00    +0.000 A 
ATOM     32  C   UNL     1       5.118   4.209  15.917  0.00  0.00    +0.000 A 
ENDBRANCH  26  27
ENDBRANCH  25  26
ENDBRANCH  21  25
ENDBRANCH   4  21
TORSDOF 8
ENDMDL
