MODEL 1
REMARK VINA RESULT:      -7.7      0.000      0.000
REMARK  Name = 
REMARK  3 active torsions:
REMARK  status: ('A' for Active; 'I' for Inactive)
REMARK    1  A    between atoms: C_2  and  C_21
REMARK    2  A    between atoms: N_3  and  C_4
REMARK    3  A    between atoms: C_8  and  N_9
REMARK                            x       y       z     vdW  Elec       q    Type
REMARK                         _______ _______ _______ _____ _____    ______ ____
ROOT
ATOM      1  C   UNL     1       1.052   9.716  18.061  0.00  0.00    +0.000 A 
ATOM      2  C   UNL     1       1.628  10.905  18.524  0.00  0.00    +0.000 A 
ATOM      3  C   UNL     1       0.846  11.922  19.054  0.00  0.00    +0.000 A 
ATOM      4  C   UNL     1      -0.534  11.790  19.069  0.00  0.00    +0.000 A 
ATOM      5  C   UNL     1      -1.174  10.684  18.496  0.00  0.00    +0.000 A 
ATOM      6  C   UNL     1      -0.359   9.619  18.028  0.00  0.00    +0.000 A 
ENDROOT
BRANCH   5   7
ATOM      7  N   UNL     1      -2.601  10.619  18.426  0.00  0.00    +0.000 N 
ATOM      8  C   UNL     1      -3.348  11.125  17.377  0.00  0.00    +0.000 C 
ATOM      9  O   UNL     1      -2.874  11.517  16.311  0.00  0.00    +0.000 OA
ATOM     10  N   UNL     1      -4.700  11.269  17.592  0.00  0.00    +0.000 N 
ATOM     11  C   UNL     1      -5.567  10.665  18.601  0.00  0.00    +0.000 C 
ATOM     12  C   UNL     1      -6.944  11.292  18.335  0.00  0.00    +0.000 C 
ATOM     13  C   UNL     1      -6.529  12.645  17.741  0.00  0.00    +0.000 C 
ATOM     14  C   UNL     1      -7.515  13.765  17.249  0.00  0.00    +0.000 C 
ATOM     15  C   UNL     1      -7.685  14.127  18.739  0.00  0.00    +0.000 C 
ATOM     16  C   UNL     1      -6.217  13.654  18.906  0.00  0.00    +0.000 C 
ATOM     17  C   UNL     1      -5.417  12.248  16.782  0.00  0.00    +0.000 C 
ATOM     18  H   UNL     1      -3.084  10.083  19.128  0.00  0.00    +0.000 HD
ENDBRANCH   5   7
BRANCH   1  21
ATOM     19  O   UNL     1       2.181   7.556  19.689  0.00  0.00    +0.000 OA
ATOM     20  C   UNL     1       2.406   7.669  18.490  0.00  0.00    +0.000 C 
ATOM     21  N   UNL     1       1.874   8.632  17.625  0.00  0.00    +0.000 N 
ATOM     22  H   UNL     1       1.953   8.478  16.636  0.00  0.00    +0.000 HD
BRANCH  20  23
ATOM     23  C   UNL     1       3.306   6.624  17.906  0.00  0.00    +0.000 A 
ATOM     24  C   UNL     1       4.422   7.068  17.177  0.00  0.00    +0.000 A 
ATOM     25  C   UNL     1       5.256   6.160  16.522  0.00  0.00    +0.000 A 
ATOM     26  C   UNL     1       4.970   4.800  16.582  0.00  0.00    +0.000 A 
ATOM     27  C   UNL     1       3.854   4.349  17.293  0.00  0.00    +0.000 A 
ATOM     28  C   UNL     1       3.024   5.258  17.966  0.00  0.00    +0.000 A 
ENDBRANCH  20  23
ENDBRANCH   1  21
TORSDOF 3
ENDMDL
MODEL 2
REMARK VINA RESULT:      -7.6      3.123      5.910
REMARK  Name = 
REMARK  3 active torsions:
REMARK  status: ('A' for Active; 'I' for Inactive)
REMARK    1  A    between atoms: C_2  and  C_21
REMARK    2  A    between atoms: N_3  and  C_4
REMARK    3  A    between atoms: C_8  and  N_9
REMARK                            x       y       z     vdW  Elec       q    Type
REMARK                         _______ _______ _______ _____ _____    ______ ____
ROOT
ATOM      1  C   UNL     1       4.016   5.063  17.477  0.00  0.00    +0.000 A 
ATOM      2  C   UNL     1       3.936   4.243  18.609  0.00  0.00    +0.000 A 
ATOM      3  C   UNL     1       3.263   4.659  19.750  0.00  0.00    +0.000 A 
ATOM      4  C   UNL     1       2.713   5.932  19.797  0.00  0.00    +0.000 A 
ATOM      5  C   UNL     1       2.880   6.845  18.748  0.00  0.00    +0.000 A 
ATOM      6  C   UNL     1       3.503   6.378  17.559  0.00  0.00    +0.000 A 
ENDROOT
BRANCH   5   7
ATOM      7  N   UNL     1       2.398   8.186  18.862  0.00  0.00    +0.000 N 
ATOM      8  C   UNL     1       1.455   8.595  19.787  0.00  0.00    +0.000 C 
ATOM      9  O   UNL     1       1.062   7.906  20.729  0.00  0.00    +0.000 OA
ATOM     10  N   UNL     1       0.869   9.822  19.575  0.00  0.00    +0.000 N 
ATOM     11  C   UNL     1       1.298  10.944  18.745  0.00  0.00    +0.000 C 
ATOM     12  C   UNL     1       0.168  11.975  18.894  0.00  0.00    +0.000 C 
ATOM     13  C   UNL     1      -1.026  11.048  19.164  0.00  0.00    +0.000 C 
ATOM     14  C   UNL     1      -2.504  11.517  19.415  0.00  0.00    +0.000 C 
ATOM     15  C   UNL     1      -2.599  11.697  17.886  0.00  0.00    +0.000 C 
ATOM     16  C   UNL     1      -1.595  10.518  17.797  0.00  0.00    +0.000 C 
ATOM     17  C   UNL     1      -0.446  10.058  20.163  0.00  0.00    +0.000 C 
ATOM     18  H   UNL     1       2.848   8.897  18.307  0.00  0.00    +0.000 HD
ENDBRANCH   5   7
BRANCH   1  21
ATOM     19  O   UNL     1       6.263   6.224  15.995  0.00  0.00    +0.000 OA
ATOM     20  C   UNL     1       5.656   5.232  15.608  0.00  0.00    +0.000 C 
ATOM     21  N   UNL     1       4.610   4.580  16.270  0.00  0.00    +0.000 N 
ATOM     22  H   UNL     1       4.356   3.657  15.965  0.00  0.00    +0.000 HD
BRANCH  20  23
ATOM     23  C   UNL     1       6.139   4.649  14.317  0.00  0.00    +0.000 A 
ATOM     24  C   UNL     1       7.313   5.187  13.765  0.00  0.00    +0.000 A 
ATOM     25  C   UNL     1       7.777   4.764  12.518  0.00  0.00    +0.000 A 
ATOM     26  C   UNL     1       7.061   3.807  11.808  0.00  0.00    +0.000 A 
ATOM     27  C   UNL     1       5.883   3.275  12.342  0.00  0.00    +0.000 A 
ATOM     28  C   UNL     1       5.423   3.685  13.602  0.00  0.00    +0.000 A 
ENDBRANCH  20  23
ENDBRANCH   1  21
TORSDOF 3
ENDMDL
MODEL 3
REMARK VINA RESULT:      -7.4      0.785      1.244
REMARK  Name = 
REMARK  3 active torsions:
REMARK  status: ('A' for Active; 'I' for Inactive)
REMARK    1  A    between atoms: C_2  and  C_21
REMARK    2  A    between atoms: N_3  and  C_4
REMARK    3  A    between atoms: C_8  and  N_9
REMARK                            x       y       z     vdW  Elec       q    Type
REMARK                         _______ _______ _______ _____ _____    ______ ____
ROOT
ATOM      1  C   UNL     1       0.660  10.319  18.336  0.00  0.00    +0.000 A 
ATOM      2  C   UNL     1       1.303  11.503  18.716  0.00  0.00    +0.000 A 
ATOM      3  C   UNL     1       0.595  12.554  19.283  0.00  0.00    +0.000 A 
ATOM      4  C   UNL     1      -0.783  12.459  19.420  0.00  0.00    +0.000 A 
ATOM      5  C   UNL     1      -1.496  11.357  18.933  0.00  0.00    +0.000 A 
ATOM      6  C   UNL     1      -0.750  10.259  18.426  0.00  0.00    +0.000 A 
ENDROOT
BRANCH   5   7
ATOM      7  N   UNL     1      -2.925  11.328  18.986  0.00  0.00    +0.000 N 
ATOM      8  C   UNL     1      -3.745  11.513  17.888  0.00  0.00    +0.000 C 
ATOM      9  O   UNL     1      -3.349  11.537  16.722  0.00  0.00    +0.000 OA
ATOM     10  N   UNL     1      -5.073  11.768  18.141  0.00  0.00    +0.000 N 
ATOM     11  C   UNL     1      -5.867  11.539  19.346  0.00  0.00    +0.000 C 
ATOM     12  C   UNL     1      -7.251  12.106  18.995  0.00  0.00    +0.000 C 
ATOM     13  C   UNL     1      -6.864  13.192  17.982  0.00  0.00    +0.000 C 
ATOM     14  C   UNL     1      -7.869  14.141  17.236  0.00  0.00    +0.000 C 
ATOM     15  C   UNL     1      -7.917  14.953  18.547  0.00  0.00    +0.000 C 
ATOM     16  C   UNL     1      -6.447  14.499  18.750  0.00  0.00    +0.000 C 
ATOM     17  C   UNL     1      -5.837  12.475  17.118  0.00  0.00    +0.000 C 
ATOM     18  H   UNL     1      -3.359  11.054  19.853  0.00  0.00    +0.000 HD
ENDBRANCH   5   7
BRANCH   1  21
ATOM     19  O   UNL     1       1.777   8.111  19.908  0.00  0.00    +0.000 OA
ATOM     20  C   UNL     1       1.949   8.217  18.699  0.00  0.00    +0.000 C 
ATOM     21  N   UNL     1       1.415   9.203  17.861  0.00  0.00    +0.000 N 
ATOM     22  H   UNL     1       1.441   9.048  16.869  0.00  0.00    +0.000 HD
BRANCH  20  23
ATOM     23  C   UNL     1       2.775   7.138  18.073  0.00  0.00    +0.000 A 
ATOM     24  C   UNL     1       2.411   5.808  18.342  0.00  0.00    +0.000 A 
ATOM     25  C   UNL     1       3.185   4.745  17.874  0.00  0.00    +0.000 A 
ATOM     26  C   UNL     1       4.339   5.007  17.143  0.00  0.00    +0.000 A 
ATOM     27  C   UNL     1       4.717   6.327  16.881  0.00  0.00    +0.000 A 
ATOM     28  C   UNL     1       3.933   7.396  17.335  0.00  0.00    +0.000 A 
ENDBRANCH  20  23
ENDBRANCH   1  21
TORSDOF 3
ENDMDL
MODEL 4
REMARK VINA RESULT:      -7.3      4.430      9.350
REMARK  Name = 
REMARK  3 active torsions:
REMARK  status: ('A' for Active; 'I' for Inactive)
REMARK    1  A    between atoms: C_2  and  C_21
REMARK    2  A    between atoms: N_3  and  C_4
REMARK    3  A    between atoms: C_8  and  N_9
REMARK                            x       y       z     vdW  Elec       q    Type
REMARK                         _______ _______ _______ _____ _____    ______ ____
ROOT
ATOM      1  C   UNL     1       0.185  11.231  20.850  0.00  0.00    +0.000 A 
ATOM      2  C   UNL     1      -0.655  11.093  21.961  0.00  0.00    +0.000 A 
ATOM      3  C   UNL     1      -0.585   9.973  22.779  0.00  0.00    +0.000 A 
ATOM      4  C   UNL     1       0.286   8.942  22.458  0.00  0.00    +0.000 A 
ATOM      5  C   UNL     1       1.051   8.963  21.286  0.00  0.00    +0.000 A 
ATOM      6  C   UNL     1       1.025  10.148  20.501  0.00  0.00    +0.000 A 
ENDROOT
BRANCH   5   7
ATOM      7  N   UNL     1       1.860   7.842  20.919  0.00  0.00    +0.000 N 
ATOM      8  C   UNL     1       2.157   7.495  19.614  0.00  0.00    +0.000 C 
ATOM      9  O   UNL     1       1.920   8.204  18.636  0.00  0.00    +0.000 OA
ATOM     10  N   UNL     1       2.674   6.236  19.409  0.00  0.00    +0.000 N 
ATOM     11  C   UNL     1       3.301   5.307  20.346  0.00  0.00    +0.000 C 
ATOM     12  C   UNL     1       3.588   4.058  19.498  0.00  0.00    +0.000 C 
ATOM     13  C   UNL     1       2.468   4.161  18.453  0.00  0.00    +0.000 C 
ATOM     14  C   UNL     1       2.228   3.151  17.274  0.00  0.00    +0.000 C 
ATOM     15  C   UNL     1       1.575   2.234  18.328  0.00  0.00    +0.000 C 
ATOM     16  C   UNL     1       1.147   3.544  19.040  0.00  0.00    +0.000 C 
ATOM     17  C   UNL     1       2.503   5.638  18.089  0.00  0.00    +0.000 C 
ATOM     18  H   UNL     1       2.328   7.338  21.655  0.00  0.00    +0.000 HD
ENDBRANCH   5   7
BRANCH   1  21
ATOM     19  O   UNL     1       1.658  13.705  21.400  0.00  0.00    +0.000 OA
ATOM     20  C   UNL     1       0.888  13.588  20.454  0.00  0.00    +0.000 C 
ATOM     21  N   UNL     1       0.184  12.437  20.084  0.00  0.00    +0.000 N 
ATOM     22  H   UNL     1      -0.227  12.405  19.169  0.00  0.00    +0.000 HD
BRANCH  20  23
ATOM     23  C   UNL     1       0.745  14.803  19.591  0.00  0.00    +0.000 A 
ATOM     24  C   UNL     1       1.926  15.406  19.126  0.00  0.00    +0.000 A 
ATOM     25  C   UNL     1       1.882  16.595  18.396  0.00  0.00    +0.000 A 
ATOM     26  C   UNL     1       0.656  17.197  18.137  0.00  0.00    +0.000 A 
ATOM     27  C   UNL     1      -0.524  16.613  18.608  0.00  0.00    +0.000 A 
ATOM     28  C   UNL     1      -0.485  15.409  19.327  0.00  0.00    +0.000 A 
ENDBRANCH  20  23
ENDBRANCH   1  21
TORSDOF 3
ENDMDL
MODEL 5
REMARK VINA RESULT:      -7.2      1.606      9.475
REMARK  Name = 
REMARK  3 active torsions:
REMARK  status: ('A' for Active; 'I' for Inactive)
REMARK    1  A    between atoms: C_2  and  C_21
REMARK    2  A    between atoms: N_3  and  C_4
REMARK    3  A    between atoms: C_8  and  N_9
REMARK                            x       y       z     vdW  Elec       q    Type
REMARK                         _______ _______ _______ _____ _____    ______ ____
ROOT
ATOM      1  C   UNL     1      -0.889  11.236  19.090  0.00  0.00    +0.000 A 
ATOM      2  C   UNL     1      -0.118  12.335  18.695  0.00  0.00    +0.000 A 
ATOM      3  C   UNL     1       1.234  12.198  18.408  0.00  0.00    +0.000 A 
ATOM      4  C   UNL     1       1.849  10.966  18.575  0.00  0.00    +0.000 A 
ATOM      5  C   UNL     1       1.161   9.864  19.098  0.00  0.00    +0.000 A 
ATOM      6  C   UNL     1      -0.237  10.000  19.313  0.00  0.00    +0.000 A 
ENDROOT
BRANCH   5   7
ATOM      7  N   UNL     1       1.841   8.635  19.364  0.00  0.00    +0.000 N 
ATOM      8  C   UNL     1       2.528   7.908  18.409  0.00  0.00    +0.000 C 
ATOM      9  O   UNL     1       2.791   8.319  17.278  0.00  0.00    +0.000 OA
ATOM     10  N   UNL     1       2.858   6.612  18.734  0.00  0.00    +0.000 N 
ATOM     11  C   UNL     1       2.930   5.953  20.036  0.00  0.00    +0.000 C 
ATOM     12  C   UNL     1       3.286   4.496  19.699  0.00  0.00    +0.000 C 
ATOM     13  C   UNL     1       2.660   4.368  18.303  0.00  0.00    +0.000 C 
ATOM     14  C   UNL     1       2.695   3.080  17.405  0.00  0.00    +0.000 C 
ATOM     15  C   UNL     1       1.555   2.549  18.298  0.00  0.00    +0.000 C 
ATOM     16  C   UNL     1       1.130   4.034  18.444  0.00  0.00    +0.000 C 
ATOM     17  C   UNL     1       3.080   5.671  17.640  0.00  0.00    +0.000 C 
ATOM     18  H   UNL     1       1.913   8.334  20.322  0.00  0.00    +0.000 HD
ENDBRANCH   5   7
BRANCH   1  21
ATOM     19  O   UNL     1      -2.948  11.464  17.016  0.00  0.00    +0.000 OA
ATOM     20  C   UNL     1      -3.204  11.516  18.214  0.00  0.00    +0.000 C 
ATOM     21  N   UNL     1      -2.300  11.366  19.271  0.00  0.00    +0.000 N 
ATOM     22  H   UNL     1      -2.668  11.200  20.190  0.00  0.00    +0.000 HD
BRANCH  20  23
ATOM     23  C   UNL     1      -4.650  11.707  18.551  0.00  0.00    +0.000 A 
ATOM     24  C   UNL     1      -4.954  12.543  19.637  0.00  0.00    +0.000 A 
ATOM     25  C   UNL     1      -6.271  12.698  20.075  0.00  0.00    +0.000 A 
ATOM     26  C   UNL     1      -7.293  12.006  19.434  0.00  0.00    +0.000 A 
ATOM     27  C   UNL     1      -6.999  11.161  18.360  0.00  0.00    +0.000 A 
ATOM     28  C   UNL     1      -5.680  11.015  17.907  0.00  0.00    +0.000 A 
ENDBRANCH  20  23
ENDBRANCH   1  21
TORSDOF 3
ENDMDL
MODEL 6
REMARK VINA RESULT:      -7.2      3.279      4.061
REMARK  Name = 
REMARK  3 active torsions:
REMARK  status: ('A' for Active; 'I' for Inactive)
REMARK    1  A    between atoms: C_2  and  C_21
REMARK    2  A    between atoms: N_3  and  C_4
REMARK    3  A    between atoms: C_8  and  N_9
REMARK                            x       y       z     vdW  Elec       q    Type
REMARK                         _______ _______ _______ _____ _____    ______ ____
ROOT
ATOM      1  C   UNL     1       1.579   9.832  18.504  0.00  0.00    +0.000 A 
ATOM      2  C   UNL     1       2.183  10.995  18.014  0.00  0.00    +0.000 A 
ATOM      3  C   UNL     1       1.917  12.235  18.579  0.00  0.00    +0.000 A 
ATOM      4  C   UNL     1       0.991  12.336  19.607  0.00  0.00    +0.000 A 
ATOM      5  C   UNL     1       0.255  11.229  20.045  0.00  0.00    +0.000 A 
ATOM      6  C   UNL     1       0.593   9.956  19.511  0.00  0.00    +0.000 A 
ENDROOT
BRANCH   5   7
ATOM      7  N   UNL     1      -0.772  11.376  21.030  0.00  0.00    +0.000 N 
ATOM      8  C   UNL     1      -1.902  12.156  20.860  0.00  0.00    +0.000 C 
ATOM      9  O   UNL     1      -2.244  12.658  19.789  0.00  0.00    +0.000 OA
ATOM     10  N   UNL     1      -2.631  12.446  21.990  0.00  0.00    +0.000 N 
ATOM     11  C   UNL     1      -2.641  11.801  23.301  0.00  0.00    +0.000 C 
ATOM     12  C   UNL     1      -3.618  12.651  24.129  0.00  0.00    +0.000 C 
ATOM     13  C   UNL     1      -3.455  14.016  23.446  0.00  0.00    +0.000 C 
ATOM     14  C   UNL     1      -4.217  15.330  23.845  0.00  0.00    +0.000 C 
ATOM     15  C   UNL     1      -3.203  15.446  25.002  0.00  0.00    +0.000 C 
ATOM     16  C   UNL     1      -2.200  14.752  24.043  0.00  0.00    +0.000 C 
ATOM     17  C   UNL     1      -3.467  13.642  21.971  0.00  0.00    +0.000 C 
ATOM     18  H   UNL     1      -0.723  10.797  21.852  0.00  0.00    +0.000 HD
ENDBRANCH   5   7
BRANCH   1  21
ATOM     19  O   UNL     1       2.330   7.440  20.024  0.00  0.00    +0.000 OA
ATOM     20  C   UNL     1       2.337   7.476  18.799  0.00  0.00    +0.000 C 
ATOM     21  N   UNL     1       1.947   8.550  17.991  0.00  0.00    +0.000 N 
ATOM     22  H   UNL     1       1.781   8.375  17.016  0.00  0.00    +0.000 HD
BRANCH  20  23
ATOM     23  C   UNL     1       2.759   6.209  18.124  0.00  0.00    +0.000 A 
ATOM     24  C   UNL     1       1.909   5.097  18.248  0.00  0.00    +0.000 A 
ATOM     25  C   UNL     1       2.277   3.854  17.729  0.00  0.00    +0.000 A 
ATOM     26  C   UNL     1       3.504   3.712  17.093  0.00  0.00    +0.000 A 
ATOM     27  C   UNL     1       4.363   4.809  16.975  0.00  0.00    +0.000 A 
ATOM     28  C   UNL     1       3.991   6.063  17.481  0.00  0.00    +0.000 A 
ENDBRANCH  20  23
ENDBRANCH   1  21
TORSDOF 3
ENDMDL
MODEL 7
REMARK VINA RESULT:      -7.2      4.318      9.881
REMARK  Name = 
REMARK  3 active torsions:
REMARK  status: ('A' for Active; 'I' for Inactive)
REMARK    1  A    between atoms: C_2  and  C_21
REMARK    2  A    between atoms: N_3  and  C_4
REMARK    3  A    between atoms: C_8  and  N_9
REMARK                            x       y       z     vdW  Elec       q    Type
REMARK                         _______ _______ _______ _____ _____    ______ ____
ROOT
ATOM      1  C   UNL     1       0.222  10.902  20.226  0.00  0.00    +0.000 A 
ATOM      2  C   UNL     1       0.737  11.373  19.013  0.00  0.00    +0.000 A 
ATOM      3  C   UNL     1       1.471  10.544  18.175  0.00  0.00    +0.000 A 
ATOM      4  C   UNL     1       1.754   9.245  18.571  0.00  0.00    +0.000 A 
ATOM      5  C   UNL     1       1.383   8.762  19.831  0.00  0.00    +0.000 A 
ATOM      6  C   UNL     1       0.568   9.596  20.644  0.00  0.00    +0.000 A 
ENDROOT
BRANCH   5   7
ATOM      7  N   UNL     1       1.779   7.457  20.262  0.00  0.00    +0.000 N 
ATOM      8  C   UNL     1       2.707   6.673  19.601  0.00  0.00    +0.000 C 
ATOM      9  O   UNL     1       3.428   7.072  18.687  0.00  0.00    +0.000 OA
ATOM     10  N   UNL     1       2.753   5.342  19.947  0.00  0.00    +0.000 N 
ATOM     11  C   UNL     1       2.246   4.655  21.133  0.00  0.00    +0.000 C 
ATOM     12  C   UNL     1       2.557   3.173  20.869  0.00  0.00    +0.000 C 
ATOM     13  C   UNL     1       2.515   3.144  19.334  0.00  0.00    +0.000 C 
ATOM     14  C   UNL     1       2.768   1.878  18.441  0.00  0.00    +0.000 C 
ATOM     15  C   UNL     1       1.323   1.467  18.792  0.00  0.00    +0.000 C 
ATOM     16  C   UNL     1       1.025   2.988  18.855  0.00  0.00    +0.000 C 
ATOM     17  C   UNL     1       3.287   4.402  18.967  0.00  0.00    +0.000 C 
ATOM     18  H   UNL     1       1.442   7.132  21.153  0.00  0.00    +0.000 HD
ENDBRANCH   5   7
BRANCH   1  21
ATOM     19  O   UNL     1      -0.163  10.800  23.131  0.00  0.00    +0.000 OA
ATOM     20  C   UNL     1      -0.781  11.573  22.407  0.00  0.00    +0.000 C 
ATOM     21  N   UNL     1      -0.627  11.728  21.025  0.00  0.00    +0.000 N 
ATOM     22  H   UNL     1      -1.021  12.545  20.593  0.00  0.00    +0.000 HD
BRANCH  20  23
ATOM     23  C   UNL     1      -1.754  12.467  23.109  0.00  0.00    +0.000 A 
ATOM     24  C   UNL     1      -1.303  13.743  23.484  0.00  0.00    +0.000 A 
ATOM     25  C   UNL     1      -2.118  14.601  24.225  0.00  0.00    +0.000 A 
ATOM     26  C   UNL     1      -3.388  14.181  24.607  0.00  0.00    +0.000 A 
ATOM     27  C   UNL     1      -3.841  12.908  24.250  0.00  0.00    +0.000 A 
ATOM     28  C   UNL     1      -3.031  12.050  23.492  0.00  0.00    +0.000 A 
ENDBRANCH  20  23
ENDBRANCH   1  21
TORSDOF 3
ENDMDL
MODEL 8
REMARK VINA RESULT:      -7.1      1.403      2.057
REMARK  Name = 
REMARK  3 active torsions:
REMARK  status: ('A' for Active; 'I' for Inactive)
REMARK    1  A    between atoms: C_2  and  C_21
REMARK    2  A    between atoms: N_3  and  C_4
REMARK    3  A    between atoms: C_8  and  N_9
REMARK                            x       y       z     vdW  Elec       q    Type
REMARK                         _______ _______ _______ _____ _____    ______ ____
ROOT
ATOM      1  C   UNL     1       1.015   9.767  18.005  0.00  0.00    +0.000 A 
ATOM      2  C   UNL     1       1.801  10.840  18.444  0.00  0.00    +0.000 A 
ATOM      3  C   UNL     1       1.221  12.028  18.867  0.00  0.00    +0.000 A 
ATOM      4  C   UNL     1      -0.156  12.183  18.798  0.00  0.00    +0.000 A 
ATOM      5  C   UNL     1      -0.980  11.197  18.241  0.00  0.00    +0.000 A 
ATOM      6  C   UNL     1      -0.381   9.959  17.884  0.00  0.00    +0.000 A 
ENDROOT
BRANCH   5   7
ATOM      7  N   UNL     1      -2.383  11.422  18.079  0.00  0.00    +0.000 N 
ATOM      8  C   UNL     1      -3.198  11.967  19.055  0.00  0.00    +0.000 C 
ATOM      9  O   UNL     1      -2.786  12.487  20.093  0.00  0.00    +0.000 OA
ATOM     10  N   UNL     1      -4.556  11.833  18.876  0.00  0.00    +0.000 N 
ATOM     11  C   UNL     1      -5.325  11.528  17.672  0.00  0.00    +0.000 C 
ATOM     12  C   UNL     1      -6.778  11.455  18.165  0.00  0.00    +0.000 C 
ATOM     13  C   UNL     1      -6.563  11.005  19.617  0.00  0.00    +0.000 C 
ATOM     14  C   UNL     1      -7.700  10.754  20.671  0.00  0.00    +0.000 C 
ATOM     15  C   UNL     1      -7.916   9.401  19.964  0.00  0.00    +0.000 C 
ATOM     16  C   UNL     1      -6.395   9.442  19.661  0.00  0.00    +0.000 C 
ATOM     17  C   UNL     1      -5.407  11.891  20.060  0.00  0.00    +0.000 C 
ATOM     18  H   UNL     1      -2.782  11.273  17.167  0.00  0.00    +0.000 HD
ENDBRANCH   5   7
BRANCH   1  21
ATOM     19  O   UNL     1       2.156   7.796  19.852  0.00  0.00    +0.000 OA
ATOM     20  C   UNL     1       2.177   7.654  18.635  0.00  0.00    +0.000 C 
ATOM     21  N   UNL     1       1.615   8.511  17.682  0.00  0.00    +0.000 N 
ATOM     22  H   UNL     1       1.500   8.169  16.745  0.00  0.00    +0.000 HD
BRANCH  20  23
ATOM     23  C   UNL     1       2.830   6.399  18.148  0.00  0.00    +0.000 A 
ATOM     24  C   UNL     1       4.094   6.521  17.548  0.00  0.00    +0.000 A 
ATOM     25  C   UNL     1       4.728   5.412  16.984  0.00  0.00    +0.000 A 
ATOM     26  C   UNL     1       4.095   4.174  17.006  0.00  0.00    +0.000 A 
ATOM     27  C   UNL     1       2.831   4.045  17.590  0.00  0.00    +0.000 A 
ATOM     28  C   UNL     1       2.199   5.153  18.172  0.00  0.00    +0.000 A 
ENDBRANCH  20  23
ENDBRANCH   1  21
TORSDOF 3
ENDMDL
MODEL 9
REMARK VINA RESULT:      -7.1      4.019      6.239
REMARK  Name = 
REMARK  3 active torsions:
REMARK  status: ('A' for Active; 'I' for Inactive)
REMARK    1  A    between atoms: C_2  and  C_21
REMARK    2  A    between atoms: N_3  and  C_4
REMARK    3  A    between atoms: C_8  and  N_9
REMARK                            x       y       z     vdW  Elec       q    Type
REMARK                         _______ _______ _______ _____ _____    ______ ____
ROOT
ATOM      1  C   UNL     1       4.103   5.200  17.586  0.00  0.00    +0.000 A 
ATOM      2  C   UNL     1       4.432   4.617  18.815  0.00  0.00    +0.000 A 
ATOM      3  C   UNL     1       3.782   4.989  19.983  0.00  0.00    +0.000 A 
ATOM      4  C   UNL     1       2.833   6.001  19.948  0.00  0.00    +0.000 A 
ATOM      5  C   UNL     1       2.561   6.714  18.774  0.00  0.00    +0.000 A 
ATOM      6  C   UNL     1       3.178   6.270  17.573  0.00  0.00    +0.000 A 
ENDROOT
BRANCH   5   7
ATOM      7  N   UNL     1       1.660   7.824  18.784  0.00  0.00    +0.000 N 
ATOM      8  C   UNL     1       1.900   9.022  18.137  0.00  0.00    +0.000 C 
ATOM      9  O   UNL     1       2.815   9.207  17.334  0.00  0.00    +0.000 OA
ATOM     10  N   UNL     1       1.104  10.088  18.490  0.00  0.00    +0.000 N 
ATOM     11  C   UNL     1      -0.187  10.120  19.173  0.00  0.00    +0.000 C 
ATOM     12  C   UNL     1      -0.496  11.618  19.320  0.00  0.00    +0.000 C 
ATOM     13  C   UNL     1       0.925  12.196  19.378  0.00  0.00    +0.000 C 
ATOM     14  C   UNL     1       1.283  13.718  19.521  0.00  0.00    +0.000 C 
ATOM     15  C   UNL     1       0.964  13.548  21.020  0.00  0.00    +0.000 C 
ATOM     16  C   UNL     1       1.472  12.092  20.848  0.00  0.00    +0.000 C 
ATOM     17  C   UNL     1       1.629  11.432  18.266  0.00  0.00    +0.000 C 
ATOM     18  H   UNL     1       0.751   7.690  19.198  0.00  0.00    +0.000 HD
ENDBRANCH   5   7
BRANCH   1  21
ATOM     19  O   UNL     1       6.390   6.338  16.147  0.00  0.00    +0.000 OA
ATOM     20  C   UNL     1       5.763   5.368  15.735  0.00  0.00    +0.000 C 
ATOM     21  N   UNL     1       4.696   4.727  16.375  0.00  0.00    +0.000 N 
ATOM     22  H   UNL     1       4.424   3.818  16.049  0.00  0.00    +0.000 HD
BRANCH  20  23
ATOM     23  C   UNL     1       6.244   4.800  14.436  0.00  0.00    +0.000 A 
ATOM     24  C   UNL     1       7.392   5.376  13.866  0.00  0.00    +0.000 A 
ATOM     25  C   UNL     1       7.849   4.967  12.612  0.00  0.00    +0.000 A 
ATOM     26  C   UNL     1       7.153   3.987  11.914  0.00  0.00    +0.000 A 
ATOM     27  C   UNL     1       6.002   3.417  12.467  0.00  0.00    +0.000 A 
ATOM     28  C   UNL     1       5.549   3.813  13.733  0.00  0.00    +0.000 A 
ENDBRANCH  20  23
ENDBRANCH   1  21
TORSDOF 3
ENDMDL
