MODEL 1
REMARK VINA RESULT:      -8.3      0.000      0.000
REMARK  Name = 
REMARK  4 active torsions:
REMARK  status: ('A' for Active; 'I' for Inactive)
REMARK    1  A    between atoms: N_6  and  C_7
REMARK    2  A    between atoms: C_10  and  S_11
REMARK    3  A    between atoms: S_11  and  N_14
REMARK    4  A    between atoms: C_18  and  C_19
REMARK                            x       y       z     vdW  Elec       q    Type
REMARK                         _______ _______ _______ _____ _____    ______ ____
ROOT
ATOM      1  S   UNL     1       0.606   9.440  21.370  0.00  0.00    +0.000 S 
ATOM      2  O   UNL     1      -0.633   8.815  21.789  0.00  0.00    +0.000 OA
ATOM      3  O   UNL     1       1.562   9.916  22.344  0.00  0.00    +0.000 OA
ENDROOT
BRANCH   1   7
ATOM      4  C   UNL     1       2.719   6.353  18.671  0.00  0.00    +0.000 A 
ATOM      5  C   UNL     1       2.319   6.038  19.982  0.00  0.00    +0.000 A 
ATOM      6  C   UNL     1       1.687   6.975  20.809  0.00  0.00    +0.000 A 
ATOM      7  C   UNL     1       1.448   8.259  20.335  0.00  0.00    +0.000 A 
ATOM      8  C   UNL     1       1.780   8.585  19.017  0.00  0.00    +0.000 A 
ATOM      9  C   UNL     1       2.425   7.643  18.200  0.00  0.00    +0.000 A 
BRANCH   4  15
ATOM     10  O   UNL     1       1.727   3.782  17.418  0.00  0.00    +0.000 OA
ATOM     11  C   UNL     1       2.875   4.200  17.371  0.00  0.00    +0.000 C 
ATOM     12  C   UNL     1       4.000   3.400  16.763  0.00  0.00    +0.000 C 
ATOM     13  C   UNL     1       5.082   4.436  16.537  0.00  0.00    +0.000 C 
ATOM     14  C   UNL     1       4.836   5.453  17.634  0.00  0.00    +0.000 C 
ATOM     15  N   UNL     1       3.408   5.403  17.864  0.00  0.00    +0.000 N 
ENDBRANCH   4  15
ENDBRANCH   1   7
BRANCH   1  16
ATOM     16  N   UNL     1       0.208  10.717  20.346  0.00  0.00    +0.000 NA
ATOM     17  C   UNL     1       1.186  11.804  20.155  0.00  0.00    +0.000 C 
ATOM     18  C   UNL     1       0.556  12.994  20.854  0.00  0.00    +0.000 C 
ATOM     19  C   UNL     1      -0.942  12.803  20.675  0.00  0.00    +0.000 C 
ATOM     20  C   UNL     1      -1.157  11.305  20.357  0.00  0.00    +0.000 C 
BRANCH  20  21
ATOM     21  C   UNL     1      -1.770  11.130  18.990  0.00  0.00    +0.000 A 
ATOM     22  N   UNL     1      -1.176  10.593  17.935  0.00  0.00    +0.000 NA
ATOM     23  N   UNL     1      -2.042  10.613  16.874  0.00  0.00    +0.000 NA
ATOM     24  C   UNL     1      -3.169  11.141  17.290  0.00  0.00    +0.000 A 
ATOM     25  C   UNL     1      -4.409  11.385  16.637  0.00  0.00    +0.000 A 
ATOM     26  C   UNL     1      -5.419  11.959  17.318  0.00  0.00    +0.000 A 
ATOM     27  C   UNL     1      -5.261  12.351  18.710  0.00  0.00    +0.000 A 
ATOM     28  C   UNL     1      -4.089  12.125  19.326  0.00  0.00    +0.000 A 
ATOM     29  N   UNL     1      -3.050  11.510  18.627  0.00  0.00    +0.000 N 
ENDBRANCH  20  21
ENDBRANCH   1  16
TORSDOF 4
ENDMDL
MODEL 2
REMARK VINA RESULT:      -8.1      3.005      8.778
REMARK  Name = 
REMARK  4 active torsions:
REMARK  status: ('A' for Active; 'I' for Inactive)
REMARK    1  A    between atoms: N_6  and  C_7
REMARK    2  A    between atoms: C_10  and  S_11
REMARK    3  A    between atoms: S_11  and  N_14
REMARK    4  A    between atoms: C_18  and  C_19
REMARK                            x       y       z     vdW  Elec       q    Type
REMARK                         _______ _______ _______ _____ _____    ______ ____
ROOT
ATOM      1  S   UNL     1       1.978   4.838  20.252  0.00  0.00    +0.000 S 
ATOM      2  O   UNL     1       3.084   4.754  21.184  0.00  0.00    +0.000 OA
ATOM      3  O   UNL     1       0.679   4.304  20.593  0.00  0.00    +0.000 OA
ENDROOT
BRANCH   1   7
ATOM      4  C   UNL     1       1.476   9.327  19.312  0.00  0.00    +0.000 A 
ATOM      5  C   UNL     1       1.131   8.791  20.566  0.00  0.00    +0.000 A 
ATOM      6  C   UNL     1       1.272   7.427  20.853  0.00  0.00    +0.000 A 
ATOM      7  C   UNL     1       1.758   6.566  19.876  0.00  0.00    +0.000 A 
ATOM      8  C   UNL     1       2.165   7.078  18.641  0.00  0.00    +0.000 A 
ATOM      9  C   UNL     1       2.009   8.444  18.359  0.00  0.00    +0.000 A 
BRANCH   4  15
ATOM     10  O   UNL     1      -0.970  11.064  19.714  0.00  0.00    +0.000 OA
ATOM     11  C   UNL     1       0.077  11.419  19.193  0.00  0.00    +0.000 C 
ATOM     12  C   UNL     1       0.241  12.777  18.559  0.00  0.00    +0.000 C 
ATOM     13  C   UNL     1       1.745  12.932  18.449  0.00  0.00    +0.000 C 
ATOM     14  C   UNL     1       2.239  11.506  18.295  0.00  0.00    +0.000 C 
ATOM     15  N   UNL     1       1.276  10.707  19.023  0.00  0.00    +0.000 N 
ENDBRANCH   4  15
ENDBRANCH   1   7
BRANCH   1  16
ATOM     16  N   UNL     1       2.480   4.135  18.806  0.00  0.00    +0.000 NA
ATOM     17  C   UNL     1       1.484   3.434  17.975  0.00  0.00    +0.000 C 
ATOM     18  C   UNL     1       1.869   1.971  18.091  0.00  0.00    +0.000 C 
ATOM     19  C   UNL     1       3.382   1.978  18.243  0.00  0.00    +0.000 C 
ATOM     20  C   UNL     1       3.767   3.396  18.725  0.00  0.00    +0.000 C 
BRANCH  20  21
ATOM     21  C   UNL     1       4.655   4.081  17.718  0.00  0.00    +0.000 A 
ATOM     22  N   UNL     1       4.543   4.000  16.400  0.00  0.00    +0.000 NA
ATOM     23  N   UNL     1       5.531   4.750  15.818  0.00  0.00    +0.000 NA
ATOM     24  C   UNL     1       6.229   5.306  16.782  0.00  0.00    +0.000 A 
ATOM     25  C   UNL     1       7.339   6.193  16.767  0.00  0.00    +0.000 A 
ATOM     26  C   UNL     1       7.874   6.610  17.931  0.00  0.00    +0.000 A 
ATOM     27  C   UNL     1       7.345   6.156  19.208  0.00  0.00    +0.000 A 
ATOM     28  C   UNL     1       6.297   5.315  19.222  0.00  0.00    +0.000 A 
ATOM     29  N   UNL     1       5.730   4.901  18.016  0.00  0.00    +0.000 N 
ENDBRANCH  20  21
ENDBRANCH   1  16
TORSDOF 4
ENDMDL
MODEL 3
REMARK VINA RESULT:      -8.1      0.937      1.177
REMARK  Name = 
REMARK  4 active torsions:
REMARK  status: ('A' for Active; 'I' for Inactive)
REMARK    1  A    between atoms: N_6  and  C_7
REMARK    2  A    between atoms: C_10  and  S_11
REMARK    3  A    between atoms: S_11  and  N_14
REMARK    4  A    between atoms: C_18  and  C_19
REMARK                            x       y       z     vdW  Elec       q    Type
REMARK                         _______ _______ _______ _____ _____    ______ ____
ROOT
ATOM      1  S   UNL     1       0.658   9.354  21.359  0.00  0.00    +0.000 S 
ATOM      2  O   UNL     1      -0.565   8.672  21.732  0.00  0.00    +0.000 OA
ATOM      3  O   UNL     1       1.582   9.823  22.367  0.00  0.00    +0.000 OA
ENDROOT
BRANCH   1   7
ATOM      4  C   UNL     1       2.919   6.442  18.585  0.00  0.00    +0.000 A 
ATOM      5  C   UNL     1       2.582   6.094  19.906  0.00  0.00    +0.000 A 
ATOM      6  C   UNL     1       1.905   6.978  20.755  0.00  0.00    +0.000 A 
ATOM      7  C   UNL     1       1.556   8.242  20.295  0.00  0.00    +0.000 A 
ATOM      8  C   UNL     1       1.825   8.595  18.969  0.00  0.00    +0.000 A 
ATOM      9  C   UNL     1       2.514   7.707  18.129  0.00  0.00    +0.000 A 
BRANCH   4  15
ATOM     10  O   UNL     1       5.478   6.890  17.033  0.00  0.00    +0.000 OA
ATOM     11  C   UNL     1       4.811   5.866  17.024  0.00  0.00    +0.000 C 
ATOM     12  C   UNL     1       5.128   4.706  16.114  0.00  0.00    +0.000 C 
ATOM     13  C   UNL     1       4.353   3.559  16.730  0.00  0.00    +0.000 C 
ATOM     14  C   UNL     1       3.163   4.239  17.379  0.00  0.00    +0.000 C 
ATOM     15  N   UNL     1       3.654   5.548  17.755  0.00  0.00    +0.000 N 
ENDBRANCH   4  15
ENDBRANCH   1   7
BRANCH   1  16
ATOM     16  N   UNL     1       0.234  10.655  20.377  0.00  0.00    +0.000 NA
ATOM     17  C   UNL     1       1.170  11.787  20.258  0.00  0.00    +0.000 C 
ATOM     18  C   UNL     1       0.475  12.921  20.987  0.00  0.00    +0.000 C 
ATOM     19  C   UNL     1      -1.009  12.678  20.760  0.00  0.00    +0.000 C 
ATOM     20  C   UNL     1      -1.154  11.187  20.376  0.00  0.00    +0.000 C 
BRANCH  20  21
ATOM     21  C   UNL     1      -1.724  11.045  18.987  0.00  0.00    +0.000 A 
ATOM     22  N   UNL     1      -1.099  10.529  17.939  0.00  0.00    +0.000 NA
ATOM     23  N   UNL     1      -1.932  10.577  16.852  0.00  0.00    +0.000 NA
ATOM     24  C   UNL     1      -3.070  11.098  17.245  0.00  0.00    +0.000 A 
ATOM     25  C   UNL     1      -4.288  11.360  16.559  0.00  0.00    +0.000 A 
ATOM     26  C   UNL     1      -5.318  11.921  17.222  0.00  0.00    +0.000 A 
ATOM     27  C   UNL     1      -5.203  12.282  18.626  0.00  0.00    +0.000 A 
ATOM     28  C   UNL     1      -4.051  12.038  19.273  0.00  0.00    +0.000 A 
ATOM     29  N   UNL     1      -2.992  11.436  18.593  0.00  0.00    +0.000 N 
ENDBRANCH  20  21
ENDBRANCH   1  16
TORSDOF 4
ENDMDL
MODEL 4
REMARK VINA RESULT:      -8.1      0.522      1.046
REMARK  Name = 
REMARK  4 active torsions:
REMARK  status: ('A' for Active; 'I' for Inactive)
REMARK    1  A    between atoms: N_6  and  C_7
REMARK    2  A    between atoms: C_10  and  S_11
REMARK    3  A    between atoms: S_11  and  N_14
REMARK    4  A    between atoms: C_18  and  C_19
REMARK                            x       y       z     vdW  Elec       q    Type
REMARK                         _______ _______ _______ _____ _____    ______ ____
ROOT
ATOM      1  S   UNL     1       0.571   9.355  21.183  0.00  0.00    +0.000 S 
ATOM      2  O   UNL     1      -0.638   8.620  21.496  0.00  0.00    +0.000 OA
ATOM      3  O   UNL     1       1.464   9.793  22.231  0.00  0.00    +0.000 OA
ENDROOT
BRANCH   1   7
ATOM      4  C   UNL     1       3.084   6.738  18.333  0.00  0.00    +0.000 A 
ATOM      5  C   UNL     1       2.589   7.995  17.940  0.00  0.00    +0.000 A 
ATOM      6  C   UNL     1       1.816   8.788  18.797  0.00  0.00    +0.000 A 
ATOM      7  C   UNL     1       1.518   8.329  20.074  0.00  0.00    +0.000 A 
ATOM      8  C   UNL     1       2.044   7.112  20.515  0.00  0.00    +0.000 A 
ATOM      9  C   UNL     1       2.807   6.318  19.644  0.00  0.00    +0.000 A 
BRANCH   4  15
ATOM     10  O   UNL     1       2.770   3.805  17.656  0.00  0.00    +0.000 OA
ATOM     11  C   UNL     1       3.638   4.546  17.221  0.00  0.00    +0.000 C 
ATOM     12  C   UNL     1       4.768   4.044  16.357  0.00  0.00    +0.000 C 
ATOM     13  C   UNL     1       5.312   5.308  15.725  0.00  0.00    +0.000 C 
ATOM     14  C   UNL     1       5.025   6.378  16.761  0.00  0.00    +0.000 C 
ATOM     15  N   UNL     1       3.823   5.924  17.428  0.00  0.00    +0.000 N 
ENDBRANCH   4  15
ENDBRANCH   1   7
BRANCH   1  16
ATOM     16  N   UNL     1       0.124  10.696  20.267  0.00  0.00    +0.000 NA
ATOM     17  C   UNL     1       1.061  11.831  20.169  0.00  0.00    +0.000 C 
ATOM     18  C   UNL     1       0.387  12.935  20.963  0.00  0.00    +0.000 C 
ATOM     19  C   UNL     1      -1.102  12.703  20.765  0.00  0.00    +0.000 C 
ATOM     20  C   UNL     1      -1.261  11.230  20.323  0.00  0.00    +0.000 C 
BRANCH  20  21
ATOM     21  C   UNL     1      -1.868  11.146  18.945  0.00  0.00    +0.000 A 
ATOM     22  N   UNL     1      -1.265  10.690  17.857  0.00  0.00    +0.000 NA
ATOM     23  N   UNL     1      -2.128  10.778  16.797  0.00  0.00    +0.000 NA
ATOM     24  C   UNL     1      -3.262  11.264  17.244  0.00  0.00    +0.000 A 
ATOM     25  C   UNL     1      -4.502  11.541  16.606  0.00  0.00    +0.000 A 
ATOM     26  C   UNL     1      -5.520  12.055  17.322  0.00  0.00    +0.000 A 
ATOM     27  C   UNL     1      -5.371  12.350  18.738  0.00  0.00    +0.000 A 
ATOM     28  C   UNL     1      -4.198  12.092  19.342  0.00  0.00    +0.000 A 
ATOM     29  N   UNL     1      -3.151  11.538  18.604  0.00  0.00    +0.000 N 
ENDBRANCH  20  21
ENDBRANCH   1  16
TORSDOF 4
ENDMDL
MODEL 5
REMARK VINA RESULT:      -8.1      2.998      8.956
REMARK  Name = 
REMARK  4 active torsions:
REMARK  status: ('A' for Active; 'I' for Inactive)
REMARK    1  A    between atoms: N_6  and  C_7
REMARK    2  A    between atoms: C_10  and  S_11
REMARK    3  A    between atoms: S_11  and  N_14
REMARK    4  A    between atoms: C_18  and  C_19
REMARK                            x       y       z     vdW  Elec       q    Type
REMARK                         _______ _______ _______ _____ _____    ______ ____
ROOT
ATOM      1  S   UNL     1       1.987   4.987  20.242  0.00  0.00    +0.000 S 
ATOM      2  O   UNL     1       2.813   4.904  21.430  0.00  0.00    +0.000 OA
ATOM      3  O   UNL     1       0.669   4.396  20.213  0.00  0.00    +0.000 OA
ENDROOT
BRANCH   1   7
ATOM      4  C   UNL     1       1.434   9.459  19.255  0.00  0.00    +0.000 A 
ATOM      5  C   UNL     1       1.946   8.551  18.310  0.00  0.00    +0.000 A 
ATOM      6  C   UNL     1       2.126   7.195  18.609  0.00  0.00    +0.000 A 
ATOM      7  C   UNL     1       1.799   6.720  19.873  0.00  0.00    +0.000 A 
ATOM      8  C   UNL     1       1.233   7.585  20.814  0.00  0.00    +0.000 A 
ATOM      9  C   UNL     1       1.068   8.946  20.510  0.00  0.00    +0.000 A 
BRANCH   4  15
ATOM     10  O   UNL     1      -0.935  11.315  19.578  0.00  0.00    +0.000 OA
ATOM     11  C   UNL     1       0.141  11.615  19.082  0.00  0.00    +0.000 C 
ATOM     12  C   UNL     1       0.387  12.958  18.442  0.00  0.00    +0.000 C 
ATOM     13  C   UNL     1       1.898  13.039  18.371  0.00  0.00    +0.000 C 
ATOM     14  C   UNL     1       2.327  11.590  18.241  0.00  0.00    +0.000 C 
ATOM     15  N   UNL     1       1.308  10.845  18.949  0.00  0.00    +0.000 N 
ENDBRANCH   4  15
ENDBRANCH   1   7
BRANCH   1  16
ATOM     16  N   UNL     1       2.881   4.359  18.959  0.00  0.00    +0.000 NA
ATOM     17  C   UNL     1       2.167   3.912  17.749  0.00  0.00    +0.000 C 
ATOM     18  C   UNL     1       2.315   2.402  17.769  0.00  0.00    +0.000 C 
ATOM     19  C   UNL     1       3.668   2.153  18.417  0.00  0.00    +0.000 C 
ATOM     20  C   UNL     1       4.020   3.436  19.204  0.00  0.00    +0.000 C 
BRANCH  20  21
ATOM     21  C   UNL     1       5.278   4.067  18.665  0.00  0.00    +0.000 A 
ATOM     22  N   UNL     1       6.286   4.533  19.388  0.00  0.00    +0.000 NA
ATOM     23  N   UNL     1       7.245   5.037  18.550  0.00  0.00    +0.000 NA
ATOM     24  C   UNL     1       6.831   4.858  17.317  0.00  0.00    +0.000 A 
ATOM     25  C   UNL     1       7.420   5.157  16.059  0.00  0.00    +0.000 A 
ATOM     26  C   UNL     1       6.754   4.863  14.925  0.00  0.00    +0.000 A 
ATOM     27  C   UNL     1       5.433   4.257  14.963  0.00  0.00    +0.000 A 
ATOM     28  C   UNL     1       4.874   3.977  16.153  0.00  0.00    +0.000 A 
ATOM     29  N   UNL     1       5.574   4.261  17.327  0.00  0.00    +0.000 N 
ENDBRANCH  20  21
ENDBRANCH   1  16
TORSDOF 4
ENDMDL
MODEL 6
REMARK VINA RESULT:      -8.1      4.129      6.781
REMARK  Name = 
REMARK  4 active torsions:
REMARK  status: ('A' for Active; 'I' for Inactive)
REMARK    1  A    between atoms: N_6  and  C_7
REMARK    2  A    between atoms: C_10  and  S_11
REMARK    3  A    between atoms: S_11  and  N_14
REMARK    4  A    between atoms: C_18  and  C_19
REMARK                            x       y       z     vdW  Elec       q    Type
REMARK                         _______ _______ _______ _____ _____    ______ ____
ROOT
ATOM      1  S   UNL     1       5.048   4.334  19.420  0.00  0.00    +0.000 S 
ATOM      2  O   UNL     1       5.213   2.985  19.921  0.00  0.00    +0.000 OA
ATOM      3  O   UNL     1       5.730   5.445  20.044  0.00  0.00    +0.000 OA
ENDROOT
BRANCH   1   7
ATOM      4  C   UNL     1       6.260   4.299  14.969  0.00  0.00    +0.000 A 
ATOM      5  C   UNL     1       5.365   3.352  15.499  0.00  0.00    +0.000 A 
ATOM      6  C   UNL     1       5.002   3.352  16.852  0.00  0.00    +0.000 A 
ATOM      7  C   UNL     1       5.540   4.306  17.707  0.00  0.00    +0.000 A 
ATOM      8  C   UNL     1       6.386   5.296  17.199  0.00  0.00    +0.000 A 
ATOM      9  C   UNL     1       6.753   5.280  15.844  0.00  0.00    +0.000 A 
BRANCH   4  15
ATOM     10  O   UNL     1       8.428   5.834  13.517  0.00  0.00    +0.000 OA
ATOM     11  C   UNL     1       7.646   5.048  13.002  0.00  0.00    +0.000 C 
ATOM     12  C   UNL     1       7.587   4.831  11.511  0.00  0.00    +0.000 C 
ATOM     13  C   UNL     1       6.830   3.525  11.379  0.00  0.00    +0.000 C 
ATOM     14  C   UNL     1       5.924   3.513  12.595  0.00  0.00    +0.000 C 
ATOM     15  N   UNL     1       6.658   4.250  13.602  0.00  0.00    +0.000 N 
ENDBRANCH   4  15
ENDBRANCH   1   7
BRANCH   1  16
ATOM     16  N   UNL     1       3.397   4.667  19.397  0.00  0.00    +0.000 NA
ATOM     17  C   UNL     1       2.446   3.540  19.402  0.00  0.00    +0.000 C 
ATOM     18  C   UNL     1       1.832   3.567  18.016  0.00  0.00    +0.000 C 
ATOM     19  C   UNL     1       1.810   5.037  17.628  0.00  0.00    +0.000 C 
ATOM     20  C   UNL     1       2.849   5.743  18.531  0.00  0.00    +0.000 C 
BRANCH  20  21
ATOM     21  C   UNL     1       2.184   6.776  19.405  0.00  0.00    +0.000 A 
ATOM     22  N   UNL     1       1.742   6.582  20.639  0.00  0.00    +0.000 NA
ATOM     23  N   UNL     1       1.194   7.747  21.107  0.00  0.00    +0.000 NA
ATOM     24  C   UNL     1       1.324   8.655  20.168  0.00  0.00    +0.000 A 
ATOM     25  C   UNL     1       0.965  10.029  20.112  0.00  0.00    +0.000 A 
ATOM     26  C   UNL     1       1.216  10.738  18.994  0.00  0.00    +0.000 A 
ATOM     27  C   UNL     1       1.834  10.118  17.832  0.00  0.00    +0.000 A 
ATOM     28  C   UNL     1       2.169   8.817  17.884  0.00  0.00    +0.000 A 
ATOM     29  N   UNL     1       1.930   8.090  19.050  0.00  0.00    +0.000 N 
ENDBRANCH  20  21
ENDBRANCH   1  16
TORSDOF 4
ENDMDL
MODEL 7
REMARK VINA RESULT:      -8.1      3.377      9.376
REMARK  Name = 
REMARK  4 active torsions:
REMARK  status: ('A' for Active; 'I' for Inactive)
REMARK    1  A    between atoms: N_6  and  C_7
REMARK    2  A    between atoms: C_10  and  S_11
REMARK    3  A    between atoms: S_11  and  N_14
REMARK    4  A    between atoms: C_18  and  C_19
REMARK                            x       y       z     vdW  Elec       q    Type
REMARK                         _______ _______ _______ _____ _____    ______ ____
ROOT
ATOM      1  S   UNL     1       4.932   4.065  18.023  0.00  0.00    +0.000 S 
ATOM      2  O   UNL     1       5.222   3.447  19.301  0.00  0.00    +0.000 OA
ATOM      3  O   UNL     1       4.302   3.312  16.962  0.00  0.00    +0.000 OA
ENDROOT
BRANCH   1   7
ATOM      4  C   UNL     1       2.299   7.740  18.942  0.00  0.00    +0.000 A 
ATOM      5  C   UNL     1       2.401   6.660  19.838  0.00  0.00    +0.000 A 
ATOM      6  C   UNL     1       3.190   5.537  19.559  0.00  0.00    +0.000 A 
ATOM      7  C   UNL     1       3.894   5.473  18.362  0.00  0.00    +0.000 A 
ATOM      8  C   UNL     1       3.860   6.555  17.478  0.00  0.00    +0.000 A 
ATOM      9  C   UNL     1       3.056   7.670  17.761  0.00  0.00    +0.000 A 
BRANCH   4  15
ATOM     10  O   UNL     1       1.257   8.775  21.589  0.00  0.00    +0.000 OA
ATOM     11  C   UNL     1       0.970   9.221  20.488  0.00  0.00    +0.000 C 
ATOM     12  C   UNL     1      -0.067  10.301  20.301  0.00  0.00    +0.000 C 
ATOM     13  C   UNL     1       0.217  10.818  18.906  0.00  0.00    +0.000 C 
ATOM     14  C   UNL     1       0.783   9.609  18.185  0.00  0.00    +0.000 C 
ATOM     15  N   UNL     1       1.449   8.848  19.221  0.00  0.00    +0.000 N 
ENDBRANCH   4  15
ENDBRANCH   1   7
BRANCH   1  16
ATOM     16  N   UNL     1       6.372   4.712  17.435  0.00  0.00    +0.000 NA
ATOM     17  C   UNL     1       7.529   4.807  18.343  0.00  0.00    +0.000 C 
ATOM     18  C   UNL     1       7.690   6.297  18.583  0.00  0.00    +0.000 C 
ATOM     19  C   UNL     1       7.238   6.951  17.287  0.00  0.00    +0.000 C 
ATOM     20  C   UNL     1       6.365   5.907  16.552  0.00  0.00    +0.000 C 
BRANCH  20  21
ATOM     21  C   UNL     1       6.979   5.533  15.226  0.00  0.00    +0.000 A 
ATOM     22  N   UNL     1       8.179   5.893  14.797  0.00  0.00    +0.000 NA
ATOM     23  N   UNL     1       8.383   5.370  13.547  0.00  0.00    +0.000 NA
ATOM     24  C   UNL     1       7.318   4.673  13.227  0.00  0.00    +0.000 A 
ATOM     25  C   UNL     1       6.990   3.902  12.079  0.00  0.00    +0.000 A 
ATOM     26  C   UNL     1       5.795   3.283  12.011  0.00  0.00    +0.000 A 
ATOM     27  C   UNL     1       4.824   3.402  13.087  0.00  0.00    +0.000 A 
ATOM     28  C   UNL     1       5.132   4.134  14.171  0.00  0.00    +0.000 A 
ATOM     29  N   UNL     1       6.378   4.756  14.251  0.00  0.00    +0.000 N 
ENDBRANCH  20  21
ENDBRANCH   1  16
TORSDOF 4
ENDMDL
MODEL 8
REMARK VINA RESULT:      -8.0      3.075      8.806
REMARK  Name = 
REMARK  4 active torsions:
REMARK  status: ('A' for Active; 'I' for Inactive)
REMARK    1  A    between atoms: N_6  and  C_7
REMARK    2  A    between atoms: C_10  and  S_11
REMARK    3  A    between atoms: S_11  and  N_14
REMARK    4  A    between atoms: C_18  and  C_19
REMARK                            x       y       z     vdW  Elec       q    Type
REMARK                         _______ _______ _______ _____ _____    ______ ____
ROOT
ATOM      1  S   UNL     1       1.837   4.712  20.232  0.00  0.00    +0.000 S 
ATOM      2  O   UNL     1       2.830   4.475  21.261  0.00  0.00    +0.000 OA
ATOM      3  O   UNL     1       0.535   4.089  20.301  0.00  0.00    +0.000 OA
ENDROOT
BRANCH   1   7
ATOM      4  C   UNL     1       1.231   9.284  20.113  0.00  0.00    +0.000 A 
ATOM      5  C   UNL     1       0.802   8.510  21.206  0.00  0.00    +0.000 A 
ATOM      6  C   UNL     1       0.974   7.120  21.242  0.00  0.00    +0.000 A 
ATOM      7  C   UNL     1       1.579   6.475  20.171  0.00  0.00    +0.000 A 
ATOM      8  C   UNL     1       2.068   7.223  19.096  0.00  0.00    +0.000 A 
ATOM      9  C   UNL     1       1.880   8.614  19.064  0.00  0.00    +0.000 A 
BRANCH   4  15
ATOM     10  O   UNL     1       0.202  11.150  22.263  0.00  0.00    +0.000 OA
ATOM     11  C   UNL     1       0.462  11.466  21.111  0.00  0.00    +0.000 C 
ATOM     12  C   UNL     1       0.178  12.845  20.571  0.00  0.00    +0.000 C 
ATOM     13  C   UNL     1       1.023  12.908  19.315  0.00  0.00    +0.000 C 
ATOM     14  C   UNL     1       1.082  11.465  18.852  0.00  0.00    +0.000 C 
ATOM     15  N   UNL     1       0.999  10.689  20.071  0.00  0.00    +0.000 N 
ENDBRANCH   4  15
ENDBRANCH   1   7
BRANCH   1  16
ATOM     16  N   UNL     1       2.539   4.319  18.752  0.00  0.00    +0.000 NA
ATOM     17  C   UNL     1       1.741   3.563  17.769  0.00  0.00    +0.000 C 
ATOM     18  C   UNL     1       2.400   2.197  17.731  0.00  0.00    +0.000 C 
ATOM     19  C   UNL     1       3.873   2.467  17.996  0.00  0.00    +0.000 C 
ATOM     20  C   UNL     1       3.948   3.853  18.677  0.00  0.00    +0.000 C 
BRANCH  20  21
ATOM     21  C   UNL     1       4.733   4.824  17.831  0.00  0.00    +0.000 A 
ATOM     22  N   UNL     1       4.418   5.220  16.607  0.00  0.00    +0.000 NA
ATOM     23  N   UNL     1       5.371   6.096  16.159  0.00  0.00    +0.000 NA
ATOM     24  C   UNL     1       6.252   6.251  17.120  0.00  0.00    +0.000 A 
ATOM     25  C   UNL     1       7.424   7.050  17.222  0.00  0.00    +0.000 A 
ATOM     26  C   UNL     1       8.162   7.010  18.348  0.00  0.00    +0.000 A 
ATOM     27  C   UNL     1       7.792   6.148  19.460  0.00  0.00    +0.000 A 
ATOM     28  C   UNL     1       6.687   5.390  19.363  0.00  0.00    +0.000 A 
ATOM     29  N   UNL     1       5.910   5.450  18.205  0.00  0.00    +0.000 N 
ENDBRANCH  20  21
ENDBRANCH   1  16
TORSDOF 4
ENDMDL
MODEL 9
REMARK VINA RESULT:      -8.0      3.701      9.417
REMARK  Name = 
REMARK  4 active torsions:
REMARK  status: ('A' for Active; 'I' for Inactive)
REMARK    1  A    between atoms: N_6  and  C_7
REMARK    2  A    between atoms: C_10  and  S_11
REMARK    3  A    between atoms: S_11  and  N_14
REMARK    4  A    between atoms: C_18  and  C_19
REMARK                            x       y       z     vdW  Elec       q    Type
REMARK                         _______ _______ _______ _____ _____    ______ ____
ROOT
ATOM      1  S   UNL     1       4.888   3.952  17.984  0.00  0.00    +0.000 S 
ATOM      2  O   UNL     1       5.235   3.178  19.159  0.00  0.00    +0.000 OA
ATOM      3  O   UNL     1       4.201   3.341  16.870  0.00  0.00    +0.000 OA
ENDROOT
BRANCH   1   7
ATOM      4  C   UNL     1       2.217   7.432  19.414  0.00  0.00    +0.000 A 
ATOM      5  C   UNL     1       2.732   7.384  18.105  0.00  0.00    +0.000 A 
ATOM      6  C   UNL     1       3.552   6.335  17.670  0.00  0.00    +0.000 A 
ATOM      7  C   UNL     1       3.880   5.309  18.548  0.00  0.00    +0.000 A 
ATOM      8  C   UNL     1       3.337   5.298  19.836  0.00  0.00    +0.000 A 
ATOM      9  C   UNL     1       2.526   6.360  20.267  0.00  0.00    +0.000 A 
BRANCH   4  15
ATOM     10  O   UNL     1       1.280   9.880  17.900  0.00  0.00    +0.000 OA
ATOM     11  C   UNL     1       1.089   9.661  19.087  0.00  0.00    +0.000 C 
ATOM     12  C   UNL     1       0.445  10.675  19.999  0.00  0.00    +0.000 C 
ATOM     13  C   UNL     1       0.032   9.849  21.201  0.00  0.00    +0.000 C 
ATOM     14  C   UNL     1       1.061   8.735  21.238  0.00  0.00    +0.000 C 
ATOM     15  N   UNL     1       1.429   8.534  19.853  0.00  0.00    +0.000 N 
ENDBRANCH   4  15
ENDBRANCH   1   7
BRANCH   1  16
ATOM     16  N   UNL     1       6.304   4.665  17.412  0.00  0.00    +0.000 NA
ATOM     17  C   UNL     1       7.441   4.822  18.337  0.00  0.00    +0.000 C 
ATOM     18  C   UNL     1       7.526   6.319  18.567  0.00  0.00    +0.000 C 
ATOM     19  C   UNL     1       7.063   6.941  17.259  0.00  0.00    +0.000 C 
ATOM     20  C   UNL     1       6.252   5.852  16.520  0.00  0.00    +0.000 C 
BRANCH  20  21
ATOM     21  C   UNL     1       6.903   5.498  15.207  0.00  0.00    +0.000 A 
ATOM     22  N   UNL     1       8.113   5.868  14.814  0.00  0.00    +0.000 NA
ATOM     23  N   UNL     1       8.353   5.364  13.564  0.00  0.00    +0.000 NA
ATOM     24  C   UNL     1       7.299   4.668  13.206  0.00  0.00    +0.000 A 
ATOM     25  C   UNL     1       7.005   3.912  12.038  0.00  0.00    +0.000 A 
ATOM     26  C   UNL     1       5.815   3.290  11.929  0.00  0.00    +0.000 A 
ATOM     27  C   UNL     1       4.815   3.390  12.980  0.00  0.00    +0.000 A 
ATOM     28  C   UNL     1       5.090   4.108  14.082  0.00  0.00    +0.000 A 
ATOM     29  N   UNL     1       6.332   4.733  14.204  0.00  0.00    +0.000 N 
ENDBRANCH  20  21
ENDBRANCH   1  16
TORSDOF 4
ENDMDL
