MODEL 1
REMARK VINA RESULT:      -8.9      0.000      0.000
REMARK  Name = 
REMARK  7 active torsions:
REMARK  status: ('A' for Active; 'I' for Inactive)
REMARK    1  A    between atoms: C_1  and  C_2
REMARK    2  A    between atoms: C_2  and  C_3
REMARK    3  A    between atoms: C_2  and  C_4
REMARK    4  A    between atoms: C_5  and  C_6
REMARK    5  A    between atoms: N_8  and  C_9
REMARK    6  A    between atoms: C_9  and  C_10
REMARK    7  A    between atoms: C_14  and  C_15
REMARK                            x       y       z     vdW  Elec       q    Type
REMARK                         _______ _______ _______ _____ _____    ______ ____
ROOT
ATOM      1  C   UNL     1       7.649   7.367  17.510  0.00  0.00    +0.000 C 
ATOM      2  O   UNL     1       8.090   7.212  16.376  0.00  0.00    +0.000 OA
ATOM      3  N   UNL     1       7.885   8.525  18.224  0.00  0.00    +0.000 N 
ATOM      4  H   UNL     1       7.474   8.674  19.132  0.00  0.00    +0.000 HD
ENDROOT
BRANCH   1   6
ATOM      5  C   UNL     1       5.569   5.917  17.945  0.00  0.00    +0.000 A 
ATOM      6  C   UNL     1       6.874   6.349  18.209  0.00  0.00    +0.000 A 
ATOM      7  C   UNL     1       7.259   5.615  19.345  0.00  0.00    +0.000 A 
ATOM      8  N   UNL     1       6.339   4.746  19.747  0.00  0.00    +0.000 NA
ATOM      9  N   UNL     1       5.361   4.818  18.795  0.00  0.00    +0.000 N 
ATOM     10  C   UNL     1       4.360   3.784  18.741  0.00  0.00    +0.000 A 
ATOM     11  C   UNL     1       4.321   2.833  19.765  0.00  0.00    +0.000 A 
ATOM     12  C   UNL     1       3.419   1.774  19.672  0.00  0.00    +0.000 A 
ATOM     13  C   UNL     1       2.578   1.688  18.571  0.00  0.00    +0.000 A 
ATOM     14  C   UNL     1       2.669   2.674  17.605  0.00  0.00    +0.000 A 
ATOM     15  N   UNL     1       3.536   3.706  17.665  0.00  0.00    +0.000 NA
BRANCH   5  17
ATOM     16  C   UNL     1       3.806   7.674  17.456  0.00  0.00    +0.000 C 
ATOM     17  C   UNL     1       4.529   6.420  16.957  0.00  0.00    +0.000 C 
ATOM     18  C   UNL     1       5.100   6.601  15.550  0.00  0.00    +0.000 C 
ENDBRANCH   5  17
ENDBRANCH   1   6
BRANCH   3  19
ATOM     19  C   UNL     1       8.585   9.623  17.601  0.00  0.00    +0.000 C 
BRANCH  19  20
ATOM     20  C   UNL     1       8.980  10.709  18.569  0.00  0.00    +0.000 A 
ATOM     21  C   UNL     1       9.389  10.408  19.871  0.00  0.00    +0.000 A 
ATOM     22  C   UNL     1       9.896  11.409  20.698  0.00  0.00    +0.000 A 
ATOM     23  C   UNL     1      10.044  12.711  20.213  0.00  0.00    +0.000 A 
ATOM     24  C   UNL     1       9.686  13.041  18.894  0.00  0.00    +0.000 A 
ATOM     25  C   UNL     1       9.105  12.028  18.108  0.00  0.00    +0.000 A 
BRANCH  24  26
ATOM     26  C   UNL     1      10.011  14.350  18.289  0.00  0.00    +0.000 A 
ATOM     27  C   UNL     1      11.098  14.516  17.430  0.00  0.00    +0.000 A 
ATOM     28  C   UNL     1      11.269  15.729  16.767  0.00  0.00    +0.000 A 
ATOM     29  C   UNL     1      10.357  16.752  16.976  0.00  0.00    +0.000 A 
ATOM     30  C   UNL     1       9.313  16.520  17.854  0.00  0.00    +0.000 A 
ATOM     31  N   UNL     1       9.120  15.352  18.507  0.00  0.00    +0.000 NA
ENDBRANCH  24  26
ENDBRANCH  19  20
ENDBRANCH   3  19
TORSDOF 5
ENDMDL
MODEL 2
REMARK VINA RESULT:      -8.9      2.188      3.175
REMARK  Name = 
REMARK  7 active torsions:
REMARK  status: ('A' for Active; 'I' for Inactive)
REMARK    1  A    between atoms: C_1  and  C_2
REMARK    2  A    between atoms: C_2  and  C_3
REMARK    3  A    between atoms: C_2  and  C_4
REMARK    4  A    between atoms: C_5  and  C_6
REMARK    5  A    between atoms: N_8  and  C_9
REMARK    6  A    between atoms: C_9  and  C_10
REMARK    7  A    between atoms: C_14  and  C_15
REMARK                            x       y       z     vdW  Elec       q    Type
REMARK                         _______ _______ _______ _____ _____    ______ ____
ROOT
ATOM      1  C   UNL     1       7.674   7.504  17.580  0.00  0.00    +0.000 C 
ATOM      2  O   UNL     1       8.134   7.387  16.449  0.00  0.00    +0.000 OA
ATOM      3  N   UNL     1       7.861   8.655  18.319  0.00  0.00    +0.000 N 
ATOM      4  H   UNL     1       7.433   8.772  19.224  0.00  0.00    +0.000 HD
ENDROOT
BRANCH   1   6
ATOM      5  C   UNL     1       5.635   5.984  17.970  0.00  0.00    +0.000 A 
ATOM      6  C   UNL     1       6.927   6.445  18.249  0.00  0.00    +0.000 A 
ATOM      7  C   UNL     1       7.332   5.692  19.366  0.00  0.00    +0.000 A 
ATOM      8  N   UNL     1       6.436   4.787  19.742  0.00  0.00    +0.000 NA
ATOM      9  N   UNL     1       5.457   4.857  18.790  0.00  0.00    +0.000 N 
ATOM     10  C   UNL     1       4.487   3.796  18.706  0.00  0.00    +0.000 A 
ATOM     11  C   UNL     1       4.473   2.818  19.703  0.00  0.00    +0.000 A 
ATOM     12  C   UNL     1       3.602   1.736  19.580  0.00  0.00    +0.000 A 
ATOM     13  C   UNL     1       2.766   1.657  18.475  0.00  0.00    +0.000 A 
ATOM     14  C   UNL     1       2.829   2.671  17.537  0.00  0.00    +0.000 A 
ATOM     15  N   UNL     1       3.667   3.725  17.626  0.00  0.00    +0.000 NA
BRANCH   5  17
ATOM     16  C   UNL     1       3.920   7.782  17.464  0.00  0.00    +0.000 C 
ATOM     17  C   UNL     1       4.583   6.484  16.995  0.00  0.00    +0.000 C 
ATOM     18  C   UNL     1       5.116   6.589  15.565  0.00  0.00    +0.000 C 
ENDBRANCH   5  17
ENDBRANCH   1   6
BRANCH   3  19
ATOM     19  C   UNL     1       8.528   9.790  17.727  0.00  0.00    +0.000 C 
BRANCH  19  20
ATOM     20  C   UNL     1       9.447  10.510  18.679  0.00  0.00    +0.000 A 
ATOM     21  C   UNL     1      10.674  11.028  18.254  0.00  0.00    +0.000 A 
ATOM     22  C   UNL     1      11.436  11.822  19.109  0.00  0.00    +0.000 A 
ATOM     23  C   UNL     1      10.956  12.143  20.382  0.00  0.00    +0.000 A 
ATOM     24  C   UNL     1       9.707  11.677  20.827  0.00  0.00    +0.000 A 
ATOM     25  C   UNL     1       8.994  10.815  19.972  0.00  0.00    +0.000 A 
BRANCH  24  26
ATOM     26  C   UNL     1       9.083  12.156  22.078  0.00  0.00    +0.000 A 
ATOM     27  C   UNL     1       9.128  13.498  22.458  0.00  0.00    +0.000 A 
ATOM     28  C   UNL     1       8.394  13.923  23.564  0.00  0.00    +0.000 A 
ATOM     29  C   UNL     1       7.635  13.002  24.269  0.00  0.00    +0.000 A 
ATOM     30  C   UNL     1       7.652  11.686  23.844  0.00  0.00    +0.000 A 
ATOM     31  N   UNL     1       8.350  11.247  22.773  0.00  0.00    +0.000 NA
ENDBRANCH  24  26
ENDBRANCH  19  20
ENDBRANCH   3  19
TORSDOF 5
ENDMDL
MODEL 3
REMARK VINA RESULT:      -8.7      7.681     11.627
REMARK  Name = 
REMARK  7 active torsions:
REMARK  status: ('A' for Active; 'I' for Inactive)
REMARK    1  A    between atoms: C_1  and  C_2
REMARK    2  A    between atoms: C_2  and  C_3
REMARK    3  A    between atoms: C_2  and  C_4
REMARK    4  A    between atoms: C_5  and  C_6
REMARK    5  A    between atoms: N_8  and  C_9
REMARK    6  A    between atoms: C_9  and  C_10
REMARK    7  A    between atoms: C_14  and  C_15
REMARK                            x       y       z     vdW  Elec       q    Type
REMARK                         _______ _______ _______ _____ _____    ______ ____
ROOT
ATOM      1  C   UNL     1      -0.428  11.383  21.400  0.00  0.00    +0.000 C 
ATOM      2  O   UNL     1       0.548  12.059  21.710  0.00  0.00    +0.000 OA
ATOM      3  N   UNL     1      -0.327  10.021  21.199  0.00  0.00    +0.000 N 
ATOM      4  H   UNL     1      -1.140   9.458  21.001  0.00  0.00    +0.000 HD
ENDROOT
BRANCH   1   6
ATOM      5  C   UNL     1      -2.426  12.160  19.978  0.00  0.00    +0.000 A 
ATOM      6  C   UNL     1      -1.754  11.950  21.188  0.00  0.00    +0.000 A 
ATOM      7  C   UNL     1      -2.627  12.465  22.164  0.00  0.00    +0.000 A 
ATOM      8  N   UNL     1      -3.775  12.903  21.662  0.00  0.00    +0.000 NA
ATOM      9  N   UNL     1      -3.719  12.574  20.337  0.00  0.00    +0.000 N 
ATOM     10  C   UNL     1      -4.928  12.614  19.555  0.00  0.00    +0.000 A 
ATOM     11  C   UNL     1      -6.084  13.148  20.131  0.00  0.00    +0.000 A 
ATOM     12  C   UNL     1      -7.280  13.103  19.417  0.00  0.00    +0.000 A 
ATOM     13  C   UNL     1      -7.298  12.535  18.150  0.00  0.00    +0.000 A 
ATOM     14  C   UNL     1      -6.111  12.038  17.644  0.00  0.00    +0.000 A 
ATOM     15  N   UNL     1      -4.940  12.062  18.315  0.00  0.00    +0.000 NA
BRANCH   5  17
ATOM     16  C   UNL     1      -0.733  12.810  18.204  0.00  0.00    +0.000 C 
ATOM     17  C   UNL     1      -1.975  11.978  18.539  0.00  0.00    +0.000 C 
ATOM     18  C   UNL     1      -1.804  10.506  18.162  0.00  0.00    +0.000 C 
ENDBRANCH   5  17
ENDBRANCH   1   6
BRANCH   3  19
ATOM     19  C   UNL     1       0.926   9.348  21.447  0.00  0.00    +0.000 C 
BRANCH  19  20
ATOM     20  C   UNL     1       1.387   8.495  20.294  0.00  0.00    +0.000 A 
ATOM     21  C   UNL     1       1.650   9.050  19.038  0.00  0.00    +0.000 A 
ATOM     22  C   UNL     1       2.222   8.273  18.032  0.00  0.00    +0.000 A 
ATOM     23  C   UNL     1       2.579   6.946  18.288  0.00  0.00    +0.000 A 
ATOM     24  C   UNL     1       2.371   6.368  19.552  0.00  0.00    +0.000 A 
ATOM     25  C   UNL     1       1.722   7.151  20.524  0.00  0.00    +0.000 A 
BRANCH  24  26
ATOM     26  C   UNL     1       2.914   5.042  19.915  0.00  0.00    +0.000 A 
ATOM     27  C   UNL     1       2.276   4.211  20.837  0.00  0.00    +0.000 A 
ATOM     28  C   UNL     1       2.743   2.912  21.028  0.00  0.00    +0.000 A 
ATOM     29  C   UNL     1       3.837   2.470  20.299  0.00  0.00    +0.000 A 
ATOM     30  C   UNL     1       4.428   3.355  19.415  0.00  0.00    +0.000 A 
ATOM     31  N   UNL     1       3.994   4.618  19.206  0.00  0.00    +0.000 NA
ENDBRANCH  24  26
ENDBRANCH  19  20
ENDBRANCH   3  19
TORSDOF 5
ENDMDL
MODEL 4
REMARK VINA RESULT:      -8.5      6.187      9.343
REMARK  Name = 
REMARK  7 active torsions:
REMARK  status: ('A' for Active; 'I' for Inactive)
REMARK    1  A    between atoms: C_1  and  C_2
REMARK    2  A    between atoms: C_2  and  C_3
REMARK    3  A    between atoms: C_2  and  C_4
REMARK    4  A    between atoms: C_5  and  C_6
REMARK    5  A    between atoms: N_8  and  C_9
REMARK    6  A    between atoms: C_9  and  C_10
REMARK    7  A    between atoms: C_14  and  C_15
REMARK                            x       y       z     vdW  Elec       q    Type
REMARK                         _______ _______ _______ _____ _____    ______ ____
ROOT
ATOM      1  C   UNL     1       2.140   7.398  19.391  0.00  0.00    +0.000 C 
ATOM      2  O   UNL     1       1.814   6.714  20.356  0.00  0.00    +0.000 OA
ATOM      3  N   UNL     1       3.052   6.944  18.460  0.00  0.00    +0.000 N 
ATOM      4  H   UNL     1       3.275   7.483  17.638  0.00  0.00    +0.000 HD
ENDROOT
BRANCH   1   6
ATOM      5  C   UNL     1       0.988   9.597  20.068  0.00  0.00    +0.000 A 
ATOM      6  C   UNL     1       1.628   8.744  19.161  0.00  0.00    +0.000 A 
ATOM      7  C   UNL     1       1.618   9.456  17.947  0.00  0.00    +0.000 A 
ATOM      8  N   UNL     1       1.092  10.670  18.055  0.00  0.00    +0.000 NA
ATOM      9  N   UNL     1       0.846  10.820  19.392  0.00  0.00    +0.000 N 
ATOM     10  C   UNL     1       0.573  12.136  19.909  0.00  0.00    +0.000 A 
ATOM     11  C   UNL     1       0.401  13.190  19.007  0.00  0.00    +0.000 A 
ATOM     12  C   UNL     1       0.232  14.483  19.500  0.00  0.00    +0.000 A 
ATOM     13  C   UNL     1       0.233  14.696  20.872  0.00  0.00    +0.000 A 
ATOM     14  C   UNL     1       0.396  13.600  21.700  0.00  0.00    +0.000 A 
ATOM     15  N   UNL     1       0.569  12.340  21.251  0.00  0.00    +0.000 NA
BRANCH   5  17
ATOM     16  C   UNL     1      -0.566   8.315  21.609  0.00  0.00    +0.000 C 
ATOM     17  C   UNL     1       0.534   9.375  21.500  0.00  0.00    +0.000 C 
ATOM     18  C   UNL     1       1.703   9.096  22.446  0.00  0.00    +0.000 C 
ENDBRANCH   5  17
ENDBRANCH   1   6
BRANCH   3  19
ATOM     19  C   UNL     1       3.571   5.600  18.557  0.00  0.00    +0.000 C 
BRANCH  19  20
ATOM     20  C   UNL     1       5.006   5.478  18.116  0.00  0.00    +0.000 A 
ATOM     21  C   UNL     1       6.040   5.309  19.042  0.00  0.00    +0.000 A 
ATOM     22  C   UNL     1       7.337   5.043  18.606  0.00  0.00    +0.000 A 
ATOM     23  C   UNL     1       7.603   4.897  17.242  0.00  0.00    +0.000 A 
ATOM     24  C   UNL     1       6.580   5.015  16.285  0.00  0.00    +0.000 A 
ATOM     25  C   UNL     1       5.296   5.359  16.747  0.00  0.00    +0.000 A 
BRANCH  24  26
ATOM     26  C   UNL     1       6.784   4.672  14.862  0.00  0.00    +0.000 A 
ATOM     27  C   UNL     1       5.955   3.769  14.195  0.00  0.00    +0.000 A 
ATOM     28  C   UNL     1       6.094   3.598  12.819  0.00  0.00    +0.000 A 
ATOM     29  C   UNL     1       7.057   4.327  12.138  0.00  0.00    +0.000 A 
ATOM     30  C   UNL     1       7.854   5.191  12.869  0.00  0.00    +0.000 A 
ATOM     31  N   UNL     1       7.738   5.380  14.202  0.00  0.00    +0.000 NA
ENDBRANCH  24  26
ENDBRANCH  19  20
ENDBRANCH   3  19
TORSDOF 5
ENDMDL
MODEL 5
REMARK VINA RESULT:      -8.4      6.941     11.349
REMARK  Name = 
REMARK  7 active torsions:
REMARK  status: ('A' for Active; 'I' for Inactive)
REMARK    1  A    between atoms: C_1  and  C_2
REMARK    2  A    between atoms: C_2  and  C_3
REMARK    3  A    between atoms: C_2  and  C_4
REMARK    4  A    between atoms: C_5  and  C_6
REMARK    5  A    between atoms: N_8  and  C_9
REMARK    6  A    between atoms: C_9  and  C_10
REMARK    7  A    between atoms: C_14  and  C_15
REMARK                            x       y       z     vdW  Elec       q    Type
REMARK                         _______ _______ _______ _____ _____    ______ ____
ROOT
ATOM      1  C   UNL     1       0.263  10.639  18.171  0.00  0.00    +0.000 C 
ATOM      2  O   UNL     1       0.889  11.628  18.537  0.00  0.00    +0.000 OA
ATOM      3  N   UNL     1       0.906   9.484  17.772  0.00  0.00    +0.000 N 
ATOM      4  H   UNL     1       0.390   8.654  17.527  0.00  0.00    +0.000 HD
ENDROOT
BRANCH   1   6
ATOM      5  C   UNL     1      -2.124  11.205  18.948  0.00  0.00    +0.000 A 
ATOM      6  C   UNL     1      -1.193  10.603  18.093  0.00  0.00    +0.000 A 
ATOM      7  C   UNL     1      -1.980   9.899  17.164  0.00  0.00    +0.000 A 
ATOM      8  N   UNL     1      -3.284  10.072  17.342  0.00  0.00    +0.000 NA
ATOM      9  N   UNL     1      -3.374  11.000  18.342  0.00  0.00    +0.000 N 
ATOM     10  C   UNL     1      -4.633  11.658  18.573  0.00  0.00    +0.000 A 
ATOM     11  C   UNL     1      -5.763  11.210  17.884  0.00  0.00    +0.000 A 
ATOM     12  C   UNL     1      -6.964  11.902  18.028  0.00  0.00    +0.000 A 
ATOM     13  C   UNL     1      -7.015  13.015  18.856  0.00  0.00    +0.000 A 
ATOM     14  C   UNL     1      -5.858  13.390  19.514  0.00  0.00    +0.000 A 
ATOM     15  N   UNL     1      -4.680  12.744  19.387  0.00  0.00    +0.000 NA
BRANCH   5  17
ATOM     16  C   UNL     1      -1.110  11.192  21.274  0.00  0.00    +0.000 C 
ATOM     17  C   UNL     1      -1.939  11.970  20.248  0.00  0.00    +0.000 C 
ATOM     18  C   UNL     1      -1.402  13.384  20.021  0.00  0.00    +0.000 C 
ENDBRANCH   5  17
ENDBRANCH   1   6
BRANCH   3  19
ATOM     19  C   UNL     1       2.343   9.391  17.873  0.00  0.00    +0.000 C 
BRANCH  19  20
ATOM     20  C   UNL     1       2.863   7.982  17.744  0.00  0.00    +0.000 A 
ATOM     21  C   UNL     1       4.078   7.711  17.107  0.00  0.00    +0.000 A 
ATOM     22  C   UNL     1       4.614   6.425  17.135  0.00  0.00    +0.000 A 
ATOM     23  C   UNL     1       3.963   5.408  17.838  0.00  0.00    +0.000 A 
ATOM     24  C   UNL     1       2.763   5.655  18.528  0.00  0.00    +0.000 A 
ATOM     25  C   UNL     1       2.205   6.943  18.419  0.00  0.00    +0.000 A 
BRANCH  24  26
ATOM     26  C   UNL     1       2.155   4.663  19.440  0.00  0.00    +0.000 A 
ATOM     27  C   UNL     1       1.333   3.637  18.973  0.00  0.00    +0.000 A 
ATOM     28  C   UNL     1       0.914   2.640  19.851  0.00  0.00    +0.000 A 
ATOM     29  C   UNL     1       1.318   2.689  21.177  0.00  0.00    +0.000 A 
ATOM     30  C   UNL     1       2.119   3.745  21.572  0.00  0.00    +0.000 A 
ATOM     31  N   UNL     1       2.545   4.722  20.741  0.00  0.00    +0.000 NA
ENDBRANCH  24  26
ENDBRANCH  19  20
ENDBRANCH   3  19
TORSDOF 5
ENDMDL
MODEL 6
REMARK VINA RESULT:      -8.4      7.449     11.533
REMARK  Name = 
REMARK  7 active torsions:
REMARK  status: ('A' for Active; 'I' for Inactive)
REMARK    1  A    between atoms: C_1  and  C_2
REMARK    2  A    between atoms: C_2  and  C_3
REMARK    3  A    between atoms: C_2  and  C_4
REMARK    4  A    between atoms: C_5  and  C_6
REMARK    5  A    between atoms: N_8  and  C_9
REMARK    6  A    between atoms: C_9  and  C_10
REMARK    7  A    between atoms: C_14  and  C_15
REMARK                            x       y       z     vdW  Elec       q    Type
REMARK                         _______ _______ _______ _____ _____    ______ ____
ROOT
ATOM      1  C   UNL     1       0.235  10.757  21.586  0.00  0.00    +0.000 C 
ATOM      2  O   UNL     1       1.318  11.317  21.458  0.00  0.00    +0.000 OA
ATOM      3  N   UNL     1       0.133   9.380  21.612  0.00  0.00    +0.000 N 
ATOM      4  H   UNL     1      -0.751   8.923  21.775  0.00  0.00    +0.000 HD
ENDROOT
BRANCH   1   6
ATOM      5  C   UNL     1      -1.849  11.944  20.653  0.00  0.00    +0.000 A 
ATOM      6  C   UNL     1      -1.028  11.480  21.688  0.00  0.00    +0.000 A 
ATOM      7  C   UNL     1      -1.666  11.918  22.862  0.00  0.00    +0.000 A 
ATOM      8  N   UNL     1      -2.816  12.543  22.633  0.00  0.00    +0.000 NA
ATOM      9  N   UNL     1      -3.008  12.423  21.284  0.00  0.00    +0.000 N 
ATOM     10  C   UNL     1      -4.310  12.706  20.737  0.00  0.00    +0.000 A 
ATOM     11  C   UNL     1      -5.286  13.255  21.573  0.00  0.00    +0.000 A 
ATOM     12  C   UNL     1      -6.575  13.443  21.077  0.00  0.00    +0.000 A 
ATOM     13  C   UNL     1      -6.861  13.087  19.766  0.00  0.00    +0.000 A 
ATOM     14  C   UNL     1      -5.839  12.561  18.998  0.00  0.00    +0.000 A 
ATOM     15  N   UNL     1      -4.584  12.361  19.453  0.00  0.00    +0.000 NA
BRANCH   5  17
ATOM     16  C   UNL     1      -0.535  12.896  18.703  0.00  0.00    +0.000 C 
ATOM     17  C   UNL     1      -1.654  11.948  19.147  0.00  0.00    +0.000 C 
ATOM     18  C   UNL     1      -1.480  10.540  18.577  0.00  0.00    +0.000 C 
ENDBRANCH   5  17
ENDBRANCH   1   6
BRANCH   3  19
ATOM     19  C   UNL     1       1.327   8.570  21.585  0.00  0.00    +0.000 C 
BRANCH  19  20
ATOM     20  C   UNL     1       1.613   7.968  20.234  0.00  0.00    +0.000 A 
ATOM     21  C   UNL     1       1.873   8.772  19.120  0.00  0.00    +0.000 A 
ATOM     22  C   UNL     1       2.286   8.197  17.920  0.00  0.00    +0.000 A 
ATOM     23  C   UNL     1       2.488   6.816  17.836  0.00  0.00    +0.000 A 
ATOM     24  C   UNL     1       2.280   5.982  18.948  0.00  0.00    +0.000 A 
ATOM     25  C   UNL     1       1.790   6.580  20.124  0.00  0.00    +0.000 A 
BRANCH  24  26
ATOM     26  C   UNL     1       2.673   4.557  18.954  0.00  0.00    +0.000 A 
ATOM     27  C   UNL     1       2.009   3.606  18.176  0.00  0.00    +0.000 A 
ATOM     28  C   UNL     1       2.515   2.310  18.099  0.00  0.00    +0.000 A 
ATOM     29  C   UNL     1       3.667   1.988  18.800  0.00  0.00    +0.000 A 
ATOM     30  C   UNL     1       4.260   2.977  19.563  0.00  0.00    +0.000 A 
ATOM     31  N   UNL     1       3.796   4.243  19.652  0.00  0.00    +0.000 NA
ENDBRANCH  24  26
ENDBRANCH  19  20
ENDBRANCH   3  19
TORSDOF 5
ENDMDL
MODEL 7
REMARK VINA RESULT:      -8.4      7.460     10.951
REMARK  Name = 
REMARK  7 active torsions:
REMARK  status: ('A' for Active; 'I' for Inactive)
REMARK    1  A    between atoms: C_1  and  C_2
REMARK    2  A    between atoms: C_2  and  C_3
REMARK    3  A    between atoms: C_2  and  C_4
REMARK    4  A    between atoms: C_5  and  C_6
REMARK    5  A    between atoms: N_8  and  C_9
REMARK    6  A    between atoms: C_9  and  C_10
REMARK    7  A    between atoms: C_14  and  C_15
REMARK                            x       y       z     vdW  Elec       q    Type
REMARK                         _______ _______ _______ _____ _____    ______ ____
ROOT
ATOM      1  C   UNL     1       1.091  10.436  18.828  0.00  0.00    +0.000 C 
ATOM      2  O   UNL     1       1.737  11.467  18.983  0.00  0.00    +0.000 OA
ATOM      3  N   UNL     1      -0.284  10.460  18.701  0.00  0.00    +0.000 N 
ATOM      4  H   UNL     1      -0.808   9.619  18.515  0.00  0.00    +0.000 HD
ENDROOT
BRANCH   1   6
ATOM      5  C   UNL     1       1.684   8.123  19.786  0.00  0.00    +0.000 A 
ATOM      6  C   UNL     1       1.699   9.112  18.794  0.00  0.00    +0.000 A 
ATOM      7  C   UNL     1       2.489   8.562  17.768  0.00  0.00    +0.000 A 
ATOM      8  N   UNL     1       2.893   7.323  18.022  0.00  0.00    +0.000 NA
ATOM      9  N   UNL     1       2.270   6.992  19.194  0.00  0.00    +0.000 N 
ATOM     10  C   UNL     1       2.229   5.611  19.598  0.00  0.00    +0.000 A 
ATOM     11  C   UNL     1       2.969   4.675  18.870  0.00  0.00    +0.000 A 
ATOM     12  C   UNL     1       2.860   3.324  19.194  0.00  0.00    +0.000 A 
ATOM     13  C   UNL     1       2.024   2.937  20.233  0.00  0.00    +0.000 A 
ATOM     14  C   UNL     1       1.333   3.922  20.914  0.00  0.00    +0.000 A 
ATOM     15  N   UNL     1       1.414   5.237  20.617  0.00  0.00    +0.000 NA
BRANCH   5  17
ATOM     16  C   UNL     1       1.777   9.248  22.058  0.00  0.00    +0.000 C 
ATOM     17  C   UNL     1       1.147   8.141  21.207  0.00  0.00    +0.000 C 
ATOM     18  C   UNL     1      -0.381   8.172  21.254  0.00  0.00    +0.000 C 
ENDBRANCH   5  17
ENDBRANCH   1   6
BRANCH   3  19
ATOM     19  C   UNL     1      -0.980  11.723  18.654  0.00  0.00    +0.000 C 
BRANCH  19  20
ATOM     20  C   UNL     1      -2.357  11.628  18.049  0.00  0.00    +0.000 A 
ATOM     21  C   UNL     1      -2.547  11.162  16.745  0.00  0.00    +0.000 A 
ATOM     22  C   UNL     1      -3.835  10.936  16.261  0.00  0.00    +0.000 A 
ATOM     23  C   UNL     1      -4.941  11.129  17.092  0.00  0.00    +0.000 A 
ATOM     24  C   UNL     1      -4.785  11.553  18.423  0.00  0.00    +0.000 A 
ATOM     25  C   UNL     1      -3.481  11.847  18.861  0.00  0.00    +0.000 A 
BRANCH  24  26
ATOM     26  C   UNL     1      -5.908  11.575  19.384  0.00  0.00    +0.000 A 
ATOM     27  C   UNL     1      -6.759  10.481  19.550  0.00  0.00    +0.000 A 
ATOM     28  C   UNL     1      -7.703  10.495  20.575  0.00  0.00    +0.000 A 
ATOM     29  C   UNL     1      -7.782  11.600  21.409  0.00  0.00    +0.000 A 
ATOM     30  C   UNL     1      -6.918  12.654  21.173  0.00  0.00    +0.000 A 
ATOM     31  N   UNL     1      -5.990  12.666  20.191  0.00  0.00    +0.000 NA
ENDBRANCH  24  26
ENDBRANCH  19  20
ENDBRANCH   3  19
TORSDOF 5
ENDMDL
MODEL 8
REMARK VINA RESULT:      -8.4      6.947     10.254
REMARK  Name = 
REMARK  7 active torsions:
REMARK  status: ('A' for Active; 'I' for Inactive)
REMARK    1  A    between atoms: C_1  and  C_2
REMARK    2  A    between atoms: C_2  and  C_3
REMARK    3  A    between atoms: C_2  and  C_4
REMARK    4  A    between atoms: C_5  and  C_6
REMARK    5  A    between atoms: N_8  and  C_9
REMARK    6  A    between atoms: C_9  and  C_10
REMARK    7  A    between atoms: C_14  and  C_15
REMARK                            x       y       z     vdW  Elec       q    Type
REMARK                         _______ _______ _______ _____ _____    ______ ____
ROOT
ATOM      1  C   UNL     1       0.977  10.721  19.488  0.00  0.00    +0.000 C 
ATOM      2  O   UNL     1       1.694  11.489  18.855  0.00  0.00    +0.000 OA
ATOM      3  N   UNL     1       0.881   9.385  19.154  0.00  0.00    +0.000 N 
ATOM      4  H   UNL     1       0.337   8.743  19.711  0.00  0.00    +0.000 HD
ENDROOT
BRANCH   1   6
ATOM      5  C   UNL     1      -0.943  12.021  20.604  0.00  0.00    +0.000 A 
ATOM      6  C   UNL     1       0.151  11.147  20.611  0.00  0.00    +0.000 A 
ATOM      7  C   UNL     1       0.315  10.807  21.967  0.00  0.00    +0.000 A 
ATOM      8  N   UNL     1      -0.608  11.343  22.757  0.00  0.00    +0.000 NA
ATOM      9  N   UNL     1      -1.475  11.964  21.902  0.00  0.00    +0.000 N 
ATOM     10  C   UNL     1      -2.765  12.376  22.392  0.00  0.00    +0.000 A 
ATOM     11  C   UNL     1      -3.025  12.282  23.761  0.00  0.00    +0.000 A 
ATOM     12  C   UNL     1      -4.302  12.587  24.231  0.00  0.00    +0.000 A 
ATOM     13  C   UNL     1      -5.283  12.982  23.332  0.00  0.00    +0.000 A 
ATOM     14  C   UNL     1      -4.945  13.063  21.994  0.00  0.00    +0.000 A 
ATOM     15  N   UNL     1      -3.721  12.766  21.510  0.00  0.00    +0.000 NA
BRANCH   5  17
ATOM     16  C   UNL     1      -0.636  14.044  19.104  0.00  0.00    +0.000 C 
ATOM     17  C   UNL     1      -1.537  12.868  19.491  0.00  0.00    +0.000 C 
ATOM     18  C   UNL     1      -1.953  12.033  18.280  0.00  0.00    +0.000 C 
ENDBRANCH   5  17
ENDBRANCH   1   6
BRANCH   3  19
ATOM     19  C   UNL     1       1.707   8.845  18.101  0.00  0.00    +0.000 C 
BRANCH  19  20
ATOM     20  C   UNL     1       2.557   7.682  18.541  0.00  0.00    +0.000 A 
ATOM     21  C   UNL     1       2.176   6.866  19.610  0.00  0.00    +0.000 A 
ATOM     22  C   UNL     1       2.894   5.707  19.901  0.00  0.00    +0.000 A 
ATOM     23  C   UNL     1       3.973   5.330  19.096  0.00  0.00    +0.000 A 
ATOM     24  C   UNL     1       4.357   6.103  17.986  0.00  0.00    +0.000 A 
ATOM     25  C   UNL     1       3.663   7.306  17.762  0.00  0.00    +0.000 A 
BRANCH  24  26
ATOM     26  C   UNL     1       5.358   5.634  17.004  0.00  0.00    +0.000 A 
ATOM     27  C   UNL     1       6.517   4.964  17.395  0.00  0.00    +0.000 A 
ATOM     28  C   UNL     1       7.349   4.408  16.424  0.00  0.00    +0.000 A 
ATOM     29  C   UNL     1       7.010   4.537  15.086  0.00  0.00    +0.000 A 
ATOM     30  C   UNL     1       5.854   5.229  14.773  0.00  0.00    +0.000 A 
ATOM     31  N   UNL     1       5.027   5.773  15.693  0.00  0.00    +0.000 NA
ENDBRANCH  24  26
ENDBRANCH  19  20
ENDBRANCH   3  19
TORSDOF 5
ENDMDL
MODEL 9
REMARK VINA RESULT:      -8.3      7.463     10.771
REMARK  Name = 
REMARK  7 active torsions:
REMARK  status: ('A' for Active; 'I' for Inactive)
REMARK    1  A    between atoms: C_1  and  C_2
REMARK    2  A    between atoms: C_2  and  C_3
REMARK    3  A    between atoms: C_2  and  C_4
REMARK    4  A    between atoms: C_5  and  C_6
REMARK    5  A    between atoms: N_8  and  C_9
REMARK    6  A    between atoms: C_9  and  C_10
REMARK    7  A    between atoms: C_14  and  C_15
REMARK                            x       y       z     vdW  Elec       q    Type
REMARK                         _______ _______ _______ _____ _____    ______ ____
ROOT
ATOM      1  C   UNL     1       0.578  11.008  20.233  0.00  0.00    +0.000 C 
ATOM      2  O   UNL     1       1.537  11.716  19.945  0.00  0.00    +0.000 OA
ATOM      3  N   UNL     1       0.310   9.843  19.542  0.00  0.00    +0.000 N 
ATOM      4  H   UNL     1      -0.444   9.232  19.817  0.00  0.00    +0.000 HD
ENDROOT
BRANCH   1   6
ATOM      5  C   UNL     1      -1.456  12.220  21.238  0.00  0.00    +0.000 A 
ATOM      6  C   UNL     1      -0.369  11.340  21.291  0.00  0.00    +0.000 A 
ATOM      7  C   UNL     1      -0.355  10.883  22.621  0.00  0.00    +0.000 A 
ATOM      8  N   UNL     1      -1.361  11.355  23.348  0.00  0.00    +0.000 NA
ATOM      9  N   UNL     1      -2.129  12.054  22.460  0.00  0.00    +0.000 N 
ATOM     10  C   UNL     1      -3.466  12.432  22.838  0.00  0.00    +0.000 A 
ATOM     11  C   UNL     1      -3.877  12.221  24.157  0.00  0.00    +0.000 A 
ATOM     12  C   UNL     1      -5.198  12.494  24.507  0.00  0.00    +0.000 A 
ATOM     13  C   UNL     1      -6.075  12.973  23.543  0.00  0.00    +0.000 A 
ATOM     14  C   UNL     1      -5.590  13.167  22.263  0.00  0.00    +0.000 A 
ATOM     15  N   UNL     1      -4.319  12.905  21.893  0.00  0.00    +0.000 NA
BRANCH   5  17
ATOM     16  C   UNL     1      -0.950  14.323  19.912  0.00  0.00    +0.000 C 
ATOM     17  C   UNL     1      -1.926  13.165  20.145  0.00  0.00    +0.000 C 
ATOM     18  C   UNL     1      -2.276  12.432  18.850  0.00  0.00    +0.000 C 
ENDBRANCH   5  17
ENDBRANCH   1   6
BRANCH   3  19
ATOM     19  C   UNL     1       1.221   9.387  18.520  0.00  0.00    +0.000 C 
BRANCH  19  20
ATOM     20  C   UNL     1       2.013   8.169  18.921  0.00  0.00    +0.000 A 
ATOM     21  C   UNL     1       1.753   7.495  20.118  0.00  0.00    +0.000 A 
ATOM     22  C   UNL     1       2.389   6.286  20.396  0.00  0.00    +0.000 A 
ATOM     23  C   UNL     1       3.255   5.718  19.459  0.00  0.00    +0.000 A 
ATOM     24  C   UNL     1       3.506   6.344  18.226  0.00  0.00    +0.000 A 
ATOM     25  C   UNL     1       2.911   7.600  18.004  0.00  0.00    +0.000 A 
BRANCH  24  26
ATOM     26  C   UNL     1       4.253   5.680  17.137  0.00  0.00    +0.000 A 
ATOM     27  C   UNL     1       4.941   6.407  16.164  0.00  0.00    +0.000 A 
ATOM     28  C   UNL     1       5.755   5.735  15.254  0.00  0.00    +0.000 A 
ATOM     29  C   UNL     1       5.862   4.355  15.330  0.00  0.00    +0.000 A 
ATOM     30  C   UNL     1       5.138   3.700  16.310  0.00  0.00    +0.000 A 
ATOM     31  N   UNL     1       4.346   4.326  17.208  0.00  0.00    +0.000 NA
ENDBRANCH  24  26
ENDBRANCH  19  20
ENDBRANCH   3  19
TORSDOF 5
ENDMDL
