MODEL 1
REMARK VINA RESULT:      -8.6      0.000      0.000
REMARK  Name = 
REMARK  5 active torsions:
REMARK  status: ('A' for Active; 'I' for Inactive)
REMARK    1  A    between atoms: C_2  and  C_11
REMARK    2  A    between atoms: N_3  and  C_4
REMARK    3  A    between atoms: C_4  and  C_5
REMARK    4  A    between atoms: C_15  and  O_16
REMARK    5  A    between atoms: O_16  and  C_17
REMARK                            x       y       z     vdW  Elec       q    Type
REMARK                         _______ _______ _______ _____ _____    ______ ____
ROOT
ATOM      1  C   UNL     1       3.070   6.418  18.663  0.00  0.00    +0.000 A 
ATOM      2  C   UNL     1       2.484   5.416  19.456  0.00  0.00    +0.000 A 
ATOM      3  C   UNL     1       3.156   4.225  19.713  0.00  0.00    +0.000 A 
ATOM      4  C   UNL     1       4.425   4.024  19.183  0.00  0.00    +0.000 A 
ATOM      5  C   UNL     1       4.998   5.001  18.361  0.00  0.00    +0.000 A 
ATOM      6  C   UNL     1       4.339   6.210  18.104  0.00  0.00    +0.000 A 
ENDROOT
BRANCH   1   8
ATOM      7  O   UNL     1       2.271   8.266  17.466  0.00  0.00    +0.000 OA
ATOM      8  C   UNL     1       2.314   7.694  18.552  0.00  0.00    +0.000 C 
ATOM      9  N   UNL     1       1.718   8.207  19.686  0.00  0.00    +0.000 N 
ATOM     10  H   UNL     1       1.983   7.850  20.593  0.00  0.00    +0.000 HD
BRANCH   9  11
ATOM     11  C   UNL     1       1.149   9.539  19.624  0.00  0.00    +0.000 C 
BRANCH  11  12
ATOM     12  C   UNL     1       0.466   9.943  20.902  0.00  0.00    +0.000 A 
ATOM     13  C   UNL     1      -0.411  11.036  20.933  0.00  0.00    +0.000 A 
ATOM     14  C   UNL     1      -1.109  11.351  22.100  0.00  0.00    +0.000 A 
ATOM     15  C   UNL     1      -0.939  10.577  23.247  0.00  0.00    +0.000 A 
ATOM     16  C   UNL     1      -0.069   9.489  23.229  0.00  0.00    +0.000 A 
ATOM     17  C   UNL     1       0.629   9.173  22.063  0.00  0.00    +0.000 A 
ENDBRANCH  11  12
ENDBRANCH   9  11
ENDBRANCH   1   8
BRANCH   5  18
ATOM     18  O   UNL     1       6.320   4.847  17.880  0.00  0.00    +0.000 OA
BRANCH  18  19
ATOM     19  C   UNL     1       6.547   4.762  16.510  0.00  0.00    +0.000 A 
ATOM     20  C   UNL     1       5.545   3.835  15.921  0.00  0.00    +0.000 A 
ATOM     21  C   UNL     1       5.591   3.663  14.591  0.00  0.00    +0.000 A 
ATOM     22  C   UNL     1       6.580   4.350  13.852  0.00  0.00    +0.000 A 
ATOM     23  N   UNL     1       6.888   4.413  12.577  0.00  0.00    +0.000 NA
ATOM     24  N   UNL     1       7.955   5.280  12.496  0.00  0.00    +0.000 NA
ATOM     25  N   UNL     1       8.296   5.741  13.694  0.00  0.00    +0.000 NA
ATOM     26  N   UNL     1       7.446   5.163  14.555  0.00  0.00    +0.000 N 
ATOM     27  N   UNL     1       7.478   5.408  15.887  0.00  0.00    +0.000 NA
ENDBRANCH  18  19
ENDBRANCH   5  18
TORSDOF 5
ENDMDL
MODEL 2
REMARK VINA RESULT:      -8.4      1.306      2.118
REMARK  Name = 
REMARK  5 active torsions:
REMARK  status: ('A' for Active; 'I' for Inactive)
REMARK    1  A    between atoms: C_2  and  C_11
REMARK    2  A    between atoms: N_3  and  C_4
REMARK    3  A    between atoms: C_4  and  C_5
REMARK    4  A    between atoms: C_15  and  O_16
REMARK    5  A    between atoms: O_16  and  C_17
REMARK                            x       y       z     vdW  Elec       q    Type
REMARK                         _______ _______ _______ _____ _____    ______ ____
ROOT
ATOM      1  C   UNL     1       2.385   6.225  19.652  0.00  0.00    +0.000 A 
ATOM      2  C   UNL     1       1.545   5.590  20.583  0.00  0.00    +0.000 A 
ATOM      3  C   UNL     1       1.804   4.290  21.008  0.00  0.00    +0.000 A 
ATOM      4  C   UNL     1       2.911   3.613  20.511  0.00  0.00    +0.000 A 
ATOM      5  C   UNL     1       3.729   4.225  19.554  0.00  0.00    +0.000 A 
ATOM      6  C   UNL     1       3.488   5.537  19.126  0.00  0.00    +0.000 A 
ENDROOT
BRANCH   1   8
ATOM      7  O   UNL     1       2.637   8.193  18.407  0.00  0.00    +0.000 OA
ATOM      8  C   UNL     1       2.081   7.651  19.358  0.00  0.00    +0.000 C 
ATOM      9  N   UNL     1       1.211   8.323  20.191  0.00  0.00    +0.000 N 
ATOM     10  H   UNL     1       0.977   7.929  21.091  0.00  0.00    +0.000 HD
BRANCH   9  11
ATOM     11  C   UNL     1       1.063   9.757  20.024  0.00  0.00    +0.000 C 
BRANCH  11  12
ATOM     12  C   UNL     1       0.128  10.370  21.030  0.00  0.00    +0.000 A 
ATOM     13  C   UNL     1      -0.135   9.730  22.249  0.00  0.00    +0.000 A 
ATOM     14  C   UNL     1      -0.933  10.346  23.215  0.00  0.00    +0.000 A 
ATOM     15  C   UNL     1      -1.474  11.608  22.973  0.00  0.00    +0.000 A 
ATOM     16  C   UNL     1      -1.220  12.254  21.765  0.00  0.00    +0.000 A 
ATOM     17  C   UNL     1      -0.422  11.639  20.799  0.00  0.00    +0.000 A 
ENDBRANCH  11  12
ENDBRANCH   9  11
ENDBRANCH   1   8
BRANCH   5  18
ATOM     18  O   UNL     1       4.904   3.580  19.099  0.00  0.00    +0.000 OA
BRANCH  18  19
ATOM     19  C   UNL     1       5.530   4.032  17.941  0.00  0.00    +0.000 A 
ATOM     20  C   UNL     1       6.648   4.933  18.328  0.00  0.00    +0.000 A 
ATOM     21  C   UNL     1       7.391   5.435  17.330  0.00  0.00    +0.000 A 
ATOM     22  C   UNL     1       7.060   5.094  16.000  0.00  0.00    +0.000 A 
ATOM     23  N   UNL     1       7.569   5.392  14.827  0.00  0.00    +0.000 NA
ATOM     24  N   UNL     1       6.792   4.726  13.905  0.00  0.00    +0.000 NA
ATOM     25  N   UNL     1       5.827   4.031  14.498  0.00  0.00    +0.000 NA
ATOM     26  N   UNL     1       5.978   4.256  15.811  0.00  0.00    +0.000 N 
ATOM     27  N   UNL     1       5.175   3.695  16.745  0.00  0.00    +0.000 NA
ENDBRANCH  18  19
ENDBRANCH   5  18
TORSDOF 5
ENDMDL
MODEL 3
REMARK VINA RESULT:      -8.4      5.152      7.639
REMARK  Name = 
REMARK  5 active torsions:
REMARK  status: ('A' for Active; 'I' for Inactive)
REMARK    1  A    between atoms: C_2  and  C_11
REMARK    2  A    between atoms: N_3  and  C_4
REMARK    3  A    between atoms: C_4  and  C_5
REMARK    4  A    between atoms: C_15  and  O_16
REMARK    5  A    between atoms: O_16  and  C_17
REMARK                            x       y       z     vdW  Elec       q    Type
REMARK                         _______ _______ _______ _____ _____    ______ ____
ROOT
ATOM      1  C   UNL     1       6.791   6.166  17.512  0.00  0.00    +0.000 A 
ATOM      2  C   UNL     1       6.266   6.882  16.423  0.00  0.00    +0.000 A 
ATOM      3  C   UNL     1       5.245   6.349  15.643  0.00  0.00    +0.000 A 
ATOM      4  C   UNL     1       4.734   5.092  15.947  0.00  0.00    +0.000 A 
ATOM      5  C   UNL     1       5.279   4.357  17.006  0.00  0.00    +0.000 A 
ATOM      6  C   UNL     1       6.298   4.887  17.808  0.00  0.00    +0.000 A 
ENDROOT
BRANCH   1   8
ATOM      7  O   UNL     1       8.306   6.291  19.294  0.00  0.00    +0.000 OA
ATOM      8  C   UNL     1       7.795   6.880  18.346  0.00  0.00    +0.000 C 
ATOM      9  N   UNL     1       8.088   8.193  18.043  0.00  0.00    +0.000 N 
ATOM     10  H   UNL     1       7.475   8.712  17.430  0.00  0.00    +0.000 HD
BRANCH   9  11
ATOM     11  C   UNL     1       8.916   8.947  18.965  0.00  0.00    +0.000 C 
BRANCH  11  12
ATOM     12  C   UNL     1       9.055  10.394  18.577  0.00  0.00    +0.000 A 
ATOM     13  C   UNL     1      10.197  11.125  18.933  0.00  0.00    +0.000 A 
ATOM     14  C   UNL     1      10.360  12.441  18.495  0.00  0.00    +0.000 A 
ATOM     15  C   UNL     1       9.385  13.037  17.696  0.00  0.00    +0.000 A 
ATOM     16  C   UNL     1       8.246  12.320  17.336  0.00  0.00    +0.000 A 
ATOM     17  C   UNL     1       8.083  11.005  17.773  0.00  0.00    +0.000 A 
ENDBRANCH  11  12
ENDBRANCH   9  11
ENDBRANCH   1   8
BRANCH   5  18
ATOM     18  O   UNL     1       4.716   3.113  17.378  0.00  0.00    +0.000 OA
BRANCH  18  19
ATOM     19  C   UNL     1       3.770   3.066  18.398  0.00  0.00    +0.000 A 
ATOM     20  C   UNL     1       2.432   3.349  17.817  0.00  0.00    +0.000 A 
ATOM     21  C   UNL     1       1.387   3.307  18.658  0.00  0.00    +0.000 A 
ATOM     22  C   UNL     1       1.624   3.017  20.020  0.00  0.00    +0.000 A 
ATOM     23  N   UNL     1       0.853   2.891  21.074  0.00  0.00    +0.000 NA
ATOM     24  N   UNL     1       1.698   2.582  22.118  0.00  0.00    +0.000 NA
ATOM     25  N   UNL     1       2.962   2.518  21.713  0.00  0.00    +0.000 NA
ATOM     26  N   UNL     1       2.933   2.793  20.402  0.00  0.00    +0.000 N 
ATOM     27  N   UNL     1       4.048   2.806  19.634  0.00  0.00    +0.000 NA
ENDBRANCH  18  19
ENDBRANCH   5  18
TORSDOF 5
ENDMDL
MODEL 4
REMARK VINA RESULT:      -8.4      1.846      2.706
REMARK  Name = 
REMARK  5 active torsions:
REMARK  status: ('A' for Active; 'I' for Inactive)
REMARK    1  A    between atoms: C_2  and  C_11
REMARK    2  A    between atoms: N_3  and  C_4
REMARK    3  A    between atoms: C_4  and  C_5
REMARK    4  A    between atoms: C_15  and  O_16
REMARK    5  A    between atoms: O_16  and  C_17
REMARK                            x       y       z     vdW  Elec       q    Type
REMARK                         _______ _______ _______ _____ _____    ______ ____
ROOT
ATOM      1  C   UNL     1       2.353   6.496  19.289  0.00  0.00    +0.000 A 
ATOM      2  C   UNL     1       1.737   6.108  20.492  0.00  0.00    +0.000 A 
ATOM      3  C   UNL     1       1.981   4.856  21.048  0.00  0.00    +0.000 A 
ATOM      4  C   UNL     1       2.850   3.979  20.410  0.00  0.00    +0.000 A 
ATOM      5  C   UNL     1       3.436   4.343  19.193  0.00  0.00    +0.000 A 
ATOM      6  C   UNL     1       3.210   5.605  18.627  0.00  0.00    +0.000 A 
ENDROOT
BRANCH   1   8
ATOM      7  O   UNL     1       2.707   8.318  17.861  0.00  0.00    +0.000 OA
ATOM      8  C   UNL     1       2.113   7.896  18.849  0.00  0.00    +0.000 C 
ATOM      9  N   UNL     1       1.255   8.681  19.591  0.00  0.00    +0.000 N 
ATOM     10  H   UNL     1       0.989   8.388  20.521  0.00  0.00    +0.000 HD
BRANCH   9  11
ATOM     11  C   UNL     1       1.168  10.095  19.279  0.00  0.00    +0.000 C 
BRANCH  11  12
ATOM     12  C   UNL     1      -0.221  10.526  18.896  0.00  0.00    +0.000 A 
ATOM     13  C   UNL     1      -0.882  11.535  19.610  0.00  0.00    +0.000 A 
ATOM     14  C   UNL     1      -2.134  11.992  19.195  0.00  0.00    +0.000 A 
ATOM     15  C   UNL     1      -2.737  11.445  18.063  0.00  0.00    +0.000 A 
ATOM     16  C   UNL     1      -2.090  10.441  17.346  0.00  0.00    +0.000 A 
ATOM     17  C   UNL     1      -0.838   9.984  17.759  0.00  0.00    +0.000 A 
ENDBRANCH  11  12
ENDBRANCH   9  11
ENDBRANCH   1   8
BRANCH   5  18
ATOM     18  O   UNL     1       4.385   3.494  18.572  0.00  0.00    +0.000 OA
BRANCH  18  19
ATOM     19  C   UNL     1       5.186   3.994  17.550  0.00  0.00    +0.000 A 
ATOM     20  C   UNL     1       6.362   4.669  18.158  0.00  0.00    +0.000 A 
ATOM     21  C   UNL     1       7.269   5.181  17.311  0.00  0.00    +0.000 A 
ATOM     22  C   UNL     1       7.043   5.059  15.922  0.00  0.00    +0.000 A 
ATOM     23  N   UNL     1       7.712   5.426  14.853  0.00  0.00    +0.000 NA
ATOM     24  N   UNL     1       6.960   4.997  13.781  0.00  0.00    +0.000 NA
ATOM     25  N   UNL     1       5.854   4.379  14.182  0.00  0.00    +0.000 NA
ATOM     26  N   UNL     1       5.889   4.415  15.521  0.00  0.00    +0.000 N 
ATOM     27  N   UNL     1       4.923   3.862  16.291  0.00  0.00    +0.000 NA
ENDBRANCH  18  19
ENDBRANCH   5  18
TORSDOF 5
ENDMDL
MODEL 5
REMARK VINA RESULT:      -8.3      2.132      3.112
REMARK  Name = 
REMARK  5 active torsions:
REMARK  status: ('A' for Active; 'I' for Inactive)
REMARK    1  A    between atoms: C_2  and  C_11
REMARK    2  A    between atoms: N_3  and  C_4
REMARK    3  A    between atoms: C_4  and  C_5
REMARK    4  A    between atoms: C_15  and  O_16
REMARK    5  A    between atoms: O_16  and  C_17
REMARK                            x       y       z     vdW  Elec       q    Type
REMARK                         _______ _______ _______ _____ _____    ______ ____
ROOT
ATOM      1  C   UNL     1       1.986   6.421  20.159  0.00  0.00    +0.000 A 
ATOM      2  C   UNL     1       0.921   5.557  20.468  0.00  0.00    +0.000 A 
ATOM      3  C   UNL     1       1.087   4.176  20.424  0.00  0.00    +0.000 A 
ATOM      4  C   UNL     1       2.322   3.643  20.074  0.00  0.00    +0.000 A 
ATOM      5  C   UNL     1       3.375   4.498  19.726  0.00  0.00    +0.000 A 
ATOM      6  C   UNL     1       3.227   5.890  19.778  0.00  0.00    +0.000 A 
ENDROOT
BRANCH   1   8
ATOM      7  O   UNL     1       1.545   8.298  21.490  0.00  0.00    +0.000 OA
ATOM      8  C   UNL     1       1.731   7.874  20.353  0.00  0.00    +0.000 C 
ATOM      9  N   UNL     1       1.677   8.687  19.239  0.00  0.00    +0.000 N 
ATOM     10  H   UNL     1       1.581   8.271  18.323  0.00  0.00    +0.000 HD
BRANCH   9  11
ATOM     11  C   UNL     1       1.239  10.059  19.406  0.00  0.00    +0.000 C 
BRANCH  11  12
ATOM     12  C   UNL     1      -0.112  10.321  18.800  0.00  0.00    +0.000 A 
ATOM     13  C   UNL     1      -0.522   9.647  17.641  0.00  0.00    +0.000 A 
ATOM     14  C   UNL     1      -1.810   9.828  17.134  0.00  0.00    +0.000 A 
ATOM     15  C   UNL     1      -2.702  10.683  17.781  0.00  0.00    +0.000 A 
ATOM     16  C   UNL     1      -2.306  11.358  18.934  0.00  0.00    +0.000 A 
ATOM     17  C   UNL     1      -1.019  11.177  19.441  0.00  0.00    +0.000 A 
ENDBRANCH  11  12
ENDBRANCH   9  11
ENDBRANCH   1   8
BRANCH   5  18
ATOM     18  O   UNL     1       4.659   3.974  19.445  0.00  0.00    +0.000 OA
BRANCH  18  19
ATOM     19  C   UNL     1       5.350   4.417  18.322  0.00  0.00    +0.000 A 
ATOM     20  C   UNL     1       6.502   5.244  18.770  0.00  0.00    +0.000 A 
ATOM     21  C   UNL     1       7.307   5.727  17.811  0.00  0.00    +0.000 A 
ATOM     22  C   UNL     1       7.006   5.437  16.462  0.00  0.00    +0.000 A 
ATOM     23  N   UNL     1       7.572   5.733  15.315  0.00  0.00    +0.000 NA
ATOM     24  N   UNL     1       6.793   5.133  14.351  0.00  0.00    +0.000 NA
ATOM     25  N   UNL     1       5.771   4.480  14.892  0.00  0.00    +0.000 NA
ATOM     26  N   UNL     1       5.887   4.665  16.215  0.00  0.00    +0.000 N 
ATOM     27  N   UNL     1       5.021   4.128  17.106  0.00  0.00    +0.000 NA
ENDBRANCH  18  19
ENDBRANCH   5  18
TORSDOF 5
ENDMDL
MODEL 6
REMARK VINA RESULT:      -8.3      3.861      9.367
REMARK  Name = 
REMARK  5 active torsions:
REMARK  status: ('A' for Active; 'I' for Inactive)
REMARK    1  A    between atoms: C_2  and  C_11
REMARK    2  A    between atoms: N_3  and  C_4
REMARK    3  A    between atoms: C_4  and  C_5
REMARK    4  A    between atoms: C_15  and  O_16
REMARK    5  A    between atoms: O_16  and  C_17
REMARK                            x       y       z     vdW  Elec       q    Type
REMARK                         _______ _______ _______ _____ _____    ______ ____
ROOT
ATOM      1  C   UNL     1       1.880   7.768  19.710  0.00  0.00    +0.000 A 
ATOM      2  C   UNL     1       1.447   7.713  21.046  0.00  0.00    +0.000 A 
ATOM      3  C   UNL     1       0.594   8.684  21.562  0.00  0.00    +0.000 A 
ATOM      4  C   UNL     1       0.160   9.720  20.744  0.00  0.00    +0.000 A 
ATOM      5  C   UNL     1       0.618   9.803  19.424  0.00  0.00    +0.000 A 
ATOM      6  C   UNL     1       1.466   8.826  18.887  0.00  0.00    +0.000 A 
ENDROOT
BRANCH   1   8
ATOM      7  O   UNL     1       2.927   5.694  20.009  0.00  0.00    +0.000 OA
ATOM      8  C   UNL     1       2.693   6.617  19.234  0.00  0.00    +0.000 C 
ATOM      9  N   UNL     1       3.184   6.648  17.945  0.00  0.00    +0.000 N 
ATOM     10  H   UNL     1       3.186   7.519  17.432  0.00  0.00    +0.000 HD
BRANCH   9  11
ATOM     11  C   UNL     1       4.132   5.626  17.543  0.00  0.00    +0.000 C 
BRANCH  11  12
ATOM     12  C   UNL     1       5.556   5.992  17.860  0.00  0.00    +0.000 A 
ATOM     13  C   UNL     1       6.200   7.032  17.176  0.00  0.00    +0.000 A 
ATOM     14  C   UNL     1       7.491   7.424  17.536  0.00  0.00    +0.000 A 
ATOM     15  C   UNL     1       8.149   6.782  18.585  0.00  0.00    +0.000 A 
ATOM     16  C   UNL     1       7.519   5.747  19.272  0.00  0.00    +0.000 A 
ATOM     17  C   UNL     1       6.229   5.355  18.913  0.00  0.00    +0.000 A 
ENDBRANCH  11  12
ENDBRANCH   9  11
ENDBRANCH   1   8
BRANCH   5  18
ATOM     18  O   UNL     1       0.122  10.805  18.556  0.00  0.00    +0.000 OA
BRANCH  18  19
ATOM     19  C   UNL     1      -1.252  10.937  18.374  0.00  0.00    +0.000 A 
ATOM     20  C   UNL     1      -1.683   9.987  17.316  0.00  0.00    +0.000 A 
ATOM     21  C   UNL     1      -2.994   9.951  17.036  0.00  0.00    +0.000 A 
ATOM     22  C   UNL     1      -3.863  10.814  17.740  0.00  0.00    +0.000 A 
ATOM     23  N   UNL     1      -5.159  11.020  17.720  0.00  0.00    +0.000 NA
ATOM     24  N   UNL     1      -5.394  11.993  18.667  0.00  0.00    +0.000 NA
ATOM     25  N   UNL     1      -4.267  12.376  19.257  0.00  0.00    +0.000 NA
ATOM     26  N   UNL     1      -3.298  11.650  18.683  0.00  0.00    +0.000 N 
ATOM     27  N   UNL     1      -1.997  11.755  19.043  0.00  0.00    +0.000 NA
ENDBRANCH  18  19
ENDBRANCH   5  18
TORSDOF 5
ENDMDL
MODEL 7
REMARK VINA RESULT:      -8.3      1.887      2.798
REMARK  Name = 
REMARK  5 active torsions:
REMARK  status: ('A' for Active; 'I' for Inactive)
REMARK    1  A    between atoms: C_2  and  C_11
REMARK    2  A    between atoms: N_3  and  C_4
REMARK    3  A    between atoms: C_4  and  C_5
REMARK    4  A    between atoms: C_15  and  O_16
REMARK    5  A    between atoms: O_16  and  C_17
REMARK                            x       y       z     vdW  Elec       q    Type
REMARK                         _______ _______ _______ _____ _____    ______ ____
ROOT
ATOM      1  C   UNL     1       2.359   6.834  19.421  0.00  0.00    +0.000 A 
ATOM      2  C   UNL     1       1.505   6.313  20.409  0.00  0.00    +0.000 A 
ATOM      3  C   UNL     1       1.757   5.076  20.992  0.00  0.00    +0.000 A 
ATOM      4  C   UNL     1       2.872   4.345  20.596  0.00  0.00    +0.000 A 
ATOM      5  C   UNL     1       3.705   4.839  19.586  0.00  0.00    +0.000 A 
ATOM      6  C   UNL     1       3.470   6.089  18.998  0.00  0.00    +0.000 A 
ENDROOT
BRANCH   1   8
ATOM      7  O   UNL     1       2.623   8.634  17.945  0.00  0.00    +0.000 OA
ATOM      8  C   UNL     1       2.060   8.213  18.952  0.00  0.00    +0.000 C 
ATOM      9  N   UNL     1       1.185   8.983  19.690  0.00  0.00    +0.000 N 
ATOM     10  H   UNL     1       0.944   8.702  20.631  0.00  0.00    +0.000 HD
BRANCH   9  11
ATOM     11  C   UNL     1       1.041  10.385  19.348  0.00  0.00    +0.000 C 
BRANCH  11  12
ATOM     12  C   UNL     1      -0.351  10.738  18.899  0.00  0.00    +0.000 A 
ATOM     13  C   UNL     1      -0.968  10.037  17.854  0.00  0.00    +0.000 A 
ATOM     14  C   UNL     1      -2.291  10.310  17.502  0.00  0.00    +0.000 A 
ATOM     15  C   UNL     1      -3.010  11.285  18.192  0.00  0.00    +0.000 A 
ATOM     16  C   UNL     1      -2.408  11.989  19.232  0.00  0.00    +0.000 A 
ATOM     17  C   UNL     1      -1.085  11.717  19.585  0.00  0.00    +0.000 A 
ENDBRANCH  11  12
ENDBRANCH   9  11
ENDBRANCH   1   8
BRANCH   5  18
ATOM     18  O   UNL     1       4.886   4.146  19.229  0.00  0.00    +0.000 OA
BRANCH  18  19
ATOM     19  C   UNL     1       5.509   4.430  18.017  0.00  0.00    +0.000 A 
ATOM     20  C   UNL     1       6.606   5.401  18.265  0.00  0.00    +0.000 A 
ATOM     21  C   UNL     1       7.344   5.760  17.203  0.00  0.00    +0.000 A 
ATOM     22  C   UNL     1       7.027   5.215  15.940  0.00  0.00    +0.000 A 
ATOM     23  N   UNL     1       7.535   5.342  14.736  0.00  0.00    +0.000 NA
ATOM     24  N   UNL     1       6.777   4.527  13.925  0.00  0.00    +0.000 NA
ATOM     25  N   UNL     1       5.823   3.911  14.615  0.00  0.00    +0.000 NA
ATOM     26  N   UNL     1       5.963   4.336  15.878  0.00  0.00    +0.000 N 
ATOM     27  N   UNL     1       5.166   3.907  16.886  0.00  0.00    +0.000 NA
ENDBRANCH  18  19
ENDBRANCH   5  18
TORSDOF 5
ENDMDL
MODEL 8
REMARK VINA RESULT:      -8.3      2.768      3.624
REMARK  Name = 
REMARK  5 active torsions:
REMARK  status: ('A' for Active; 'I' for Inactive)
REMARK    1  A    between atoms: C_2  and  C_11
REMARK    2  A    between atoms: N_3  and  C_4
REMARK    3  A    between atoms: C_4  and  C_5
REMARK    4  A    between atoms: C_15  and  O_16
REMARK    5  A    between atoms: O_16  and  C_17
REMARK                            x       y       z     vdW  Elec       q    Type
REMARK                         _______ _______ _______ _____ _____    ______ ____
ROOT
ATOM      1  C   UNL     1       2.235   3.912  19.305  0.00  0.00    +0.000 A 
ATOM      2  C   UNL     1       1.845   2.584  19.551  0.00  0.00    +0.000 A 
ATOM      3  C   UNL     1       2.461   1.525  18.891  0.00  0.00    +0.000 A 
ATOM      4  C   UNL     1       3.478   1.782  17.980  0.00  0.00    +0.000 A 
ATOM      5  C   UNL     1       3.844   3.104  17.700  0.00  0.00    +0.000 A 
ATOM      6  C   UNL     1       3.242   4.180  18.367  0.00  0.00    +0.000 A 
ENDROOT
BRANCH   1   8
ATOM      7  O   UNL     1       0.500   4.716  20.659  0.00  0.00    +0.000 OA
ATOM      8  C   UNL     1       1.592   4.953  20.151  0.00  0.00    +0.000 C 
ATOM      9  N   UNL     1       2.234   6.165  20.303  0.00  0.00    +0.000 N 
ATOM     10  H   UNL     1       2.989   6.412  19.678  0.00  0.00    +0.000 HD
BRANCH   9  11
ATOM     11  C   UNL     1       1.525   7.245  20.963  0.00  0.00    +0.000 C 
BRANCH  11  12
ATOM     12  C   UNL     1       1.427   8.484  20.116  0.00  0.00    +0.000 A 
ATOM     13  C   UNL     1       1.873   8.483  18.787  0.00  0.00    +0.000 A 
ATOM     14  C   UNL     1       1.699   9.609  17.981  0.00  0.00    +0.000 A 
ATOM     15  C   UNL     1       1.076  10.746  18.494  0.00  0.00    +0.000 A 
ATOM     16  C   UNL     1       0.629  10.759  19.813  0.00  0.00    +0.000 A 
ATOM     17  C   UNL     1       0.802   9.634  20.620  0.00  0.00    +0.000 A 
ENDBRANCH  11  12
ENDBRANCH   9  11
ENDBRANCH   1   8
BRANCH   5  18
ATOM     18  O   UNL     1       4.931   3.379  16.836  0.00  0.00    +0.000 OA
BRANCH  18  19
ATOM     19  C   UNL     1       5.679   4.538  17.023  0.00  0.00    +0.000 A 
ATOM     20  C   UNL     1       5.287   5.526  15.984  0.00  0.00    +0.000 A 
ATOM     21  C   UNL     1       5.886   6.726  16.037  0.00  0.00    +0.000 A 
ATOM     22  C   UNL     1       6.844   6.962  17.047  0.00  0.00    +0.000 A 
ATOM     23  N   UNL     1       7.585   7.994  17.380  0.00  0.00    +0.000 NA
ATOM     24  N   UNL     1       8.310   7.590  18.480  0.00  0.00    +0.000 NA
ATOM     25  N   UNL     1       8.019   6.339  18.818  0.00  0.00    +0.000 NA
ATOM     26  N   UNL     1       7.106   5.929  17.926  0.00  0.00    +0.000 N 
ATOM     27  N   UNL     1       6.554   4.694  17.962  0.00  0.00    +0.000 NA
ENDBRANCH  18  19
ENDBRANCH   5  18
TORSDOF 5
ENDMDL
MODEL 9
REMARK VINA RESULT:      -8.2      4.171      9.572
REMARK  Name = 
REMARK  5 active torsions:
REMARK  status: ('A' for Active; 'I' for Inactive)
REMARK    1  A    between atoms: C_2  and  C_11
REMARK    2  A    between atoms: N_3  and  C_4
REMARK    3  A    between atoms: C_4  and  C_5
REMARK    4  A    between atoms: C_15  and  O_16
REMARK    5  A    between atoms: O_16  and  C_17
REMARK                            x       y       z     vdW  Elec       q    Type
REMARK                         _______ _______ _______ _____ _____    ______ ____
ROOT
ATOM      1  C   UNL     1       1.590   8.429  19.758  0.00  0.00    +0.000 A 
ATOM      2  C   UNL     1       1.213   8.313  21.107  0.00  0.00    +0.000 A 
ATOM      3  C   UNL     1       0.303   9.200  21.674  0.00  0.00    +0.000 A 
ATOM      4  C   UNL     1      -0.246  10.212  20.894  0.00  0.00    +0.000 A 
ATOM      5  C   UNL     1       0.155  10.357  19.561  0.00  0.00    +0.000 A 
ATOM      6  C   UNL     1       1.060   9.464  18.973  0.00  0.00    +0.000 A 
ENDROOT
BRANCH   1   8
ATOM      7  O   UNL     1       2.633   7.263  18.014  0.00  0.00    +0.000 OA
ATOM      8  C   UNL     1       2.476   7.359  19.228  0.00  0.00    +0.000 C 
ATOM      9  N   UNL     1       3.063   6.488  20.123  0.00  0.00    +0.000 N 
ATOM     10  H   UNL     1       2.717   6.439  21.071  0.00  0.00    +0.000 HD
BRANCH   9  11
ATOM     11  C   UNL     1       3.768   5.332  19.601  0.00  0.00    +0.000 C 
BRANCH  11  12
ATOM     12  C   UNL     1       2.859   4.166  19.330  0.00  0.00    +0.000 A 
ATOM     13  C   UNL     1       1.754   3.909  20.155  0.00  0.00    +0.000 A 
ATOM     14  C   UNL     1       0.864   2.879  19.847  0.00  0.00    +0.000 A 
ATOM     15  C   UNL     1       1.068   2.096  18.711  0.00  0.00    +0.000 A 
ATOM     16  C   UNL     1       2.162   2.341  17.884  0.00  0.00    +0.000 A 
ATOM     17  C   UNL     1       3.052   3.371  18.191  0.00  0.00    +0.000 A 
ENDBRANCH  11  12
ENDBRANCH   9  11
ENDBRANCH   1   8
BRANCH   5  18
ATOM     18  O   UNL     1      -0.454  11.331  18.733  0.00  0.00    +0.000 OA
BRANCH  18  19
ATOM     19  C   UNL     1      -1.835  11.319  18.562  0.00  0.00    +0.000 A 
ATOM     20  C   UNL     1      -2.186  10.234  17.609  0.00  0.00    +0.000 A 
ATOM     21  C   UNL     1      -3.491  10.052  17.355  0.00  0.00    +0.000 A 
ATOM     22  C   UNL     1      -4.429  10.898  17.986  0.00  0.00    +0.000 A 
ATOM     23  N   UNL     1      -5.739  10.983  17.969  0.00  0.00    +0.000 NA
ATOM     24  N   UNL     1      -6.055  12.020  18.820  0.00  0.00    +0.000 NA
ATOM     25  N   UNL     1      -4.963  12.559  19.351  0.00  0.00    +0.000 NA
ATOM     26  N   UNL     1      -3.936  11.871  18.834  0.00  0.00    +0.000 N 
ATOM     27  N   UNL     1      -2.647  12.129  19.160  0.00  0.00    +0.000 NA
ENDBRANCH  18  19
ENDBRANCH   5  18
TORSDOF 5
ENDMDL
