MODEL 1
REMARK VINA RESULT:      -9.5      0.000      0.000
REMARK  Name = 
REMARK  7 active torsions:
REMARK  status: ('A' for Active; 'I' for Inactive)
REMARK    1  A    between atoms: C_1  and  C_2
REMARK    2  A    between atoms: C_5  and  N_6
REMARK    3  A    between atoms: C_7  and  C_9
REMARK    4  A    between atoms: C_9  and  N_10
REMARK    5  A    between atoms: C_14  and  C_15
REMARK    6  A    between atoms: C_14  and  C_16
REMARK    7  A    between atoms: C_20  and  C_21
REMARK                            x       y       z     vdW  Elec       q    Type
REMARK                         _______ _______ _______ _____ _____    ______ ____
ROOT
ATOM      1  N   UNL     1       6.992   5.755  17.767  0.00  0.00    +0.000 N 
ATOM      2  C   UNL     1       7.508   4.551  17.419  0.00  0.00    +0.000 C 
ATOM      3  O   UNL     1       8.596   4.089  17.727  0.00  0.00    +0.000 OA
ATOM      4  N   UNL     1       6.592   3.887  16.641  0.00  0.00    +0.000 N 
ATOM      5  C   UNL     1       5.322   4.581  16.577  0.00  0.00    +0.000 C 
ATOM      6  C   UNL     1       4.839   4.651  15.134  0.00  0.00    +0.000 C 
ATOM      7  C   UNL     1       5.789   5.946  17.148  0.00  0.00    +0.000 C 
ATOM      8  O   UNL     1       5.171   7.004  17.133  0.00  0.00    +0.000 OA
ATOM      9  H   UNL     1       6.762   2.937  16.341  0.00  0.00    +0.000 HD
ENDROOT
BRANCH   5  10
ATOM     10  C   UNL     1       4.261   3.983  17.510  0.00  0.00    +0.000 A 
ATOM     11  C   UNL     1       3.921   2.621  17.394  0.00  0.00    +0.000 A 
ATOM     12  C   UNL     1       2.981   2.033  18.241  0.00  0.00    +0.000 A 
ATOM     13  C   UNL     1       2.354   2.793  19.224  0.00  0.00    +0.000 A 
ATOM     14  C   UNL     1       2.649   4.156  19.357  0.00  0.00    +0.000 A 
ATOM     15  C   UNL     1       3.589   4.742  18.487  0.00  0.00    +0.000 A 
BRANCH  14  16
ATOM     16  C   UNL     1       1.985   4.995  20.423  0.00  0.00    +0.000 C 
ATOM     17  F   UNL     1       2.112   6.335  20.223  0.00  0.00    +0.000 F 
ATOM     18  F   UNL     1       0.646   4.755  20.506  0.00  0.00    +0.000 F 
ATOM     19  F   UNL     1       2.486   4.751  21.665  0.00  0.00    +0.000 F 
ENDBRANCH  14  16
ENDBRANCH   5  10
BRANCH   1  20
ATOM     20  C   UNL     1       7.561   6.632  18.762  0.00  0.00    +0.000 C 
BRANCH  20  22
ATOM     21  N   UNL     1       8.578   8.819  19.179  0.00  0.00    +0.000 N 
ATOM     22  C   UNL     1       8.073   7.952  18.220  0.00  0.00    +0.000 C 
ATOM     23  O   UNL     1       8.150   8.117  17.002  0.00  0.00    +0.000 OA
ATOM     24  H   UNL     1       8.678   8.459  20.127  0.00  0.00    +0.000 HD
BRANCH  21  29
ATOM     25  C   UNL     1      10.909  13.968  18.175  0.00  0.00    +0.000 C 
ATOM     26  C   UNL     1      10.293  12.626  18.426  0.00  0.00    +0.000 A 
ATOM     27  C   UNL     1       9.207  12.192  17.670  0.00  0.00    +0.000 A 
ATOM     28  C   UNL     1       8.633  10.939  17.914  0.00  0.00    +0.000 A 
ATOM     29  C   UNL     1       9.132  10.093  18.911  0.00  0.00    +0.000 A 
ATOM     30  C   UNL     1      10.214  10.532  19.677  0.00  0.00    +0.000 A 
ATOM     31  C   UNL     1      10.787  11.783  19.422  0.00  0.00    +0.000 A 
ATOM     32  F   UNL     1      11.838  12.173  20.158  0.00  0.00    +0.000 F 
ENDBRANCH  21  29
ENDBRANCH  20  22
ENDBRANCH   1  20
TORSDOF 5
ENDMDL
MODEL 2
REMARK VINA RESULT:      -9.4      0.988      1.303
REMARK  Name = 
REMARK  7 active torsions:
REMARK  status: ('A' for Active; 'I' for Inactive)
REMARK    1  A    between atoms: C_1  and  C_2
REMARK    2  A    between atoms: C_5  and  N_6
REMARK    3  A    between atoms: C_7  and  C_9
REMARK    4  A    between atoms: C_9  and  N_10
REMARK    5  A    between atoms: C_14  and  C_15
REMARK    6  A    between atoms: C_14  and  C_16
REMARK    7  A    between atoms: C_20  and  C_21
REMARK                            x       y       z     vdW  Elec       q    Type
REMARK                         _______ _______ _______ _____ _____    ______ ____
ROOT
ATOM      1  N   UNL     1       6.982   5.709  17.730  0.00  0.00    +0.000 N 
ATOM      2  C   UNL     1       7.500   4.497  17.413  0.00  0.00    +0.000 C 
ATOM      3  O   UNL     1       8.598   4.055  17.713  0.00  0.00    +0.000 OA
ATOM      4  N   UNL     1       6.572   3.800  16.680  0.00  0.00    +0.000 N 
ATOM      5  C   UNL     1       5.296   4.482  16.620  0.00  0.00    +0.000 C 
ATOM      6  C   UNL     1       4.780   4.498  15.187  0.00  0.00    +0.000 C 
ATOM      7  C   UNL     1       5.765   5.870  17.132  0.00  0.00    +0.000 C 
ATOM      8  O   UNL     1       5.137   6.922  17.094  0.00  0.00    +0.000 OA
ATOM      9  H   UNL     1       6.743   2.841  16.409  0.00  0.00    +0.000 HD
ENDROOT
BRANCH   5  10
ATOM     10  C   UNL     1       4.260   3.909  17.597  0.00  0.00    +0.000 A 
ATOM     11  C   UNL     1       3.936   2.540  17.543  0.00  0.00    +0.000 A 
ATOM     12  C   UNL     1       3.020   1.975  18.431  0.00  0.00    +0.000 A 
ATOM     13  C   UNL     1       2.402   2.768  19.394  0.00  0.00    +0.000 A 
ATOM     14  C   UNL     1       2.681   4.138  19.466  0.00  0.00    +0.000 A 
ATOM     15  C   UNL     1       3.597   4.700  18.555  0.00  0.00    +0.000 A 
BRANCH  14  16
ATOM     16  C   UNL     1       2.026   5.012  20.510  0.00  0.00    +0.000 C 
ATOM     17  F   UNL     1       2.183   6.345  20.284  0.00  0.00    +0.000 F 
ATOM     18  F   UNL     1       0.683   4.801  20.586  0.00  0.00    +0.000 F 
ATOM     19  F   UNL     1       2.513   4.783  21.760  0.00  0.00    +0.000 F 
ENDBRANCH  14  16
ENDBRANCH   5  10
BRANCH   1  20
ATOM     20  C   UNL     1       7.566   6.625  18.681  0.00  0.00    +0.000 C 
BRANCH  20  22
ATOM     21  N   UNL     1       8.529   8.852  19.008  0.00  0.00    +0.000 N 
ATOM     22  C   UNL     1       8.010   7.949  18.091  0.00  0.00    +0.000 C 
ATOM     23  O   UNL     1       8.027   8.090  16.867  0.00  0.00    +0.000 OA
ATOM     24  H   UNL     1       8.682   8.515  19.958  0.00  0.00    +0.000 HD
BRANCH  21  29
ATOM     25  C   UNL     1      10.447  14.092  17.665  0.00  0.00    +0.000 C 
ATOM     26  C   UNL     1       9.958  12.723  18.023  0.00  0.00    +0.000 A 
ATOM     27  C   UNL     1      10.763  11.849  18.748  0.00  0.00    +0.000 A 
ATOM     28  C   UNL     1      10.301  10.569  19.074  0.00  0.00    +0.000 A 
ATOM     29  C   UNL     1       9.027  10.137  18.690  0.00  0.00    +0.000 A 
ATOM     30  C   UNL     1       8.222  11.009  17.953  0.00  0.00    +0.000 A 
ATOM     31  C   UNL     1       8.688  12.289  17.637  0.00  0.00    +0.000 A 
ATOM     32  F   UNL     1       7.889  13.115  16.946  0.00  0.00    +0.000 F 
ENDBRANCH  21  29
ENDBRANCH  20  22
ENDBRANCH   1  20
TORSDOF 5
ENDMDL
MODEL 3
REMARK VINA RESULT:      -9.1      7.164     10.323
REMARK  Name = 
REMARK  7 active torsions:
REMARK  status: ('A' for Active; 'I' for Inactive)
REMARK    1  A    between atoms: C_1  and  C_2
REMARK    2  A    between atoms: C_5  and  N_6
REMARK    3  A    between atoms: C_7  and  C_9
REMARK    4  A    between atoms: C_9  and  N_10
REMARK    5  A    between atoms: C_14  and  C_15
REMARK    6  A    between atoms: C_14  and  C_16
REMARK    7  A    between atoms: C_20  and  C_21
REMARK                            x       y       z     vdW  Elec       q    Type
REMARK                         _______ _______ _______ _____ _____    ______ ____
ROOT
ATOM      1  N   UNL     1      -0.325  11.255  22.263  0.00  0.00    +0.000 N 
ATOM      2  C   UNL     1       0.457  11.952  21.403  0.00  0.00    +0.000 C 
ATOM      3  O   UNL     1       1.615  11.721  21.094  0.00  0.00    +0.000 OA
ATOM      4  N   UNL     1      -0.272  13.000  20.897  0.00  0.00    +0.000 N 
ATOM      5  C   UNL     1      -1.664  12.940  21.290  0.00  0.00    +0.000 C 
ATOM      6  C   UNL     1      -2.126  14.306  21.783  0.00  0.00    +0.000 C 
ATOM      7  C   UNL     1      -1.528  11.881  22.417  0.00  0.00    +0.000 C 
ATOM      8  O   UNL     1      -2.370  11.583  23.257  0.00  0.00    +0.000 OA
ATOM      9  H   UNL     1       0.115  13.598  20.179  0.00  0.00    +0.000 HD
ENDROOT
BRANCH   5  10
ATOM     10  C   UNL     1      -2.579  12.387  20.190  0.00  0.00    +0.000 A 
ATOM     11  C   UNL     1      -3.962  12.651  20.237  0.00  0.00    +0.000 A 
ATOM     12  C   UNL     1      -4.823  12.190  19.241  0.00  0.00    +0.000 A 
ATOM     13  C   UNL     1      -4.323  11.450  18.173  0.00  0.00    +0.000 A 
ATOM     14  C   UNL     1      -2.958  11.149  18.102  0.00  0.00    +0.000 A 
ATOM     15  C   UNL     1      -2.099  11.607  19.120  0.00  0.00    +0.000 A 
BRANCH  14  16
ATOM     16  C   UNL     1      -2.396  10.354  16.945  0.00  0.00    +0.000 C 
ATOM     17  F   UNL     1      -1.165   9.827  17.191  0.00  0.00    +0.000 F 
ATOM     18  F   UNL     1      -3.193   9.302  16.611  0.00  0.00    +0.000 F 
ATOM     19  F   UNL     1      -2.267  11.100  15.814  0.00  0.00    +0.000 F 
ENDBRANCH  14  16
ENDBRANCH   5  10
BRANCH   1  20
ATOM     20  C   UNL     1       0.014   9.963  22.812  0.00  0.00    +0.000 C 
BRANCH  20  22
ATOM     21  N   UNL     1       1.399   8.555  21.365  0.00  0.00    +0.000 N 
ATOM     22  C   UNL     1       0.110   8.849  21.788  0.00  0.00    +0.000 C 
ATOM     23  O   UNL     1      -0.895   8.192  21.512  0.00  0.00    +0.000 OA
ATOM     24  H   UNL     1       2.166   9.013  21.855  0.00  0.00    +0.000 HD
BRANCH  21  29
ATOM     25  C   UNL     1       2.749   4.364  17.683  0.00  0.00    +0.000 C 
ATOM     26  C   UNL     1       2.398   5.466  18.633  0.00  0.00    +0.000 A 
ATOM     27  C   UNL     1       2.460   6.798  18.230  0.00  0.00    +0.000 A 
ATOM     28  C   UNL     1       2.136   7.823  19.126  0.00  0.00    +0.000 A 
ATOM     29  C   UNL     1       1.738   7.543  20.437  0.00  0.00    +0.000 A 
ATOM     30  C   UNL     1       1.685   6.208  20.847  0.00  0.00    +0.000 A 
ATOM     31  C   UNL     1       2.004   5.189  19.944  0.00  0.00    +0.000 A 
ATOM     32  F   UNL     1       1.926   3.915  20.354  0.00  0.00    +0.000 F 
ENDBRANCH  21  29
ENDBRANCH  20  22
ENDBRANCH   1  20
TORSDOF 5
ENDMDL
MODEL 4
REMARK VINA RESULT:      -9.1      1.502      1.799
REMARK  Name = 
REMARK  7 active torsions:
REMARK  status: ('A' for Active; 'I' for Inactive)
REMARK    1  A    between atoms: C_1  and  C_2
REMARK    2  A    between atoms: C_5  and  N_6
REMARK    3  A    between atoms: C_7  and  C_9
REMARK    4  A    between atoms: C_9  and  N_10
REMARK    5  A    between atoms: C_14  and  C_15
REMARK    6  A    between atoms: C_14  and  C_16
REMARK    7  A    between atoms: C_20  and  C_21
REMARK                            x       y       z     vdW  Elec       q    Type
REMARK                         _______ _______ _______ _____ _____    ______ ____
ROOT
ATOM      1  N   UNL     1       6.935   5.659  17.992  0.00  0.00    +0.000 N 
ATOM      2  C   UNL     1       7.372   4.510  17.419  0.00  0.00    +0.000 C 
ATOM      3  O   UNL     1       8.523   4.118  17.319  0.00  0.00    +0.000 OA
ATOM      4  N   UNL     1       6.286   3.812  16.951  0.00  0.00    +0.000 N 
ATOM      5  C   UNL     1       5.032   4.412  17.356  0.00  0.00    +0.000 C 
ATOM      6  C   UNL     1       4.088   4.503  16.163  0.00  0.00    +0.000 C 
ATOM      7  C   UNL     1       5.586   5.785  17.821  0.00  0.00    +0.000 C 
ATOM      8  O   UNL     1       4.940   6.795  18.077  0.00  0.00    +0.000 OA
ATOM      9  H   UNL     1       6.399   2.889  16.554  0.00  0.00    +0.000 HD
ENDROOT
BRANCH   5  10
ATOM     10  C   UNL     1       4.381   3.702  18.550  0.00  0.00    +0.000 A 
ATOM     11  C   UNL     1       5.149   2.829  19.344  0.00  0.00    +0.000 A 
ATOM     12  C   UNL     1       4.602   2.186  20.454  0.00  0.00    +0.000 A 
ATOM     13  C   UNL     1       3.270   2.398  20.798  0.00  0.00    +0.000 A 
ATOM     14  C   UNL     1       2.467   3.242  20.021  0.00  0.00    +0.000 A 
ATOM     15  C   UNL     1       3.026   3.875  18.894  0.00  0.00    +0.000 A 
BRANCH  14  16
ATOM     16  C   UNL     1       1.021   3.490  20.384  0.00  0.00    +0.000 C 
ATOM     17  F   UNL     1       0.724   4.805  20.577  0.00  0.00    +0.000 F 
ATOM     18  F   UNL     1       0.167   3.053  19.418  0.00  0.00    +0.000 F 
ATOM     19  F   UNL     1       0.653   2.851  21.527  0.00  0.00    +0.000 F 
ENDBRANCH  14  16
ENDBRANCH   5  10
BRANCH   1  20
ATOM     20  C   UNL     1       7.756   6.536  18.793  0.00  0.00    +0.000 C 
BRANCH  20  22
ATOM     21  N   UNL     1       8.661   8.803  18.987  0.00  0.00    +0.000 N 
ATOM     22  C   UNL     1       8.069   7.871  18.146  0.00  0.00    +0.000 C 
ATOM     23  O   UNL     1       7.928   8.002  16.929  0.00  0.00    +0.000 OA
ATOM     24  H   UNL     1       8.945   8.481  19.912  0.00  0.00    +0.000 HD
BRANCH  21  29
ATOM     25  C   UNL     1      10.184  14.102  17.392  0.00  0.00    +0.000 C 
ATOM     26  C   UNL     1       9.799  12.718  17.815  0.00  0.00    +0.000 A 
ATOM     27  C   UNL     1      10.720  11.887  18.447  0.00  0.00    +0.000 A 
ATOM     28  C   UNL     1      10.354  10.592  18.834  0.00  0.00    +0.000 A 
ATOM     29  C   UNL     1       9.064  10.103  18.604  0.00  0.00    +0.000 A 
ATOM     30  C   UNL     1       8.142  10.932  17.960  0.00  0.00    +0.000 A 
ATOM     31  C   UNL     1       8.513  12.226  17.582  0.00  0.00    +0.000 A 
ATOM     32  F   UNL     1       7.604  13.010  16.984  0.00  0.00    +0.000 F 
ENDBRANCH  21  29
ENDBRANCH  20  22
ENDBRANCH   1  20
TORSDOF 5
ENDMDL
MODEL 5
REMARK VINA RESULT:      -9.0      2.254      2.940
REMARK  Name = 
REMARK  7 active torsions:
REMARK  status: ('A' for Active; 'I' for Inactive)
REMARK    1  A    between atoms: C_1  and  C_2
REMARK    2  A    between atoms: C_5  and  N_6
REMARK    3  A    between atoms: C_7  and  C_9
REMARK    4  A    between atoms: C_9  and  N_10
REMARK    5  A    between atoms: C_14  and  C_15
REMARK    6  A    between atoms: C_14  and  C_16
REMARK    7  A    between atoms: C_20  and  C_21
REMARK                            x       y       z     vdW  Elec       q    Type
REMARK                         _______ _______ _______ _____ _____    ______ ____
ROOT
ATOM      1  N   UNL     1       6.395   5.897  17.889  0.00  0.00    +0.000 N 
ATOM      2  C   UNL     1       6.244   5.448  19.159  0.00  0.00    +0.000 C 
ATOM      3  O   UNL     1       7.094   5.385  20.033  0.00  0.00    +0.000 OA
ATOM      4  N   UNL     1       4.939   5.062  19.337  0.00  0.00    +0.000 N 
ATOM      5  C   UNL     1       4.105   5.406  18.204  0.00  0.00    +0.000 C 
ATOM      6  C   UNL     1       3.241   4.214  17.812  0.00  0.00    +0.000 C 
ATOM      7  C   UNL     1       5.236   5.720  17.188  0.00  0.00    +0.000 C 
ATOM      8  O   UNL     1       5.121   5.870  15.977  0.00  0.00    +0.000 OA
ATOM      9  H   UNL     1       4.608   4.764  20.245  0.00  0.00    +0.000 HD
ENDROOT
BRANCH   5  10
ATOM     10  C   UNL     1       3.269   6.672  18.432  0.00  0.00    +0.000 A 
ATOM     11  C   UNL     1       3.220   7.662  17.432  0.00  0.00    +0.000 A 
ATOM     12  C   UNL     1       2.450   8.814  17.589  0.00  0.00    +0.000 A 
ATOM     13  C   UNL     1       1.710   9.007  18.753  0.00  0.00    +0.000 A 
ATOM     14  C   UNL     1       1.750   8.055  19.779  0.00  0.00    +0.000 A 
ATOM     15  C   UNL     1       2.542   6.902  19.615  0.00  0.00    +0.000 A 
BRANCH  14  16
ATOM     16  C   UNL     1       0.947   8.243  21.045  0.00  0.00    +0.000 C 
ATOM     17  F   UNL     1      -0.054   9.158  20.928  0.00  0.00    +0.000 F 
ATOM     18  F   UNL     1       0.350   7.088  21.450  0.00  0.00    +0.000 F 
ATOM     19  F   UNL     1       1.713   8.656  22.092  0.00  0.00    +0.000 F 
ENDBRANCH  14  16
ENDBRANCH   5  10
BRANCH   1  20
ATOM     20  C   UNL     1       7.560   6.597  17.403  0.00  0.00    +0.000 C 
BRANCH  20  22
ATOM     21  N   UNL     1       8.672   8.556  18.361  0.00  0.00    +0.000 N 
ATOM     22  C   UNL     1       7.560   8.088  17.676  0.00  0.00    +0.000 C 
ATOM     23  O   UNL     1       6.689   8.797  17.169  0.00  0.00    +0.000 OA
ATOM     24  H   UNL     1       9.438   7.899  18.510  0.00  0.00    +0.000 HD
BRANCH  21  29
ATOM     25  C   UNL     1       9.641  14.007  19.876  0.00  0.00    +0.000 C 
ATOM     26  C   UNL     1       9.387  12.588  19.468  0.00  0.00    +0.000 A 
ATOM     27  C   UNL     1       9.077  12.275  18.147  0.00  0.00    +0.000 A 
ATOM     28  C   UNL     1       8.837  10.948  17.774  0.00  0.00    +0.000 A 
ATOM     29  C   UNL     1       8.905   9.907  18.707  0.00  0.00    +0.000 A 
ATOM     30  C   UNL     1       9.205  10.222  20.035  0.00  0.00    +0.000 A 
ATOM     31  C   UNL     1       9.452  11.549  20.398  0.00  0.00    +0.000 A 
ATOM     32  F   UNL     1       9.758  11.823  21.675  0.00  0.00    +0.000 F 
ENDBRANCH  21  29
ENDBRANCH  20  22
ENDBRANCH   1  20
TORSDOF 5
ENDMDL
MODEL 6
REMARK VINA RESULT:      -9.0      1.460      1.966
REMARK  Name = 
REMARK  7 active torsions:
REMARK  status: ('A' for Active; 'I' for Inactive)
REMARK    1  A    between atoms: C_1  and  C_2
REMARK    2  A    between atoms: C_5  and  N_6
REMARK    3  A    between atoms: C_7  and  C_9
REMARK    4  A    between atoms: C_9  and  N_10
REMARK    5  A    between atoms: C_14  and  C_15
REMARK    6  A    between atoms: C_14  and  C_16
REMARK    7  A    between atoms: C_20  and  C_21
REMARK                            x       y       z     vdW  Elec       q    Type
REMARK                         _______ _______ _______ _____ _____    ______ ____
ROOT
ATOM      1  N   UNL     1       7.288   6.026  17.680  0.00  0.00    +0.000 N 
ATOM      2  C   UNL     1       7.558   4.704  17.555  0.00  0.00    +0.000 C 
ATOM      3  O   UNL     1       8.475   4.079  18.062  0.00  0.00    +0.000 OA
ATOM      4  N   UNL     1       6.606   4.136  16.745  0.00  0.00    +0.000 N 
ATOM      5  C   UNL     1       5.537   5.058  16.424  0.00  0.00    +0.000 C 
ATOM      6  C   UNL     1       5.240   5.013  14.930  0.00  0.00    +0.000 C 
ATOM      7  C   UNL     1       6.232   6.367  16.884  0.00  0.00    +0.000 C 
ATOM      8  O   UNL     1       5.870   7.516  16.656  0.00  0.00    +0.000 OA
ATOM      9  H   UNL     1       6.592   3.137  16.587  0.00  0.00    +0.000 HD
ENDROOT
BRANCH   5  10
ATOM     10  C   UNL     1       4.275   4.837  17.267  0.00  0.00    +0.000 A 
ATOM     11  C   UNL     1       3.464   5.937  17.608  0.00  0.00    +0.000 A 
ATOM     12  C   UNL     1       2.294   5.774  18.350  0.00  0.00    +0.000 A 
ATOM     13  C   UNL     1       1.906   4.505  18.773  0.00  0.00    +0.000 A 
ATOM     14  C   UNL     1       2.697   3.389  18.473  0.00  0.00    +0.000 A 
ATOM     15  C   UNL     1       3.883   3.567  17.735  0.00  0.00    +0.000 A 
BRANCH  14  16
ATOM     16  C   UNL     1       2.287   2.004  18.916  0.00  0.00    +0.000 C 
ATOM     17  F   UNL     1       3.166   1.031  18.550  0.00  0.00    +0.000 F 
ATOM     18  F   UNL     1       2.172   1.912  20.270  0.00  0.00    +0.000 F 
ATOM     19  F   UNL     1       1.080   1.631  18.411  0.00  0.00    +0.000 F 
ENDBRANCH  14  16
ENDBRANCH   5  10
BRANCH   1  20
ATOM     20  C   UNL     1       7.928   6.904  18.631  0.00  0.00    +0.000 C 
BRANCH  20  22
ATOM     21  N   UNL     1       8.741   9.184  19.002  0.00  0.00    +0.000 N 
ATOM     22  C   UNL     1       8.376   8.235  18.057  0.00  0.00    +0.000 C 
ATOM     23  O   UNL     1       8.530   8.349  16.840  0.00  0.00    +0.000 OA
ATOM     24  H   UNL     1       8.798   8.877  19.972  0.00  0.00    +0.000 HD
BRANCH  21  29
ATOM     25  C   UNL     1      10.763  14.432  17.857  0.00  0.00    +0.000 C 
ATOM     26  C   UNL     1      10.225  13.065  18.148  0.00  0.00    +0.000 A 
ATOM     27  C   UNL     1       8.958  12.694  17.707  0.00  0.00    +0.000 A 
ATOM     28  C   UNL     1       8.459  11.416  17.987  0.00  0.00    +0.000 A 
ATOM     29  C   UNL     1       9.214  10.484  18.707  0.00  0.00    +0.000 A 
ATOM     30  C   UNL     1      10.481  10.859  19.160  0.00  0.00    +0.000 A 
ATOM     31  C   UNL     1      10.975  12.135  18.869  0.00  0.00    +0.000 A 
ATOM     32  F   UNL     1      12.202  12.464  19.298  0.00  0.00    +0.000 F 
ENDBRANCH  21  29
ENDBRANCH  20  22
ENDBRANCH   1  20
TORSDOF 5
ENDMDL
MODEL 7
REMARK VINA RESULT:      -9.0      2.331      3.098
REMARK  Name = 
REMARK  7 active torsions:
REMARK  status: ('A' for Active; 'I' for Inactive)
REMARK    1  A    between atoms: C_1  and  C_2
REMARK    2  A    between atoms: C_5  and  N_6
REMARK    3  A    between atoms: C_7  and  C_9
REMARK    4  A    between atoms: C_9  and  N_10
REMARK    5  A    between atoms: C_14  and  C_15
REMARK    6  A    between atoms: C_14  and  C_16
REMARK    7  A    between atoms: C_20  and  C_21
REMARK                            x       y       z     vdW  Elec       q    Type
REMARK                         _______ _______ _______ _____ _____    ______ ____
ROOT
ATOM      1  N   UNL     1       6.475   5.923  17.948  0.00  0.00    +0.000 N 
ATOM      2  C   UNL     1       6.261   5.442  19.197  0.00  0.00    +0.000 C 
ATOM      3  O   UNL     1       7.068   5.344  20.107  0.00  0.00    +0.000 OA
ATOM      4  N   UNL     1       4.944   5.069  19.304  0.00  0.00    +0.000 N 
ATOM      5  C   UNL     1       4.168   5.454  18.144  0.00  0.00    +0.000 C 
ATOM      6  C   UNL     1       3.308   4.285  17.679  0.00  0.00    +0.000 C 
ATOM      7  C   UNL     1       5.348   5.781  17.190  0.00  0.00    +0.000 C 
ATOM      8  O   UNL     1       5.291   5.965  15.980  0.00  0.00    +0.000 OA
ATOM      9  H   UNL     1       4.568   4.751  20.187  0.00  0.00    +0.000 HD
ENDROOT
BRANCH   5  10
ATOM     10  C   UNL     1       3.337   6.725  18.368  0.00  0.00    +0.000 A 
ATOM     11  C   UNL     1       3.302   7.718  17.370  0.00  0.00    +0.000 A 
ATOM     12  C   UNL     1       2.537   8.874  17.523  0.00  0.00    +0.000 A 
ATOM     13  C   UNL     1       1.790   9.069  18.682  0.00  0.00    +0.000 A 
ATOM     14  C   UNL     1       1.816   8.115  19.706  0.00  0.00    +0.000 A 
ATOM     15  C   UNL     1       2.602   6.957  19.546  0.00  0.00    +0.000 A 
BRANCH  14  16
ATOM     16  C   UNL     1       1.005   8.305  20.967  0.00  0.00    +0.000 C 
ATOM     17  F   UNL     1      -0.080   9.111  20.803  0.00  0.00    +0.000 F 
ATOM     18  F   UNL     1       0.523   7.126  21.450  0.00  0.00    +0.000 F 
ATOM     19  F   UNL     1       1.732   8.854  21.977  0.00  0.00    +0.000 F 
ENDBRANCH  14  16
ENDBRANCH   5  10
BRANCH   1  20
ATOM     20  C   UNL     1       7.670   6.620  17.535  0.00  0.00    +0.000 C 
BRANCH  20  22
ATOM     21  N   UNL     1       8.773   8.550  18.560  0.00  0.00    +0.000 N 
ATOM     22  C   UNL     1       7.672   8.104  17.842  0.00  0.00    +0.000 C 
ATOM     23  O   UNL     1       6.815   8.829  17.334  0.00  0.00    +0.000 OA
ATOM     24  H   UNL     1       9.532   7.886  18.709  0.00  0.00    +0.000 HD
BRANCH  21  29
ATOM     25  C   UNL     1       9.711  14.030  19.988  0.00  0.00    +0.000 C 
ATOM     26  C   UNL     1       9.465  12.597  19.629  0.00  0.00    +0.000 A 
ATOM     27  C   UNL     1       9.362  11.625  20.620  0.00  0.00    +0.000 A 
ATOM     28  C   UNL     1       9.136  10.287  20.276  0.00  0.00    +0.000 A 
ATOM     29  C   UNL     1       9.006   9.892  18.940  0.00  0.00    +0.000 A 
ATOM     30  C   UNL     1       9.120  10.865  17.944  0.00  0.00    +0.000 A 
ATOM     31  C   UNL     1       9.338  12.201  18.296  0.00  0.00    +0.000 A 
ATOM     32  F   UNL     1       9.424  13.119  17.322  0.00  0.00    +0.000 F 
ENDBRANCH  21  29
ENDBRANCH  20  22
ENDBRANCH   1  20
TORSDOF 5
ENDMDL
MODEL 8
REMARK VINA RESULT:      -8.9      1.710      2.275
REMARK  Name = 
REMARK  7 active torsions:
REMARK  status: ('A' for Active; 'I' for Inactive)
REMARK    1  A    between atoms: C_1  and  C_2
REMARK    2  A    between atoms: C_5  and  N_6
REMARK    3  A    between atoms: C_7  and  C_9
REMARK    4  A    between atoms: C_9  and  N_10
REMARK    5  A    between atoms: C_14  and  C_15
REMARK    6  A    between atoms: C_14  and  C_16
REMARK    7  A    between atoms: C_20  and  C_21
REMARK                            x       y       z     vdW  Elec       q    Type
REMARK                         _______ _______ _______ _____ _____    ______ ____
ROOT
ATOM      1  N   UNL     1       7.256   6.018  17.747  0.00  0.00    +0.000 N 
ATOM      2  C   UNL     1       7.521   4.690  17.701  0.00  0.00    +0.000 C 
ATOM      3  O   UNL     1       8.421   4.089  18.264  0.00  0.00    +0.000 OA
ATOM      4  N   UNL     1       6.586   4.083  16.898  0.00  0.00    +0.000 N 
ATOM      5  C   UNL     1       5.531   4.992  16.501  0.00  0.00    +0.000 C 
ATOM      6  C   UNL     1       5.271   4.867  15.005  0.00  0.00    +0.000 C 
ATOM      7  C   UNL     1       6.223   6.321  16.907  0.00  0.00    +0.000 C 
ATOM      8  O   UNL     1       5.873   7.457  16.609  0.00  0.00    +0.000 OA
ATOM      9  H   UNL     1       6.570   3.077  16.795  0.00  0.00    +0.000 HD
ENDROOT
BRANCH   5  10
ATOM     10  C   UNL     1       4.247   4.822  17.323  0.00  0.00    +0.000 A 
ATOM     11  C   UNL     1       3.458   5.950  17.621  0.00  0.00    +0.000 A 
ATOM     12  C   UNL     1       2.269   5.834  18.341  0.00  0.00    +0.000 A 
ATOM     13  C   UNL     1       1.840   4.586  18.786  0.00  0.00    +0.000 A 
ATOM     14  C   UNL     1       2.608   3.444  18.529  0.00  0.00    +0.000 A 
ATOM     15  C   UNL     1       3.814   3.575  17.812  0.00  0.00    +0.000 A 
BRANCH  14  16
ATOM     16  C   UNL     1       2.155   2.080  18.996  0.00  0.00    +0.000 C 
ATOM     17  F   UNL     1       0.919   1.731  18.545  0.00  0.00    +0.000 F 
ATOM     18  F   UNL     1       2.995   1.091  18.584  0.00  0.00    +0.000 F 
ATOM     19  F   UNL     1       2.101   1.985  20.352  0.00  0.00    +0.000 F 
ENDBRANCH  14  16
ENDBRANCH   5  10
BRANCH   1  20
ATOM     20  C   UNL     1       7.877   6.944  18.665  0.00  0.00    +0.000 C 
BRANCH  20  22
ATOM     21  N   UNL     1       8.748   9.216  18.936  0.00  0.00    +0.000 N 
ATOM     22  C   UNL     1       8.336   8.244  18.034  0.00  0.00    +0.000 C 
ATOM     23  O   UNL     1       8.458   8.314  16.810  0.00  0.00    +0.000 OA
ATOM     24  H   UNL     1       8.826   8.941  19.914  0.00  0.00    +0.000 HD
BRANCH  21  29
ATOM     25  C   UNL     1      10.628  14.440  17.479  0.00  0.00    +0.000 C 
ATOM     26  C   UNL     1      10.150  13.074  17.864  0.00  0.00    +0.000 A 
ATOM     27  C   UNL     1      11.041  12.122  18.353  0.00  0.00    +0.000 A 
ATOM     28  C   UNL     1      10.587  10.846  18.706  0.00  0.00    +0.000 A 
ATOM     29  C   UNL     1       9.239  10.495  18.583  0.00  0.00    +0.000 A 
ATOM     30  C   UNL     1       8.346  11.445  18.082  0.00  0.00    +0.000 A 
ATOM     31  C   UNL     1       8.805  12.720  17.739  0.00  0.00    +0.000 A 
ATOM     32  F   UNL     1       7.925  13.622  17.280  0.00  0.00    +0.000 F 
ENDBRANCH  21  29
ENDBRANCH  20  22
ENDBRANCH   1  20
TORSDOF 5
ENDMDL
MODEL 9
REMARK VINA RESULT:      -8.8      1.563      2.013
REMARK  Name = 
REMARK  7 active torsions:
REMARK  status: ('A' for Active; 'I' for Inactive)
REMARK    1  A    between atoms: C_1  and  C_2
REMARK    2  A    between atoms: C_5  and  N_6
REMARK    3  A    between atoms: C_7  and  C_9
REMARK    4  A    between atoms: C_9  and  N_10
REMARK    5  A    between atoms: C_14  and  C_15
REMARK    6  A    between atoms: C_14  and  C_16
REMARK    7  A    between atoms: C_20  and  C_21
REMARK                            x       y       z     vdW  Elec       q    Type
REMARK                         _______ _______ _______ _____ _____    ______ ____
ROOT
ATOM      1  N   UNL     1       7.358   6.041  17.766  0.00  0.00    +0.000 N 
ATOM      2  C   UNL     1       7.588   4.728  17.523  0.00  0.00    +0.000 C 
ATOM      3  O   UNL     1       8.486   4.033  17.971  0.00  0.00    +0.000 OA
ATOM      4  N   UNL     1       6.619   4.262  16.669  0.00  0.00    +0.000 N 
ATOM      5  C   UNL     1       5.578   5.242  16.434  0.00  0.00    +0.000 C 
ATOM      6  C   UNL     1       5.279   5.337  14.944  0.00  0.00    +0.000 C 
ATOM      7  C   UNL     1       6.313   6.483  17.006  0.00  0.00    +0.000 C 
ATOM      8  O   UNL     1       5.986   7.658  16.882  0.00  0.00    +0.000 OA
ATOM      9  H   UNL     1       6.574   3.282  16.424  0.00  0.00    +0.000 HD
ENDROOT
BRANCH   5  10
ATOM     10  C   UNL     1       4.310   4.984  17.259  0.00  0.00    +0.000 A 
ATOM     11  C   UNL     1       3.462   6.060  17.585  0.00  0.00    +0.000 A 
ATOM     12  C   UNL     1       2.286   5.864  18.309  0.00  0.00    +0.000 A 
ATOM     13  C   UNL     1       1.929   4.586  18.729  0.00  0.00    +0.000 A 
ATOM     14  C   UNL     1       2.757   3.493  18.444  0.00  0.00    +0.000 A 
ATOM     15  C   UNL     1       3.949   3.705  17.724  0.00  0.00    +0.000 A 
BRANCH  14  16
ATOM     16  C   UNL     1       2.382   2.097  18.884  0.00  0.00    +0.000 C 
ATOM     17  F   UNL     1       1.122   1.730  18.523  0.00  0.00    +0.000 F 
ATOM     18  F   UNL     1       3.211   1.153  18.359  0.00  0.00    +0.000 F 
ATOM     19  F   UNL     1       2.447   1.942  20.235  0.00  0.00    +0.000 F 
ENDBRANCH  14  16
ENDBRANCH   5  10
BRANCH   1  20
ATOM     20  C   UNL     1       8.025   6.812  18.789  0.00  0.00    +0.000 C 
BRANCH  20  22
ATOM     21  N   UNL     1       8.947   9.002  19.380  0.00  0.00    +0.000 N 
ATOM     22  C   UNL     1       8.399   8.221  18.372  0.00  0.00    +0.000 C 
ATOM     23  O   UNL     1       8.341   8.537  17.182  0.00  0.00    +0.000 OA
ATOM     24  H   UNL     1       9.164   8.539  20.262  0.00  0.00    +0.000 HD
BRANCH  21  29
ATOM     25  C   UNL     1      10.754  14.426  18.868  0.00  0.00    +0.000 C 
ATOM     26  C   UNL     1      10.285  13.009  18.988  0.00  0.00    +0.000 A 
ATOM     27  C   UNL     1      10.153  12.207  17.858  0.00  0.00    +0.000 A 
ATOM     28  C   UNL     1       9.710  10.884  17.978  0.00  0.00    +0.000 A 
ATOM     29  C   UNL     1       9.393  10.335  19.224  0.00  0.00    +0.000 A 
ATOM     30  C   UNL     1       9.514  11.142  20.358  0.00  0.00    +0.000 A 
ATOM     31  C   UNL     1       9.965  12.460  20.231  0.00  0.00    +0.000 A 
ATOM     32  F   UNL     1      10.092  13.208  21.337  0.00  0.00    +0.000 F 
ENDBRANCH  21  29
ENDBRANCH  20  22
ENDBRANCH   1  20
TORSDOF 5
ENDMDL
