MODEL 1
REMARK VINA RESULT:      -8.6      0.000      0.000
REMARK  Name = 
REMARK  2 active torsions:
REMARK  status: ('A' for Active; 'I' for Inactive)
REMARK    1  A    between atoms: C_2  and  C_3
REMARK    2  A    between atoms: C_22  and  C_23
REMARK                            x       y       z     vdW  Elec       q    Type
REMARK                         _______ _______ _______ _____ _____    ______ ____
ROOT
ATOM      1  C   UNL     1       2.755   7.642  18.871  0.00  0.00    +0.000 A 
ATOM      2  N   UNL     1       2.423   8.654  17.977  0.00  0.00    +0.000 NA
ATOM      3  C   UNL     1       1.460   9.287  18.585  0.00  0.00    +0.000 A 
ATOM      4  N   UNL     1       1.300   8.796  19.862  0.00  0.00    +0.000 N 
ATOM      5  N   UNL     1       2.135   7.762  20.069  0.00  0.00    +0.000 NA
ATOM      6  C   UNL     1       0.472   9.389  20.835  0.00  0.00    +0.000 A 
ATOM      7  C   UNL     1       0.592   9.051  22.185  0.00  0.00    +0.000 A 
ATOM      8  C   UNL     1      -0.171   9.744  23.132  0.00  0.00    +0.000 A 
ATOM      9  C   UNL     1      -1.058  10.752  22.737  0.00  0.00    +0.000 A 
ATOM     10  C   UNL     1      -1.202  11.071  21.387  0.00  0.00    +0.000 A 
ATOM     11  C   UNL     1      -0.437  10.384  20.441  0.00  0.00    +0.000 A 
ATOM     12  S   UNL     1      -0.704  10.716  18.720  0.00  0.00    +0.000 S 
ATOM     13  O   UNL     1      -1.667   9.748  18.253  0.00  0.00    +0.000 OA
ATOM     14  O   UNL     1      -0.903  12.139  18.566  0.00  0.00    +0.000 OA
ATOM     15  N   UNL     1       0.767  10.364  18.022  0.00  0.00    +0.000 N 
ATOM     16  H   UNL     1       1.054  10.807  17.156  0.00  0.00    +0.000 HD
ENDROOT
BRANCH   1  18
ATOM     17  O   UNL     1       4.837   6.497  18.880  0.00  0.00    +0.000 OA
ATOM     18  C   UNL     1       3.652   6.494  18.538  0.00  0.00    +0.000 C 
ATOM     19  N   UNL     1       3.094   5.379  17.899  0.00  0.00    +0.000 N 
ATOM     20  C   UNL     1       1.684   5.146  17.631  0.00  0.00    +0.000 C 
ATOM     21  C   UNL     1       1.481   3.670  17.905  0.00  0.00    +0.000 C 
ATOM     22  C   UNL     1       2.805   3.037  17.513  0.00  0.00    +0.000 C 
ATOM     23  C   UNL     1       3.858   4.136  17.770  0.00  0.00    +0.000 C 
BRANCH  23  24
ATOM     24  C   UNL     1       4.892   4.157  16.659  0.00  0.00    +0.000 A 
ATOM     25  C   UNL     1       6.268   4.230  16.936  0.00  0.00    +0.000 A 
ATOM     26  C   UNL     1       7.203   4.324  15.903  0.00  0.00    +0.000 A 
ATOM     27  C   UNL     1       6.779   4.333  14.577  0.00  0.00    +0.000 A 
ATOM     28  C   UNL     1       5.420   4.250  14.283  0.00  0.00    +0.000 A 
ATOM     29  C   UNL     1       4.482   4.164  15.316  0.00  0.00    +0.000 A 
ENDBRANCH  23  24
ENDBRANCH   1  18
TORSDOF 2
ENDMDL
MODEL 2
REMARK VINA RESULT:      -8.4      2.716      8.444
REMARK  Name = 
REMARK  2 active torsions:
REMARK  status: ('A' for Active; 'I' for Inactive)
REMARK    1  A    between atoms: C_2  and  C_3
REMARK    2  A    between atoms: C_22  and  C_23
REMARK                            x       y       z     vdW  Elec       q    Type
REMARK                         _______ _______ _______ _____ _____    ______ ____
ROOT
ATOM      1  C   UNL     1       1.825   8.269  19.319  0.00  0.00    +0.000 A 
ATOM      2  N   UNL     1       1.946   7.280  20.288  0.00  0.00    +0.000 NA
ATOM      3  C   UNL     1       2.618   6.343  19.679  0.00  0.00    +0.000 A 
ATOM      4  N   UNL     1       3.031   6.783  18.442  0.00  0.00    +0.000 N 
ATOM      5  N   UNL     1       2.554   8.019  18.205  0.00  0.00    +0.000 NA
ATOM      6  C   UNL     1       3.931   6.079  17.618  0.00  0.00    +0.000 A 
ATOM      7  C   UNL     1       4.560   6.706  16.539  0.00  0.00    +0.000 A 
ATOM      8  C   UNL     1       5.530   6.005  15.814  0.00  0.00    +0.000 A 
ATOM      9  C   UNL     1       5.858   4.686  16.148  0.00  0.00    +0.000 A 
ATOM     10  C   UNL     1       5.210   4.047  17.205  0.00  0.00    +0.000 A 
ATOM     11  C   UNL     1       4.245   4.747  17.933  0.00  0.00    +0.000 A 
ATOM     12  S   UNL     1       3.347   3.897  19.203  0.00  0.00    +0.000 S 
ATOM     13  O   UNL     1       2.139   3.396  18.594  0.00  0.00    +0.000 OA
ATOM     14  O   UNL     1       4.272   3.037  19.904  0.00  0.00    +0.000 OA
ATOM     15  N   UNL     1       2.928   5.110  20.264  0.00  0.00    +0.000 N 
ATOM     16  H   UNL     1       2.764   4.914  21.245  0.00  0.00    +0.000 HD
ENDROOT
BRANCH   1  18
ATOM     17  O   UNL     1       0.346   9.919  18.463  0.00  0.00    +0.000 OA
ATOM     18  C   UNL     1       0.932   9.459  19.446  0.00  0.00    +0.000 C 
ATOM     19  N   UNL     1       0.711   9.991  20.724  0.00  0.00    +0.000 N 
ATOM     20  C   UNL     1       1.158   9.428  21.989  0.00  0.00    +0.000 C 
ATOM     21  C   UNL     1      -0.003   9.650  22.937  0.00  0.00    +0.000 C 
ATOM     22  C   UNL     1      -0.627  10.950  22.459  0.00  0.00    +0.000 C 
ATOM     23  C   UNL     1      -0.335  10.993  20.943  0.00  0.00    +0.000 C 
BRANCH  23  24
ATOM     24  C   UNL     1       0.050  12.396  20.511  0.00  0.00    +0.000 A 
ATOM     25  C   UNL     1      -0.807  13.184  19.723  0.00  0.00    +0.000 A 
ATOM     26  C   UNL     1      -0.408  14.444  19.271  0.00  0.00    +0.000 A 
ATOM     27  C   UNL     1       0.847  14.941  19.610  0.00  0.00    +0.000 A 
ATOM     28  C   UNL     1       1.705  14.179  20.400  0.00  0.00    +0.000 A 
ATOM     29  C   UNL     1       1.311  12.914  20.846  0.00  0.00    +0.000 A 
ENDBRANCH  23  24
ENDBRANCH   1  18
TORSDOF 2
ENDMDL
MODEL 3
REMARK VINA RESULT:      -8.3      2.806      8.419
REMARK  Name = 
REMARK  2 active torsions:
REMARK  status: ('A' for Active; 'I' for Inactive)
REMARK    1  A    between atoms: C_2  and  C_3
REMARK    2  A    between atoms: C_22  and  C_23
REMARK                            x       y       z     vdW  Elec       q    Type
REMARK                         _______ _______ _______ _____ _____    ______ ____
ROOT
ATOM      1  C   UNL     1       1.880   8.052  19.544  0.00  0.00    +0.000 A 
ATOM      2  N   UNL     1       2.173   7.047  20.458  0.00  0.00    +0.000 NA
ATOM      3  C   UNL     1       2.855   6.188  19.753  0.00  0.00    +0.000 A 
ATOM      4  N   UNL     1       3.111   6.701  18.500  0.00  0.00    +0.000 N 
ATOM      5  N   UNL     1       2.516   7.899  18.359  0.00  0.00    +0.000 NA
ATOM      6  C   UNL     1       3.981   6.101  17.569  0.00  0.00    +0.000 A 
ATOM      7  C   UNL     1       4.452   6.812  16.462  0.00  0.00    +0.000 A 
ATOM      8  C   UNL     1       5.400   6.217  15.622  0.00  0.00    +0.000 A 
ATOM      9  C   UNL     1       5.863   4.920  15.872  0.00  0.00    +0.000 A 
ATOM     10  C   UNL     1       5.372   4.197  16.958  0.00  0.00    +0.000 A 
ATOM     11  C   UNL     1       4.429   4.790  17.800  0.00  0.00    +0.000 A 
ATOM     12  S   UNL     1       3.728   3.828  19.114  0.00  0.00    +0.000 S 
ATOM     13  O   UNL     1       2.511   3.247  18.600  0.00  0.00    +0.000 OA
ATOM     14  O   UNL     1       4.782   3.026  19.691  0.00  0.00    +0.000 OA
ATOM     15  N   UNL     1       3.317   4.968  20.257  0.00  0.00    +0.000 N 
ATOM     16  H   UNL     1       3.265   4.727  21.240  0.00  0.00    +0.000 HD
ENDROOT
BRANCH   1  18
ATOM     17  O   UNL     1       0.098   9.087  20.727  0.00  0.00    +0.000 OA
ATOM     18  C   UNL     1       0.911   9.159  19.802  0.00  0.00    +0.000 C 
ATOM     19  N   UNL     1       1.002  10.318  19.018  0.00  0.00    +0.000 N 
ATOM     20  C   UNL     1       2.037  10.630  18.045  0.00  0.00    +0.000 C 
ATOM     21  C   UNL     1       2.309  12.107  18.239  0.00  0.00    +0.000 C 
ATOM     22  C   UNL     1       0.965  12.680  18.652  0.00  0.00    +0.000 C 
ATOM     23  C   UNL     1       0.250  11.522  19.380  0.00  0.00    +0.000 C 
BRANCH  23  24
ATOM     24  C   UNL     1      -1.218  11.474  19.000  0.00  0.00    +0.000 A 
ATOM     25  C   UNL     1      -1.665  10.755  17.877  0.00  0.00    +0.000 A 
ATOM     26  C   UNL     1      -3.008  10.781  17.497  0.00  0.00    +0.000 A 
ATOM     27  C   UNL     1      -3.929  11.515  18.240  0.00  0.00    +0.000 A 
ATOM     28  C   UNL     1      -3.506  12.224  19.362  0.00  0.00    +0.000 A 
ATOM     29  C   UNL     1      -2.161  12.206  19.739  0.00  0.00    +0.000 A 
ENDBRANCH  23  24
ENDBRANCH   1  18
TORSDOF 2
ENDMDL
MODEL 4
REMARK VINA RESULT:      -8.3      1.940      2.555
REMARK  Name = 
REMARK  2 active torsions:
REMARK  status: ('A' for Active; 'I' for Inactive)
REMARK    1  A    between atoms: C_2  and  C_3
REMARK    2  A    between atoms: C_22  and  C_23
REMARK                            x       y       z     vdW  Elec       q    Type
REMARK                         _______ _______ _______ _____ _____    ______ ____
ROOT
ATOM      1  C   UNL     1       2.534   6.728  19.642  0.00  0.00    +0.000 A 
ATOM      2  N   UNL     1       1.703   6.467  20.725  0.00  0.00    +0.000 NA
ATOM      3  C   UNL     1       1.153   7.625  20.967  0.00  0.00    +0.000 A 
ATOM      4  N   UNL     1       1.502   8.529  19.989  0.00  0.00    +0.000 N 
ATOM      5  N   UNL     1       2.363   7.967  19.122  0.00  0.00    +0.000 NA
ATOM      6  C   UNL     1       0.925   9.808  19.859  0.00  0.00    +0.000 A 
ATOM      7  C   UNL     1       1.071  10.548  18.683  0.00  0.00    +0.000 A 
ATOM      8  C   UNL     1       0.391  11.764  18.553  0.00  0.00    +0.000 A 
ATOM      9  C   UNL     1      -0.415  12.247  19.591  0.00  0.00    +0.000 A 
ATOM     10  C   UNL     1      -0.539  11.525  20.777  0.00  0.00    +0.000 A 
ATOM     11  C   UNL     1       0.136  10.309  20.907  0.00  0.00    +0.000 A 
ATOM     12  S   UNL     1       0.064   9.450  22.457  0.00  0.00    +0.000 S 
ATOM     13  O   UNL     1       1.217   9.867  23.217  0.00  0.00    +0.000 OA
ATOM     14  O   UNL     1      -1.282   9.568  22.969  0.00  0.00    +0.000 OA
ATOM     15  N   UNL     1       0.272   7.854  22.029  0.00  0.00    +0.000 N 
ATOM     16  H   UNL     1      -0.099   7.107  22.604  0.00  0.00    +0.000 HD
ENDROOT
BRANCH   1  18
ATOM     17  O   UNL     1       4.740   5.857  19.498  0.00  0.00    +0.000 OA
ATOM     18  C   UNL     1       3.565   5.775  19.131  0.00  0.00    +0.000 C 
ATOM     19  N   UNL     1       3.149   4.735  18.288  0.00  0.00    +0.000 N 
ATOM     20  C   UNL     1       1.779   4.388  17.946  0.00  0.00    +0.000 C 
ATOM     21  C   UNL     1       1.757   2.873  17.945  0.00  0.00    +0.000 C 
ATOM     22  C   UNL     1       3.150   2.485  17.480  0.00  0.00    +0.000 C 
ATOM     23  C   UNL     1       4.060   3.637  17.956  0.00  0.00    +0.000 C 
BRANCH  23  24
ATOM     24  C   UNL     1       5.087   3.983  16.894  0.00  0.00    +0.000 A 
ATOM     25  C   UNL     1       6.420   4.279  17.228  0.00  0.00    +0.000 A 
ATOM     26  C   UNL     1       7.335   4.668  16.247  0.00  0.00    +0.000 A 
ATOM     27  C   UNL     1       6.936   4.755  14.916  0.00  0.00    +0.000 A 
ATOM     28  C   UNL     1       5.622   4.454  14.565  0.00  0.00    +0.000 A 
ATOM     29  C   UNL     1       4.703   4.073  15.547  0.00  0.00    +0.000 A 
ENDBRANCH  23  24
ENDBRANCH   1  18
TORSDOF 2
ENDMDL
MODEL 5
REMARK VINA RESULT:      -8.2      1.717      2.655
REMARK  Name = 
REMARK  2 active torsions:
REMARK  status: ('A' for Active; 'I' for Inactive)
REMARK    1  A    between atoms: C_2  and  C_3
REMARK    2  A    between atoms: C_22  and  C_23
REMARK                            x       y       z     vdW  Elec       q    Type
REMARK                         _______ _______ _______ _____ _____    ______ ____
ROOT
ATOM      1  C   UNL     1       2.352   7.132  19.480  0.00  0.00    +0.000 A 
ATOM      2  N   UNL     1       1.996   7.355  20.805  0.00  0.00    +0.000 NA
ATOM      3  C   UNL     1       1.233   8.410  20.736  0.00  0.00    +0.000 A 
ATOM      4  N   UNL     1       0.996   8.741  19.420  0.00  0.00    +0.000 N 
ATOM      5  N   UNL     1       1.683   7.920  18.605  0.00  0.00    +0.000 NA
ATOM      6  C   UNL     1       0.063   9.713  19.010  0.00  0.00    +0.000 A 
ATOM      7  C   UNL     1      -0.369   9.781  17.683  0.00  0.00    +0.000 A 
ATOM      8  C   UNL     1      -1.378  10.688  17.340  0.00  0.00    +0.000 A 
ATOM      9  C   UNL     1      -1.940  11.531  18.305  0.00  0.00    +0.000 A 
ATOM     10  C   UNL     1      -1.490  11.487  19.624  0.00  0.00    +0.000 A 
ATOM     11  C   UNL     1      -0.486  10.579  19.969  0.00  0.00    +0.000 A 
ATOM     12  S   UNL     1       0.159  10.603  21.621  0.00  0.00    +0.000 S 
ATOM     13  O   UNL     1       1.316  11.466  21.603  0.00  0.00    +0.000 OA
ATOM     14  O   UNL     1      -0.946  10.811  22.528  0.00  0.00    +0.000 OA
ATOM     15  N   UNL     1       0.682   9.040  21.858  0.00  0.00    +0.000 N 
ATOM     16  H   UNL     1       0.733   8.641  22.789  0.00  0.00    +0.000 HD
ENDROOT
BRANCH   1  18
ATOM     17  O   UNL     1       4.579   6.307  19.426  0.00  0.00    +0.000 OA
ATOM     18  C   UNL     1       3.412   6.171  19.050  0.00  0.00    +0.000 C 
ATOM     19  N   UNL     1       3.033   5.065  18.277  0.00  0.00    +0.000 N 
ATOM     20  C   UNL     1       1.677   4.662  17.943  0.00  0.00    +0.000 C 
ATOM     21  C   UNL     1       1.691   3.150  18.048  0.00  0.00    +0.000 C 
ATOM     22  C   UNL     1       3.099   2.764  17.629  0.00  0.00    +0.000 C 
ATOM     23  C   UNL     1       3.974   3.969  18.035  0.00  0.00    +0.000 C 
BRANCH  23  24
ATOM     24  C   UNL     1       5.009   4.265  16.964  0.00  0.00    +0.000 A 
ATOM     25  C   UNL     1       4.671   4.283  15.600  0.00  0.00    +0.000 A 
ATOM     26  C   UNL     1       5.647   4.483  14.622  0.00  0.00    +0.000 A 
ATOM     27  C   UNL     1       6.974   4.681  14.992  0.00  0.00    +0.000 A 
ATOM     28  C   UNL     1       7.326   4.678  16.340  0.00  0.00    +0.000 A 
ATOM     29  C   UNL     1       6.351   4.469  17.319  0.00  0.00    +0.000 A 
ENDBRANCH  23  24
ENDBRANCH   1  18
TORSDOF 2
ENDMDL
MODEL 6
REMARK VINA RESULT:      -8.1      2.806      8.420
REMARK  Name = 
REMARK  2 active torsions:
REMARK  status: ('A' for Active; 'I' for Inactive)
REMARK    1  A    between atoms: C_2  and  C_3
REMARK    2  A    between atoms: C_22  and  C_23
REMARK                            x       y       z     vdW  Elec       q    Type
REMARK                         _______ _______ _______ _____ _____    ______ ____
ROOT
ATOM      1  C   UNL     1       1.496   8.334  19.921  0.00  0.00    +0.000 A 
ATOM      2  N   UNL     1       1.616   7.286  20.825  0.00  0.00    +0.000 NA
ATOM      3  C   UNL     1       2.261   6.377  20.148  0.00  0.00    +0.000 A 
ATOM      4  N   UNL     1       2.661   6.887  18.933  0.00  0.00    +0.000 N 
ATOM      5  N   UNL     1       2.202   8.142  18.782  0.00  0.00    +0.000 NA
ATOM      6  C   UNL     1       3.535   6.221  18.051  0.00  0.00    +0.000 A 
ATOM      7  C   UNL     1       4.157   6.902  17.003  0.00  0.00    +0.000 A 
ATOM      8  C   UNL     1       5.102   6.232  16.219  0.00  0.00    +0.000 A 
ATOM      9  C   UNL     1       5.413   4.890  16.465  0.00  0.00    +0.000 A 
ATOM     10  C   UNL     1       4.771   4.198  17.491  0.00  0.00    +0.000 A 
ATOM     11  C   UNL     1       3.831   4.867  18.278  0.00  0.00    +0.000 A 
ATOM     12  S   UNL     1       2.939   3.954  19.509  0.00  0.00    +0.000 S 
ATOM     13  O   UNL     1       1.712   3.511  18.891  0.00  0.00    +0.000 OA
ATOM     14  O   UNL     1       3.861   3.037  20.139  0.00  0.00    +0.000 OA
ATOM     15  N   UNL     1       2.559   5.106  20.650  0.00  0.00    +0.000 N 
ATOM     16  H   UNL     1       2.408   4.851  21.620  0.00  0.00    +0.000 HD
ENDROOT
BRANCH   1  18
ATOM     17  O   UNL     1      -0.160   9.577  21.087  0.00  0.00    +0.000 OA
ATOM     18  C   UNL     1       0.626   9.530  20.138  0.00  0.00    +0.000 C 
ATOM     19  N   UNL     1       0.782  10.629  19.283  0.00  0.00    +0.000 N 
ATOM     20  C   UNL     1       1.806  10.800  18.265  0.00  0.00    +0.000 C 
ATOM     21  C   UNL     1       2.200  12.260  18.361  0.00  0.00    +0.000 C 
ATOM     22  C   UNL     1       0.919  12.962  18.775  0.00  0.00    +0.000 C 
ATOM     23  C   UNL     1       0.140  11.909  19.592  0.00  0.00    +0.000 C 
BRANCH  23  24
ATOM     24  C   UNL     1      -1.339  11.957  19.256  0.00  0.00    +0.000 A 
ATOM     25  C   UNL     1      -2.285  12.460  20.166  0.00  0.00    +0.000 A 
ATOM     26  C   UNL     1      -3.650  12.429  19.873  0.00  0.00    +0.000 A 
ATOM     27  C   UNL     1      -4.091  11.908  18.660  0.00  0.00    +0.000 A 
ATOM     28  C   UNL     1      -3.167  11.416  17.740  0.00  0.00    +0.000 A 
ATOM     29  C   UNL     1      -1.801  11.438  18.036  0.00  0.00    +0.000 A 
ENDBRANCH  23  24
ENDBRANCH   1  18
TORSDOF 2
ENDMDL
MODEL 7
REMARK VINA RESULT:      -8.1      2.642      8.106
REMARK  Name = 
REMARK  2 active torsions:
REMARK  status: ('A' for Active; 'I' for Inactive)
REMARK    1  A    between atoms: C_2  and  C_3
REMARK    2  A    between atoms: C_22  and  C_23
REMARK                            x       y       z     vdW  Elec       q    Type
REMARK                         _______ _______ _______ _____ _____    ______ ____
ROOT
ATOM      1  C   UNL     1       2.195   7.917  18.147  0.00  0.00    +0.000 A 
ATOM      2  N   UNL     1       3.517   7.993  17.725  0.00  0.00    +0.000 NA
ATOM      3  C   UNL     1       3.944   6.767  17.852  0.00  0.00    +0.000 A 
ATOM      4  N   UNL     1       2.900   5.934  18.188  0.00  0.00    +0.000 N 
ATOM      5  N   UNL     1       1.772   6.647  18.357  0.00  0.00    +0.000 NA
ATOM      6  C   UNL     1       2.994   4.529  18.215  0.00  0.00    +0.000 A 
ATOM      7  C   UNL     1       1.848   3.731  18.242  0.00  0.00    +0.000 A 
ATOM      8  C   UNL     1       1.982   2.341  18.156  0.00  0.00    +0.000 A 
ATOM      9  C   UNL     1       3.246   1.749  18.060  0.00  0.00    +0.000 A 
ATOM     10  C   UNL     1       4.394   2.541  18.063  0.00  0.00    +0.000 A 
ATOM     11  C   UNL     1       4.262   3.929  18.144  0.00  0.00    +0.000 A 
ATOM     12  S   UNL     1       5.726   4.923  18.258  0.00  0.00    +0.000 S 
ATOM     13  O   UNL     1       5.978   5.132  19.664  0.00  0.00    +0.000 OA
ATOM     14  O   UNL     1       6.717   4.360  17.371  0.00  0.00    +0.000 OA
ATOM     15  N   UNL     1       5.262   6.378  17.592  0.00  0.00    +0.000 N 
ATOM     16  H   UNL     1       5.941   6.996  17.164  0.00  0.00    +0.000 HD
ENDROOT
BRANCH   1  18
ATOM     17  O   UNL     1       0.823   9.740  17.484  0.00  0.00    +0.000 OA
ATOM     18  C   UNL     1       1.333   9.107  18.413  0.00  0.00    +0.000 C 
ATOM     19  N   UNL     1       1.050   9.440  19.745  0.00  0.00    +0.000 N 
ATOM     20  C   UNL     1       1.400   8.667  20.926  0.00  0.00    +0.000 C 
ATOM     21  C   UNL     1       0.190   8.783  21.830  0.00  0.00    +0.000 C 
ATOM     22  C   UNL     1      -0.363  10.166  21.531  0.00  0.00    +0.000 C 
ATOM     23  C   UNL     1       0.024  10.435  20.061  0.00  0.00    +0.000 C 
BRANCH  23  24
ATOM     24  C   UNL     1       0.477  11.872  19.881  0.00  0.00    +0.000 A 
ATOM     25  C   UNL     1      -0.167  12.741  18.983  0.00  0.00    +0.000 A 
ATOM     26  C   UNL     1       0.307  14.037  18.773  0.00  0.00    +0.000 A 
ATOM     27  C   UNL     1       1.426  14.490  19.467  0.00  0.00    +0.000 A 
ATOM     28  C   UNL     1       2.071  13.648  20.370  0.00  0.00    +0.000 A 
ATOM     29  C   UNL     1       1.602  12.347  20.574  0.00  0.00    +0.000 A 
ENDBRANCH  23  24
ENDBRANCH   1  18
TORSDOF 2
ENDMDL
MODEL 8
REMARK VINA RESULT:      -8.1      3.128      8.599
REMARK  Name = 
REMARK  2 active torsions:
REMARK  status: ('A' for Active; 'I' for Inactive)
REMARK    1  A    between atoms: C_2  and  C_3
REMARK    2  A    between atoms: C_22  and  C_23
REMARK                            x       y       z     vdW  Elec       q    Type
REMARK                         _______ _______ _______ _____ _____    ______ ____
ROOT
ATOM      1  C   UNL     1       1.427   8.308  20.301  0.00  0.00    +0.000 A 
ATOM      2  N   UNL     1       2.152   8.360  19.116  0.00  0.00    +0.000 NA
ATOM      3  C   UNL     1       2.569   7.134  18.964  0.00  0.00    +0.000 A 
ATOM      4  N   UNL     1       2.005   6.320  19.921  0.00  0.00    +0.000 N 
ATOM      5  N   UNL     1       1.255   7.048  20.768  0.00  0.00    +0.000 NA
ATOM      6  C   UNL     1       2.106   4.915  19.916  0.00  0.00    +0.000 A 
ATOM      7  C   UNL     1       1.263   4.129  20.705  0.00  0.00    +0.000 A 
ATOM      8  C   UNL     1       1.320   2.736  20.588  0.00  0.00    +0.000 A 
ATOM      9  C   UNL     1       2.220   2.129  19.704  0.00  0.00    +0.000 A 
ATOM     10  C   UNL     1       3.084   2.910  18.936  0.00  0.00    +0.000 A 
ATOM     11  C   UNL     1       3.025   4.301  19.049  0.00  0.00    +0.000 A 
ATOM     12  S   UNL     1       4.199   5.283  18.154  0.00  0.00    +0.000 S 
ATOM     13  O   UNL     1       5.306   5.524  19.047  0.00  0.00    +0.000 OA
ATOM     14  O   UNL     1       4.374   4.688  16.849  0.00  0.00    +0.000 OA
ATOM     15  N   UNL     1       3.400   6.725  17.916  0.00  0.00    +0.000 N 
ATOM     16  H   UNL     1       3.629   7.326  17.133  0.00  0.00    +0.000 HD
ENDROOT
BRANCH   1  18
ATOM     17  O   UNL     1       0.763   9.483  22.256  0.00  0.00    +0.000 OA
ATOM     18  C   UNL     1       0.937   9.513  21.035  0.00  0.00    +0.000 C 
ATOM     19  N   UNL     1       0.759  10.703  20.316  0.00  0.00    +0.000 N 
ATOM     20  C   UNL     1       1.127  10.944  18.930  0.00  0.00    +0.000 C 
ATOM     21  C   UNL     1       1.681  12.354  18.922  0.00  0.00    +0.000 C 
ATOM     22  C   UNL     1       0.886  13.069  20.000  0.00  0.00    +0.000 C 
ATOM     23  C   UNL     1       0.521  11.967  21.016  0.00  0.00    +0.000 C 
BRANCH  23  24
ATOM     24  C   UNL     1      -0.904  12.143  21.509  0.00  0.00    +0.000 A 
ATOM     25  C   UNL     1      -1.954  12.455  20.628  0.00  0.00    +0.000 A 
ATOM     26  C   UNL     1      -3.246  12.688  21.106  0.00  0.00    +0.000 A 
ATOM     27  C   UNL     1      -3.511  12.600  22.470  0.00  0.00    +0.000 A 
ATOM     28  C   UNL     1      -2.485  12.280  23.356  0.00  0.00    +0.000 A 
ATOM     29  C   UNL     1      -1.190  12.056  22.881  0.00  0.00    +0.000 A 
ENDBRANCH  23  24
ENDBRANCH   1  18
TORSDOF 2
ENDMDL
MODEL 9
REMARK VINA RESULT:      -7.9      3.003      8.005
REMARK  Name = 
REMARK  2 active torsions:
REMARK  status: ('A' for Active; 'I' for Inactive)
REMARK    1  A    between atoms: C_2  and  C_3
REMARK    2  A    between atoms: C_22  and  C_23
REMARK                            x       y       z     vdW  Elec       q    Type
REMARK                         _______ _______ _______ _____ _____    ______ ____
ROOT
ATOM      1  C   UNL     1       1.821   8.190  19.004  0.00  0.00    +0.000 A 
ATOM      2  N   UNL     1       2.765   7.908  18.025  0.00  0.00    +0.000 NA
ATOM      3  C   UNL     1       3.280   6.777  18.421  0.00  0.00    +0.000 A 
ATOM      4  N   UNL     1       2.587   6.296  19.510  0.00  0.00    +0.000 N 
ATOM      5  N   UNL     1       1.637   7.174  19.880  0.00  0.00    +0.000 NA
ATOM      6  C   UNL     1       2.774   5.011  20.056  0.00  0.00    +0.000 A 
ATOM      7  C   UNL     1       1.840   4.459  20.935  0.00  0.00    +0.000 A 
ATOM      8  C   UNL     1       2.007   3.139  21.368  0.00  0.00    +0.000 A 
ATOM      9  C   UNL     1       3.103   2.380  20.942  0.00  0.00    +0.000 A 
ATOM     10  C   UNL     1       4.053   2.938  20.088  0.00  0.00    +0.000 A 
ATOM     11  C   UNL     1       3.886   4.254  19.651  0.00  0.00    +0.000 A 
ATOM     12  S   UNL     1       5.153   4.994  18.655  0.00  0.00    +0.000 S 
ATOM     13  O   UNL     1       6.040   5.688  19.558  0.00  0.00    +0.000 OA
ATOM     14  O   UNL     1       5.625   3.997  17.723  0.00  0.00    +0.000 OA
ATOM     15  N   UNL     1       4.330   6.132  17.759  0.00  0.00    +0.000 N 
ATOM     16  H   UNL     1       4.674   6.434  16.855  0.00  0.00    +0.000 HD
ENDROOT
BRANCH   1  18
ATOM     17  O   UNL     1       0.666  10.079  18.142  0.00  0.00    +0.000 OA
ATOM     18  C   UNL     1       1.118   9.503  19.134  0.00  0.00    +0.000 C 
ATOM     19  N   UNL     1       0.914  10.023  20.419  0.00  0.00    +0.000 N 
ATOM     20  C   UNL     1       1.197   9.358  21.681  0.00  0.00    +0.000 C 
ATOM     21  C   UNL     1       0.035   9.731  22.578  0.00  0.00    +0.000 C 
ATOM     22  C   UNL     1      -0.351  11.127  22.121  0.00  0.00    +0.000 C 
ATOM     23  C   UNL     1       0.026  11.169  20.625  0.00  0.00    +0.000 C 
BRANCH  23  24
ATOM     24  C   UNL     1       0.648  12.507  20.267  0.00  0.00    +0.000 A 
ATOM     25  C   UNL     1      -0.009  13.422  19.426  0.00  0.00    +0.000 A 
ATOM     26  C   UNL     1       0.608  14.616  19.046  0.00  0.00    +0.000 A 
ATOM     27  C   UNL     1       1.885  14.920  19.510  0.00  0.00    +0.000 A 
ATOM     28  C   UNL     1       2.546  14.031  20.354  0.00  0.00    +0.000 A 
ATOM     29  C   UNL     1       1.933  12.832  20.729  0.00  0.00    +0.000 A 
ENDBRANCH  23  24
ENDBRANCH   1  18
TORSDOF 2
ENDMDL
