MODEL 1
REMARK VINA RESULT:      -7.9      0.000      0.000
REMARK  Name = 
REMARK  8 active torsions:
REMARK  status: ('A' for Active; 'I' for Inactive)
REMARK    1  A    between atoms: C_4  and  C_5
REMARK    2  A    between atoms: C_8  and  C_9
REMARK    3  A    between atoms: N_11  and  C_12
REMARK    4  A    between atoms: C_16  and  C_17
REMARK    5  A    between atoms: C_17  and  C_18
REMARK    6  A    between atoms: C_17  and  S_19
REMARK    7  A    between atoms: S_19  and  C_20
REMARK    8  A    between atoms: N_24  and  C_25
REMARK                            x       y       z     vdW  Elec       q    Type
REMARK                         _______ _______ _______ _____ _____    ______ ____
ROOT
ATOM      1  C   UNL     1       6.383   6.794  16.900  0.00  0.00    +0.000 A 
ATOM      2  C   UNL     1       6.988   5.834  16.086  0.00  0.00    +0.000 A 
ATOM      3  C   UNL     1       6.311   4.670  15.723  0.00  0.00    +0.000 A 
ATOM      4  C   UNL     1       5.025   4.438  16.192  0.00  0.00    +0.000 A 
ATOM      5  C   UNL     1       4.408   5.352  17.061  0.00  0.00    +0.000 A 
ATOM      6  C   UNL     1       5.100   6.532  17.407  0.00  0.00    +0.000 A 
ENDROOT
BRANCH   1   9
ATOM      7  C   UNL     1       8.011   8.180  18.177  0.00  0.00    +0.000 C 
ATOM      8  O   UNL     1       8.518   7.302  18.866  0.00  0.00    +0.000 OA
ATOM      9  N   UNL     1       7.019   8.012  17.222  0.00  0.00    +0.000 N 
ATOM     10  H   UNL     1       6.803   8.836  16.662  0.00  0.00    +0.000 HD
BRANCH   7  14
ATOM     11  C   UNL     1       9.515  12.107  18.583  0.00  0.00    +0.000 A 
ATOM     12  C   UNL     1       9.990  11.124  19.446  0.00  0.00    +0.000 A 
ATOM     13  C   UNL     1       9.485   9.833  19.320  0.00  0.00    +0.000 A 
ATOM     14  C   UNL     1       8.532   9.574  18.334  0.00  0.00    +0.000 A 
ATOM     15  N   UNL     1       8.052  10.518  17.480  0.00  0.00    +0.000 NA
ATOM     16  C   UNL     1       8.555  11.770  17.635  0.00  0.00    +0.000 A 
BRANCH  11  20
ATOM     17  C   UNL     1      11.770  15.325  19.353  0.00  0.00    +0.000 C 
ATOM     18  C   UNL     1      11.026  14.256  19.097  0.00  0.00    +0.000 C 
ATOM     19  N   UNL     1       9.840  14.618  18.330  0.00  0.00    +0.000 NA
ATOM     20  C   UNL     1       9.995  13.419  18.642  0.00  0.00    +0.000 C 
ENDBRANCH  11  20
ENDBRANCH   7  14
ENDBRANCH   1   9
BRANCH   5  21
ATOM     21  C   UNL     1       3.031   5.076  17.650  0.00  0.00    +0.000 C 
ATOM     22  C   UNL     1       2.525   3.670  17.293  0.00  0.00    +0.000 C 
BRANCH  21  23
ATOM     23  S   UNL     1       3.027   5.243  19.482  0.00  0.00    +0.000 S 
BRANCH  23  24
ATOM     24  C   UNL     1       3.683   3.724  19.984  0.00  0.00    +0.000 A 
ATOM     25  N   UNL     1       4.858   3.224  19.670  0.00  0.00    +0.000 NA
ATOM     26  N   UNL     1       4.981   2.009  20.313  0.00  0.00    +0.000 NA
ATOM     27  C   UNL     1       3.884   1.814  21.006  0.00  0.00    +0.000 A 
ATOM     28  N   UNL     1       3.039   2.869  20.828  0.00  0.00    +0.000 N 
ATOM     29  C   UNL     1       1.739   3.008  21.432  0.00  0.00    +0.000 C 
ENDBRANCH  23  24
ENDBRANCH  21  23
ENDBRANCH   5  21
TORSDOF 6
ENDMDL
MODEL 2
REMARK VINA RESULT:      -7.8      0.768      1.070
REMARK  Name = 
REMARK  8 active torsions:
REMARK  status: ('A' for Active; 'I' for Inactive)
REMARK    1  A    between atoms: C_4  and  C_5
REMARK    2  A    between atoms: C_8  and  C_9
REMARK    3  A    between atoms: N_11  and  C_12
REMARK    4  A    between atoms: C_16  and  C_17
REMARK    5  A    between atoms: C_17  and  C_18
REMARK    6  A    between atoms: C_17  and  S_19
REMARK    7  A    between atoms: S_19  and  C_20
REMARK    8  A    between atoms: N_24  and  C_25
REMARK                            x       y       z     vdW  Elec       q    Type
REMARK                         _______ _______ _______ _____ _____    ______ ____
ROOT
ATOM      1  C   UNL     1       6.430   6.749  16.907  0.00  0.00    +0.000 A 
ATOM      2  C   UNL     1       7.047   5.778  16.117  0.00  0.00    +0.000 A 
ATOM      3  C   UNL     1       6.373   4.613  15.752  0.00  0.00    +0.000 A 
ATOM      4  C   UNL     1       5.076   4.393  16.195  0.00  0.00    +0.000 A 
ATOM      5  C   UNL     1       4.444   5.319  17.041  0.00  0.00    +0.000 A 
ATOM      6  C   UNL     1       5.135   6.499  17.390  0.00  0.00    +0.000 A 
ENDROOT
BRANCH   1   9
ATOM      7  C   UNL     1       8.041   8.139  18.202  0.00  0.00    +0.000 C 
ATOM      8  O   UNL     1       8.532   7.265  18.907  0.00  0.00    +0.000 OA
ATOM      9  N   UNL     1       7.065   7.968  17.231  0.00  0.00    +0.000 N 
ATOM     10  H   UNL     1       6.863   8.787  16.661  0.00  0.00    +0.000 HD
BRANCH   7  14
ATOM     11  C   UNL     1       9.489  12.079  18.674  0.00  0.00    +0.000 A 
ATOM     12  C   UNL     1       8.582  11.827  17.649  0.00  0.00    +0.000 A 
ATOM     13  C   UNL     1       8.114  10.526  17.486  0.00  0.00    +0.000 A 
ATOM     14  C   UNL     1       8.566   9.532  18.357  0.00  0.00    +0.000 A 
ATOM     15  N   UNL     1       9.453   9.755  19.364  0.00  0.00    +0.000 NA
ATOM     16  C   UNL     1       9.900  11.032  19.489  0.00  0.00    +0.000 A 
BRANCH  11  20
ATOM     17  C   UNL     1      10.042  16.043  18.552  0.00  0.00    +0.000 C 
ATOM     18  C   UNL     1       9.855  14.730  18.592  0.00  0.00    +0.000 C 
ATOM     19  N   UNL     1      10.789  14.098  19.516  0.00  0.00    +0.000 NA
ATOM     20  C   UNL     1       9.982  13.368  18.904  0.00  0.00    +0.000 C 
ENDBRANCH  11  20
ENDBRANCH   7  14
ENDBRANCH   1   9
BRANCH   5  21
ATOM     21  C   UNL     1       3.053   5.056  17.602  0.00  0.00    +0.000 C 
ATOM     22  C   UNL     1       2.540   3.657  17.233  0.00  0.00    +0.000 C 
BRANCH  21  23
ATOM     23  S   UNL     1       3.015   5.221  19.433  0.00  0.00    +0.000 S 
BRANCH  23  24
ATOM     24  C   UNL     1       3.706   3.721  19.945  0.00  0.00    +0.000 A 
ATOM     25  N   UNL     1       4.904   3.261  19.660  0.00  0.00    +0.000 NA
ATOM     26  N   UNL     1       5.050   2.047  20.300  0.00  0.00    +0.000 NA
ATOM     27  C   UNL     1       3.941   1.813  20.962  0.00  0.00    +0.000 A 
ATOM     28  N   UNL     1       3.068   2.841  20.768  0.00  0.00    +0.000 N 
ATOM     29  C   UNL     1       1.748   2.935  21.337  0.00  0.00    +0.000 C 
ENDBRANCH  23  24
ENDBRANCH  21  23
ENDBRANCH   5  21
TORSDOF 6
ENDMDL
MODEL 3
REMARK VINA RESULT:      -7.8      5.868      7.849
REMARK  Name = 
REMARK  8 active torsions:
REMARK  status: ('A' for Active; 'I' for Inactive)
REMARK    1  A    between atoms: C_4  and  C_5
REMARK    2  A    between atoms: C_8  and  C_9
REMARK    3  A    between atoms: N_11  and  C_12
REMARK    4  A    between atoms: C_16  and  C_17
REMARK    5  A    between atoms: C_17  and  C_18
REMARK    6  A    between atoms: C_17  and  S_19
REMARK    7  A    between atoms: S_19  and  C_20
REMARK    8  A    between atoms: N_24  and  C_25
REMARK                            x       y       z     vdW  Elec       q    Type
REMARK                         _______ _______ _______ _____ _____    ______ ____
ROOT
ATOM      1  C   UNL     1       2.707   6.561  18.449  0.00  0.00    +0.000 A 
ATOM      2  C   UNL     1       2.077   5.319  18.362  0.00  0.00    +0.000 A 
ATOM      3  C   UNL     1       2.701   4.238  17.741  0.00  0.00    +0.000 A 
ATOM      4  C   UNL     1       3.958   4.393  17.174  0.00  0.00    +0.000 A 
ATOM      5  C   UNL     1       4.598   5.644  17.188  0.00  0.00    +0.000 A 
ATOM      6  C   UNL     1       3.958   6.724  17.833  0.00  0.00    +0.000 A 
ENDROOT
BRANCH   1   9
ATOM      7  C   UNL     1       1.703   8.838  18.556  0.00  0.00    +0.000 C 
ATOM      8  O   UNL     1       1.729   9.121  17.364  0.00  0.00    +0.000 OA
ATOM      9  N   UNL     1       2.127   7.650  19.135  0.00  0.00    +0.000 N 
ATOM     10  H   UNL     1       1.919   7.545  20.126  0.00  0.00    +0.000 HD
BRANCH   7  14
ATOM     11  C   UNL     1       0.089  11.687  21.225  0.00  0.00    +0.000 A 
ATOM     12  C   UNL     1       0.053  10.345  21.590  0.00  0.00    +0.000 A 
ATOM     13  C   UNL     1       0.573   9.405  20.705  0.00  0.00    +0.000 A 
ATOM     14  C   UNL     1       1.115   9.844  19.496  0.00  0.00    +0.000 A 
ATOM     15  N   UNL     1       1.161  11.151  19.118  0.00  0.00    +0.000 NA
ATOM     16  C   UNL     1       0.634  12.042  19.997  0.00  0.00    +0.000 A 
BRANCH  11  20
ATOM     17  C   UNL     1      -0.573  15.212  23.007  0.00  0.00    +0.000 C 
ATOM     18  C   UNL     1      -0.354  14.045  22.413  0.00  0.00    +0.000 C 
ATOM     19  N   UNL     1      -1.160  12.992  23.018  0.00  0.00    +0.000 NA
ATOM     20  C   UNL     1      -0.399  12.684  22.077  0.00  0.00    +0.000 C 
ENDBRANCH  11  20
ENDBRANCH   7  14
ENDBRANCH   1   9
BRANCH   5  21
ATOM     21  C   UNL     1       5.940   5.853  16.500  0.00  0.00    +0.000 C 
ATOM     22  C   UNL     1       6.990   6.435  17.457  0.00  0.00    +0.000 C 
BRANCH  21  23
ATOM     23  S   UNL     1       6.600   4.284  15.803  0.00  0.00    +0.000 S 
BRANCH  23  24
ATOM     24  C   UNL     1       7.179   4.793  14.255  0.00  0.00    +0.000 A 
ATOM     25  N   UNL     1       8.165   5.626  14.011  0.00  0.00    +0.000 NA
ATOM     26  N   UNL     1       8.305   5.721  12.641  0.00  0.00    +0.000 NA
ATOM     27  C   UNL     1       7.407   4.933  12.097  0.00  0.00    +0.000 A 
ATOM     28  N   UNL     1       6.676   4.329  13.076  0.00  0.00    +0.000 N 
ATOM     29  C   UNL     1       5.601   3.396  12.859  0.00  0.00    +0.000 C 
ENDBRANCH  23  24
ENDBRANCH  21  23
ENDBRANCH   5  21
TORSDOF 6
ENDMDL
MODEL 4
REMARK VINA RESULT:      -7.8      7.305      8.576
REMARK  Name = 
REMARK  8 active torsions:
REMARK  status: ('A' for Active; 'I' for Inactive)
REMARK    1  A    between atoms: C_4  and  C_5
REMARK    2  A    between atoms: C_8  and  C_9
REMARK    3  A    between atoms: N_11  and  C_12
REMARK    4  A    between atoms: C_16  and  C_17
REMARK    5  A    between atoms: C_17  and  C_18
REMARK    6  A    between atoms: C_17  and  S_19
REMARK    7  A    between atoms: S_19  and  C_20
REMARK    8  A    between atoms: N_24  and  C_25
REMARK                            x       y       z     vdW  Elec       q    Type
REMARK                         _______ _______ _______ _____ _____    ______ ____
ROOT
ATOM      1  C   UNL     1       1.556   8.784  19.486  0.00  0.00    +0.000 A 
ATOM      2  C   UNL     1       1.987   9.035  18.182  0.00  0.00    +0.000 A 
ATOM      3  C   UNL     1       2.705   8.078  17.466  0.00  0.00    +0.000 A 
ATOM      4  C   UNL     1       3.023   6.862  18.055  0.00  0.00    +0.000 A 
ATOM      5  C   UNL     1       2.659   6.598  19.386  0.00  0.00    +0.000 A 
ATOM      6  C   UNL     1       1.921   7.571  20.092  0.00  0.00    +0.000 A 
ENDROOT
BRANCH   1   9
ATOM      7  C   UNL     1       0.904  10.011  21.553  0.00  0.00    +0.000 C 
ATOM      8  O   UNL     1       1.744   9.559  22.323  0.00  0.00    +0.000 OA
ATOM      9  N   UNL     1       0.768   9.707  20.206  0.00  0.00    +0.000 N 
ATOM     10  H   UNL     1       0.088  10.269  19.695  0.00  0.00    +0.000 HD
BRANCH   7  14
ATOM     11  C   UNL     1      -1.766  12.894  23.103  0.00  0.00    +0.000 A 
ATOM     12  C   UNL     1      -2.010  11.553  23.379  0.00  0.00    +0.000 A 
ATOM     13  C   UNL     1      -1.137  10.602  22.857  0.00  0.00    +0.000 A 
ATOM     14  C   UNL     1      -0.053  11.029  22.089  0.00  0.00    +0.000 A 
ATOM     15  N   UNL     1       0.205  12.336  21.806  0.00  0.00    +0.000 NA
ATOM     16  C   UNL     1      -0.672  13.238  22.318  0.00  0.00    +0.000 A 
BRANCH  11  20
ATOM     17  C   UNL     1      -3.708  16.359  23.612  0.00  0.00    +0.000 C 
ATOM     18  C   UNL     1      -3.066  15.211  23.439  0.00  0.00    +0.000 C 
ATOM     19  N   UNL     1      -3.413  14.256  24.485  0.00  0.00    +0.000 NA
ATOM     20  C   UNL     1      -2.593  13.901  23.613  0.00  0.00    +0.000 C 
ENDBRANCH  11  20
ENDBRANCH   7  14
ENDBRANCH   1   9
BRANCH   5  21
ATOM     21  C   UNL     1       3.070   5.304  20.075  0.00  0.00    +0.000 C 
ATOM     22  C   UNL     1       1.896   4.654  20.823  0.00  0.00    +0.000 C 
BRANCH  21  23
ATOM     23  S   UNL     1       3.742   4.078  18.880  0.00  0.00    +0.000 S 
BRANCH  23  24
ATOM     24  C   UNL     1       5.400   4.558  18.766  0.00  0.00    +0.000 A 
ATOM     25  N   UNL     1       6.171   4.986  19.740  0.00  0.00    +0.000 NA
ATOM     26  N   UNL     1       7.423   5.225  19.210  0.00  0.00    +0.000 NA
ATOM     27  C   UNL     1       7.376   4.923  17.933  0.00  0.00    +0.000 A 
ATOM     28  N   UNL     1       6.121   4.498  17.610  0.00  0.00    +0.000 N 
ATOM     29  C   UNL     1       5.693   4.082  16.301  0.00  0.00    +0.000 C 
ENDBRANCH  23  24
ENDBRANCH  21  23
ENDBRANCH   5  21
TORSDOF 6
ENDMDL
MODEL 5
REMARK VINA RESULT:      -7.8      5.643      8.080
REMARK  Name = 
REMARK  8 active torsions:
REMARK  status: ('A' for Active; 'I' for Inactive)
REMARK    1  A    between atoms: C_4  and  C_5
REMARK    2  A    between atoms: C_8  and  C_9
REMARK    3  A    between atoms: N_11  and  C_12
REMARK    4  A    between atoms: C_16  and  C_17
REMARK    5  A    between atoms: C_17  and  C_18
REMARK    6  A    between atoms: C_17  and  S_19
REMARK    7  A    between atoms: S_19  and  C_20
REMARK    8  A    between atoms: N_24  and  C_25
REMARK                            x       y       z     vdW  Elec       q    Type
REMARK                         _______ _______ _______ _____ _____    ______ ____
ROOT
ATOM      1  C   UNL     1       2.470   5.539  18.675  0.00  0.00    +0.000 A 
ATOM      2  C   UNL     1       1.851   4.290  18.596  0.00  0.00    +0.000 A 
ATOM      3  C   UNL     1       2.475   3.219  17.958  0.00  0.00    +0.000 A 
ATOM      4  C   UNL     1       3.719   3.390  17.367  0.00  0.00    +0.000 A 
ATOM      5  C   UNL     1       4.344   4.647  17.373  0.00  0.00    +0.000 A 
ATOM      6  C   UNL     1       3.706   5.718  18.035  0.00  0.00    +0.000 A 
ENDROOT
BRANCH   1   9
ATOM      7  C   UNL     1       2.048   7.963  19.066  0.00  0.00    +0.000 C 
ATOM      8  O   UNL     1       2.676   8.427  18.122  0.00  0.00    +0.000 OA
ATOM      9  N   UNL     1       1.892   6.620  19.377  0.00  0.00    +0.000 N 
ATOM     10  H   UNL     1       1.236   6.415  20.129  0.00  0.00    +0.000 HD
BRANCH   7  14
ATOM     11  C   UNL     1      -0.020  10.645  21.591  0.00  0.00    +0.000 A 
ATOM     12  C   UNL     1       0.041  10.932  20.231  0.00  0.00    +0.000 A 
ATOM     13  C   UNL     1       0.733  10.054  19.401  0.00  0.00    +0.000 A 
ATOM     14  C   UNL     1       1.329   8.923  19.961  0.00  0.00    +0.000 A 
ATOM     15  N   UNL     1       1.285   8.624  21.288  0.00  0.00    +0.000 NA
ATOM     16  C   UNL     1       0.613   9.506  22.073  0.00  0.00    +0.000 A 
BRANCH  11  20
ATOM     17  C   UNL     1      -1.452  13.864  23.495  0.00  0.00    +0.000 C 
ATOM     18  C   UNL     1      -0.978  12.799  22.860  0.00  0.00    +0.000 C 
ATOM     19  N   UNL     1      -1.523  11.570  23.425  0.00  0.00    +0.000 NA
ATOM     20  C   UNL     1      -0.716  11.475  22.476  0.00  0.00    +0.000 C 
ENDBRANCH  11  20
ENDBRANCH   7  14
ENDBRANCH   1   9
BRANCH   5  21
ATOM     21  C   UNL     1       5.670   4.874  16.659  0.00  0.00    +0.000 C 
ATOM     22  C   UNL     1       6.851   4.913  17.640  0.00  0.00    +0.000 C 
BRANCH  21  23
ATOM     23  S   UNL     1       6.002   3.567  15.408  0.00  0.00    +0.000 S 
BRANCH  23  24
ATOM     24  C   UNL     1       6.888   4.437  14.204  0.00  0.00    +0.000 A 
ATOM     25  N   UNL     1       7.780   5.381  14.403  0.00  0.00    +0.000 NA
ATOM     26  N   UNL     1       8.257   5.774  13.169  0.00  0.00    +0.000 NA
ATOM     27  C   UNL     1       7.648   5.048  12.260  0.00  0.00    +0.000 A 
ATOM     28  N   UNL     1       6.777   4.193  12.867  0.00  0.00    +0.000 N 
ATOM     29  C   UNL     1       5.933   3.242  12.191  0.00  0.00    +0.000 C 
ENDBRANCH  23  24
ENDBRANCH  21  23
ENDBRANCH   5  21
TORSDOF 6
ENDMDL
MODEL 6
REMARK VINA RESULT:      -7.7      5.664      7.908
REMARK  Name = 
REMARK  8 active torsions:
REMARK  status: ('A' for Active; 'I' for Inactive)
REMARK    1  A    between atoms: C_4  and  C_5
REMARK    2  A    between atoms: C_8  and  C_9
REMARK    3  A    between atoms: N_11  and  C_12
REMARK    4  A    between atoms: C_16  and  C_17
REMARK    5  A    between atoms: C_17  and  C_18
REMARK    6  A    between atoms: C_17  and  S_19
REMARK    7  A    between atoms: S_19  and  C_20
REMARK    8  A    between atoms: N_24  and  C_25
REMARK                            x       y       z     vdW  Elec       q    Type
REMARK                         _______ _______ _______ _____ _____    ______ ____
ROOT
ATOM      1  C   UNL     1       3.152   5.951  19.440  0.00  0.00    +0.000 A 
ATOM      2  C   UNL     1       2.810   4.701  19.959  0.00  0.00    +0.000 A 
ATOM      3  C   UNL     1       3.539   3.560  19.624  0.00  0.00    +0.000 A 
ATOM      4  C   UNL     1       4.607   3.651  18.742  0.00  0.00    +0.000 A 
ATOM      5  C   UNL     1       4.942   4.881  18.153  0.00  0.00    +0.000 A 
ATOM      6  C   UNL     1       4.204   6.028  18.514  0.00  0.00    +0.000 A 
ENDROOT
BRANCH   1   9
ATOM      7  C   UNL     1       1.962   8.084  18.952  0.00  0.00    +0.000 C 
ATOM      8  O   UNL     1       1.978   8.042  17.727  0.00  0.00    +0.000 OA
ATOM      9  N   UNL     1       2.476   7.131  19.819  0.00  0.00    +0.000 N 
ATOM     10  H   UNL     1       2.266   7.275  20.806  0.00  0.00    +0.000 HD
BRANCH   7  14
ATOM     11  C   UNL     1       0.001  11.352  20.774  0.00  0.00    +0.000 A 
ATOM     12  C   UNL     1       0.224  11.397  19.402  0.00  0.00    +0.000 A 
ATOM     13  C   UNL     1       0.881  10.325  18.803  0.00  0.00    +0.000 A 
ATOM     14  C   UNL     1       1.282   9.250  19.598  0.00  0.00    +0.000 A 
ATOM     15  N   UNL     1       1.076   9.185  20.942  0.00  0.00    +0.000 NA
ATOM     16  C   UNL     1       0.444  10.251  21.498  0.00  0.00    +0.000 A 
BRANCH  11  20
ATOM     17  C   UNL     1      -1.433  13.784  23.614  0.00  0.00    +0.000 C 
ATOM     18  C   UNL     1      -0.954  12.978  22.674  0.00  0.00    +0.000 C 
ATOM     19  N   UNL     1      -1.391  13.403  21.350  0.00  0.00    +0.000 NA
ATOM     20  C   UNL     1      -0.671  12.386  21.434  0.00  0.00    +0.000 C 
ENDBRANCH  11  20
ENDBRANCH   7  14
ENDBRANCH   1   9
BRANCH   5  21
ATOM     21  C   UNL     1       6.058   4.986  17.122  0.00  0.00    +0.000 C 
ATOM     22  C   UNL     1       7.431   4.653  17.726  0.00  0.00    +0.000 C 
BRANCH  21  23
ATOM     23  S   UNL     1       5.771   3.867  15.691  0.00  0.00    +0.000 S 
BRANCH  23  24
ATOM     24  C   UNL     1       6.769   4.578  14.472  0.00  0.00    +0.000 A 
ATOM     25  N   UNL     1       7.724   5.464  14.644  0.00  0.00    +0.000 NA
ATOM     26  N   UNL     1       8.279   5.729  13.409  0.00  0.00    +0.000 NA
ATOM     27  C   UNL     1       7.652   4.987  12.526  0.00  0.00    +0.000 A 
ATOM     28  N   UNL     1       6.694   4.246  13.151  0.00  0.00    +0.000 N 
ATOM     29  C   UNL     1       5.806   3.315  12.505  0.00  0.00    +0.000 C 
ENDBRANCH  23  24
ENDBRANCH  21  23
ENDBRANCH   5  21
TORSDOF 6
ENDMDL
MODEL 7
REMARK VINA RESULT:      -7.7      6.809      9.701
REMARK  Name = 
REMARK  8 active torsions:
REMARK  status: ('A' for Active; 'I' for Inactive)
REMARK    1  A    between atoms: C_4  and  C_5
REMARK    2  A    between atoms: C_8  and  C_9
REMARK    3  A    between atoms: N_11  and  C_12
REMARK    4  A    between atoms: C_16  and  C_17
REMARK    5  A    between atoms: C_17  and  C_18
REMARK    6  A    between atoms: C_17  and  S_19
REMARK    7  A    between atoms: S_19  and  C_20
REMARK    8  A    between atoms: N_24  and  C_25
REMARK                            x       y       z     vdW  Elec       q    Type
REMARK                         _______ _______ _______ _____ _____    ______ ____
ROOT
ATOM      1  C   UNL     1       1.129   8.912  20.693  0.00  0.00    +0.000 A 
ATOM      2  C   UNL     1       1.140   8.751  22.080  0.00  0.00    +0.000 A 
ATOM      3  C   UNL     1       0.283   9.489  22.896  0.00  0.00    +0.000 A 
ATOM      4  C   UNL     1      -0.582  10.419  22.335  0.00  0.00    +0.000 A 
ATOM      5  C   UNL     1      -0.578  10.652  20.950  0.00  0.00    +0.000 A 
ATOM      6  C   UNL     1       0.285   9.887  20.137  0.00  0.00    +0.000 A 
ENDROOT
BRANCH   1   9
ATOM      7  C   UNL     1       2.081   6.748  19.908  0.00  0.00    +0.000 C 
ATOM      8  O   UNL     1       1.513   5.990  20.686  0.00  0.00    +0.000 OA
ATOM      9  N   UNL     1       1.935   8.127  19.841  0.00  0.00    +0.000 N 
ATOM     10  H   UNL     1       2.394   8.580  19.052  0.00  0.00    +0.000 HD
BRANCH   7  14
ATOM     11  C   UNL     1       4.618   5.038  16.996  0.00  0.00    +0.000 A 
ATOM     12  C   UNL     1       3.984   4.191  17.899  0.00  0.00    +0.000 A 
ATOM     13  C   UNL     1       3.158   4.756  18.867  0.00  0.00    +0.000 A 
ATOM     14  C   UNL     1       2.992   6.142  18.888  0.00  0.00    +0.000 A 
ATOM     15  N   UNL     1       3.603   6.990  18.015  0.00  0.00    +0.000 NA
ATOM     16  C   UNL     1       4.412   6.409  17.092  0.00  0.00    +0.000 A 
BRANCH  11  20
ATOM     17  C   UNL     1       6.988   4.742  13.781  0.00  0.00    +0.000 C 
ATOM     18  C   UNL     1       6.204   4.843  14.848  0.00  0.00    +0.000 C 
ATOM     19  N   UNL     1       6.027   3.547  15.490  0.00  0.00    +0.000 NA
ATOM     20  C   UNL     1       5.445   4.534  15.987  0.00  0.00    +0.000 C 
ENDBRANCH  11  20
ENDBRANCH   7  14
ENDBRANCH   1   9
BRANCH   5  21
ATOM     21  C   UNL     1      -1.460  11.725  20.326  0.00  0.00    +0.000 C 
ATOM     22  C   UNL     1      -1.039  13.137  20.758  0.00  0.00    +0.000 C 
BRANCH  21  23
ATOM     23  S   UNL     1      -1.429  11.649  18.489  0.00  0.00    +0.000 S 
BRANCH  23  24
ATOM     24  C   UNL     1      -3.113  11.630  18.100  0.00  0.00    +0.000 A 
ATOM     25  N   UNL     1      -4.115  11.939  18.893  0.00  0.00    +0.000 NA
ATOM     26  N   UNL     1      -5.280  11.816  18.164  0.00  0.00    +0.000 NA
ATOM     27  C   UNL     1      -4.950  11.449  16.948  0.00  0.00    +0.000 A 
ATOM     28  N   UNL     1      -3.596  11.320  16.863  0.00  0.00    +0.000 N 
ATOM     29  C   UNL     1      -2.867  10.932  15.683  0.00  0.00    +0.000 C 
ENDBRANCH  23  24
ENDBRANCH  21  23
ENDBRANCH   5  21
TORSDOF 6
ENDMDL
MODEL 8
REMARK VINA RESULT:      -7.7      5.678      7.670
REMARK  Name = 
REMARK  8 active torsions:
REMARK  status: ('A' for Active; 'I' for Inactive)
REMARK    1  A    between atoms: C_4  and  C_5
REMARK    2  A    between atoms: C_8  and  C_9
REMARK    3  A    between atoms: N_11  and  C_12
REMARK    4  A    between atoms: C_16  and  C_17
REMARK    5  A    between atoms: C_17  and  C_18
REMARK    6  A    between atoms: C_17  and  S_19
REMARK    7  A    between atoms: S_19  and  C_20
REMARK    8  A    between atoms: N_24  and  C_25
REMARK                            x       y       z     vdW  Elec       q    Type
REMARK                         _______ _______ _______ _____ _____    ______ ____
ROOT
ATOM      1  C   UNL     1       2.667   6.428  18.103  0.00  0.00    +0.000 A 
ATOM      2  C   UNL     1       1.987   5.243  18.392  0.00  0.00    +0.000 A 
ATOM      3  C   UNL     1       2.605   4.003  18.231  0.00  0.00    +0.000 A 
ATOM      4  C   UNL     1       3.906   3.931  17.754  0.00  0.00    +0.000 A 
ATOM      5  C   UNL     1       4.600   5.098  17.395  0.00  0.00    +0.000 A 
ATOM      6  C   UNL     1       3.966   6.346  17.577  0.00  0.00    +0.000 A 
ENDROOT
BRANCH   1   9
ATOM      7  C   UNL     1       1.693   8.202  19.556  0.00  0.00    +0.000 C 
ATOM      8  O   UNL     1       1.811   7.651  20.645  0.00  0.00    +0.000 OA
ATOM      9  N   UNL     1       2.089   7.697  18.326  0.00  0.00    +0.000 N 
ATOM     10  H   UNL     1       2.022   8.344  17.542  0.00  0.00    +0.000 HD
BRANCH   7  14
ATOM     11  C   UNL     1       0.077  12.104  19.527  0.00  0.00    +0.000 A 
ATOM     12  C   UNL     1      -0.508  11.153  20.358  0.00  0.00    +0.000 A 
ATOM     13  C   UNL     1       0.017   9.864  20.358  0.00  0.00    +0.000 A 
ATOM     14  C   UNL     1       1.108   9.579  19.535  0.00  0.00    +0.000 A 
ATOM     15  N   UNL     1       1.695  10.492  18.713  0.00  0.00    +0.000 NA
ATOM     16  C   UNL     1       1.152  11.737  18.727  0.00  0.00    +0.000 A 
BRANCH  11  20
ATOM     17  C   UNL     1      -0.360  15.988  18.655  0.00  0.00    +0.000 C 
ATOM     18  C   UNL     1      -0.215  14.700  18.941  0.00  0.00    +0.000 C 
ATOM     19  N   UNL     1      -1.227  14.259  19.893  0.00  0.00    +0.000 NA
ATOM     20  C   UNL     1      -0.390  13.423  19.494  0.00  0.00    +0.000 C 
ENDBRANCH  11  20
ENDBRANCH   7  14
ENDBRANCH   1   9
BRANCH   5  21
ATOM     21  C   UNL     1       5.997   5.034  16.793  0.00  0.00    +0.000 C 
ATOM     22  C   UNL     1       7.069   4.766  17.859  0.00  0.00    +0.000 C 
BRANCH  21  23
ATOM     23  S   UNL     1       6.124   3.728  15.505  0.00  0.00    +0.000 S 
BRANCH  23  24
ATOM     24  C   UNL     1       6.974   4.548  14.242  0.00  0.00    +0.000 A 
ATOM     25  N   UNL     1       7.895   5.475  14.377  0.00  0.00    +0.000 NA
ATOM     26  N   UNL     1       8.324   5.828  13.113  0.00  0.00    +0.000 NA
ATOM     27  C   UNL     1       7.658   5.096  12.251  0.00  0.00    +0.000 A 
ATOM     28  N   UNL     1       6.797   4.276  12.918  0.00  0.00    +0.000 N 
ATOM     29  C   UNL     1       5.901   3.330  12.304  0.00  0.00    +0.000 C 
ENDBRANCH  23  24
ENDBRANCH  21  23
ENDBRANCH   5  21
TORSDOF 6
ENDMDL
MODEL 9
REMARK VINA RESULT:      -7.7      6.530      9.475
REMARK  Name = 
REMARK  8 active torsions:
REMARK  status: ('A' for Active; 'I' for Inactive)
REMARK    1  A    between atoms: C_4  and  C_5
REMARK    2  A    between atoms: C_8  and  C_9
REMARK    3  A    between atoms: N_11  and  C_12
REMARK    4  A    between atoms: C_16  and  C_17
REMARK    5  A    between atoms: C_17  and  C_18
REMARK    6  A    between atoms: C_17  and  S_19
REMARK    7  A    between atoms: S_19  and  C_20
REMARK    8  A    between atoms: N_24  and  C_25
REMARK                            x       y       z     vdW  Elec       q    Type
REMARK                         _______ _______ _______ _____ _____    ______ ____
ROOT
ATOM      1  C   UNL     1       1.100   8.982  20.819  0.00  0.00    +0.000 A 
ATOM      2  C   UNL     1       1.143   8.771  22.198  0.00  0.00    +0.000 A 
ATOM      3  C   UNL     1       0.312   9.484  23.061  0.00  0.00    +0.000 A 
ATOM      4  C   UNL     1      -0.560  10.439  22.556  0.00  0.00    +0.000 A 
ATOM      5  C   UNL     1      -0.588  10.722  21.181  0.00  0.00    +0.000 A 
ATOM      6  C   UNL     1       0.250   9.982  20.320  0.00  0.00    +0.000 A 
ENDROOT
BRANCH   1   9
ATOM      7  C   UNL     1       2.065   6.849  19.968  0.00  0.00    +0.000 C 
ATOM      8  O   UNL     1       1.561   6.072  20.770  0.00  0.00    +0.000 OA
ATOM      9  N   UNL     1       1.879   8.224  19.919  0.00  0.00    +0.000 N 
ATOM     10  H   UNL     1       2.282   8.694  19.110  0.00  0.00    +0.000 HD
BRANCH   7  14
ATOM     11  C   UNL     1       4.562   5.225  16.973  0.00  0.00    +0.000 A 
ATOM     12  C   UNL     1       4.294   6.590  16.941  0.00  0.00    +0.000 A 
ATOM     13  C   UNL     1       3.461   7.123  17.921  0.00  0.00    +0.000 A 
ATOM     14  C   UNL     1       2.936   6.273  18.896  0.00  0.00    +0.000 A 
ATOM     15  N   UNL     1       3.183   4.936  18.946  0.00  0.00    +0.000 NA
ATOM     16  C   UNL     1       3.989   4.444  17.970  0.00  0.00    +0.000 A 
BRANCH  11  20
ATOM     17  C   UNL     1       6.121   3.893  13.533  0.00  0.00    +0.000 C 
ATOM     18  C   UNL     1       5.603   4.338  14.672  0.00  0.00    +0.000 C 
ATOM     19  N   UNL     1       6.477   4.031  15.798  0.00  0.00    +0.000 NA
ATOM     20  C   UNL     1       5.406   4.630  16.030  0.00  0.00    +0.000 C 
ENDBRANCH  11  20
ENDBRANCH   7  14
ENDBRANCH   1   9
BRANCH   5  21
ATOM     21  C   UNL     1      -1.478  11.822  20.619  0.00  0.00    +0.000 C 
ATOM     22  C   UNL     1      -1.392  13.111  21.450  0.00  0.00    +0.000 C 
BRANCH  21  23
ATOM     23  S   UNL     1      -1.042  12.228  18.879  0.00  0.00    +0.000 S 
BRANCH  23  24
ATOM     24  C   UNL     1      -2.139  11.230  17.990  0.00  0.00    +0.000 A 
ATOM     25  N   UNL     1      -1.832  10.280  17.135  0.00  0.00    +0.000 NA
ATOM     26  N   UNL     1      -3.013   9.722  16.687  0.00  0.00    +0.000 NA
ATOM     27  C   UNL     1      -3.998  10.343  17.292  0.00  0.00    +0.000 A 
ATOM     28  N   UNL     1      -3.494  11.300  18.121  0.00  0.00    +0.000 N 
ATOM     29  C   UNL     1      -4.275  12.182  18.950  0.00  0.00    +0.000 C 
ENDBRANCH  23  24
ENDBRANCH  21  23
ENDBRANCH   5  21
TORSDOF 6
ENDMDL
