MODEL 1
REMARK VINA RESULT:      -8.6      0.000      0.000
REMARK  Name = 
REMARK  4 active torsions:
REMARK  status: ('A' for Active; 'I' for Inactive)
REMARK    1  A    between atoms: C_5  and  C_7
REMARK    2  A    between atoms: C_7  and  N_8
REMARK    3  A    between atoms: C_12  and  C_13
REMARK    4  A    between atoms: N_15  and  C_16
REMARK                            x       y       z     vdW  Elec       q    Type
REMARK                         _______ _______ _______ _____ _____    ______ ____
ROOT
ATOM      1  N   UNL     1       0.814  10.216  19.524  0.00  0.00    +0.000 NA
ATOM      2  C   UNL     1      -0.270   9.790  20.425  0.00  0.00    +0.000 C 
ATOM      3  C   UNL     1       0.261   8.831  21.487  0.00  0.00    +0.000 C 
ATOM      4  C   UNL     1       0.947   7.630  20.850  0.00  0.00    +0.000 C 
ATOM      5  C   UNL     1       2.012   8.068  19.834  0.00  0.00    +0.000 C 
ATOM      6  C   UNL     1       1.410   9.062  18.834  0.00  0.00    +0.000 C 
ENDROOT
BRANCH   5   7
ATOM      7  C   UNL     1       2.560   6.863  19.077  0.00  0.00    +0.000 C 
ATOM      8  O   UNL     1       3.348   7.006  18.146  0.00  0.00    +0.000 OA
ATOM      9  N   UNL     1       2.067   5.646  19.529  0.00  0.00    +0.000 N 
ATOM     10  H   UNL     1       1.254   5.662  20.131  0.00  0.00    +0.000 HD
BRANCH   9  11
ATOM     11  C   UNL     1       2.506   4.372  19.105  0.00  0.00    +0.000 A 
ATOM     12  C   UNL     1       1.865   3.643  18.101  0.00  0.00    +0.000 A 
ATOM     13  C   UNL     1       2.311   2.367  17.751  0.00  0.00    +0.000 A 
ATOM     14  C   UNL     1       3.413   1.814  18.395  0.00  0.00    +0.000 A 
ATOM     15  C   UNL     1       4.084   2.549  19.371  0.00  0.00    +0.000 A 
ATOM     16  C   UNL     1       3.640   3.828  19.718  0.00  0.00    +0.000 A 
ENDBRANCH   9  11
ENDBRANCH   5   7
BRANCH   1  17
ATOM     17  C   UNL     1       0.295  11.206  18.554  0.00  0.00    +0.000 C 
BRANCH  17  22
ATOM     18  O   UNL     1      -2.513  10.263  14.675  0.00  0.00    +0.000 OA
ATOM     19  C   UNL     1      -2.818  10.657  15.797  0.00  0.00    +0.000 C 
ATOM     20  C   UNL     1      -2.041  10.269  17.044  0.00  0.00    +0.000 C 
ATOM     21  N   UNL     1      -2.195  11.214  18.163  0.00  0.00    +0.000 N 
ATOM     22  C   UNL     1      -1.118  11.691  18.919  0.00  0.00    +0.000 C 
ATOM     23  O   UNL     1      -1.226  12.514  19.834  0.00  0.00    +0.000 OA
ATOM     24  C   UNL     1      -3.536  11.674  18.377  0.00  0.00    +0.000 A 
ATOM     25  C   UNL     1      -4.007  12.102  19.624  0.00  0.00    +0.000 A 
ATOM     26  C   UNL     1      -5.308  12.598  19.762  0.00  0.00    +0.000 A 
ATOM     27  C   UNL     1      -6.147  12.690  18.655  0.00  0.00    +0.000 A 
ATOM     28  C   UNL     1      -5.696  12.265  17.406  0.00  0.00    +0.000 A 
ATOM     29  C   UNL     1      -4.410  11.738  17.275  0.00  0.00    +0.000 A 
ATOM     30  N   UNL     1      -3.991  11.323  16.007  0.00  0.00    +0.000 N 
ATOM     31  H   UNL     1      -4.566  11.484  15.192  0.00  0.00    +0.000 HD
ENDBRANCH  17  22
ENDBRANCH   1  17
TORSDOF 4
ENDMDL
MODEL 2
REMARK VINA RESULT:      -8.4      3.866      5.870
REMARK  Name = 
REMARK  4 active torsions:
REMARK  status: ('A' for Active; 'I' for Inactive)
REMARK    1  A    between atoms: C_5  and  C_7
REMARK    2  A    between atoms: C_7  and  N_8
REMARK    3  A    between atoms: C_12  and  C_13
REMARK    4  A    between atoms: N_15  and  C_16
REMARK                            x       y       z     vdW  Elec       q    Type
REMARK                         _______ _______ _______ _____ _____    ______ ____
ROOT
ATOM      1  N   UNL     1       3.334   6.470  18.654  0.00  0.00    +0.000 NA
ATOM      2  C   UNL     1       2.419   5.318  18.695  0.00  0.00    +0.000 C 
ATOM      3  C   UNL     1       3.190   4.029  18.965  0.00  0.00    +0.000 C 
ATOM      4  C   UNL     1       4.288   3.819  17.930  0.00  0.00    +0.000 C 
ATOM      5  C   UNL     1       5.188   5.057  17.810  0.00  0.00    +0.000 C 
ATOM      6  C   UNL     1       4.334   6.311  17.588  0.00  0.00    +0.000 C 
ENDROOT
BRANCH   5   7
ATOM      7  C   UNL     1       6.165   4.901  16.649  0.00  0.00    +0.000 C 
ATOM      8  O   UNL     1       7.374   4.829  16.846  0.00  0.00    +0.000 OA
ATOM      9  N   UNL     1       5.553   4.874  15.402  0.00  0.00    +0.000 N 
ATOM     10  H   UNL     1       4.590   5.179  15.345  0.00  0.00    +0.000 HD
BRANCH   9  11
ATOM     11  C   UNL     1       6.198   4.604  14.176  0.00  0.00    +0.000 A 
ATOM     12  C   UNL     1       7.337   5.290  13.747  0.00  0.00    +0.000 A 
ATOM     13  C   UNL     1       7.909   5.016  12.504  0.00  0.00    +0.000 A 
ATOM     14  C   UNL     1       7.354   4.041  11.682  0.00  0.00    +0.000 A 
ATOM     15  C   UNL     1       6.241   3.322  12.116  0.00  0.00    +0.000 A 
ATOM     16  C   UNL     1       5.671   3.594  13.363  0.00  0.00    +0.000 A 
ENDBRANCH   9  11
ENDBRANCH   5   7
BRANCH   1  17
ATOM     17  C   UNL     1       2.558   7.717  18.473  0.00  0.00    +0.000 C 
BRANCH  17  22
ATOM     18  O   UNL     1       1.540  12.472  18.058  0.00  0.00    +0.000 OA
ATOM     19  C   UNL     1       1.155  11.648  18.882  0.00  0.00    +0.000 C 
ATOM     20  C   UNL     1       0.961  10.178  18.547  0.00  0.00    +0.000 C 
ATOM     21  N   UNL     1       1.027   9.286  19.717  0.00  0.00    +0.000 N 
ATOM     22  C   UNL     1       1.768   8.099  19.737  0.00  0.00    +0.000 C 
ATOM     23  O   UNL     1       1.866   7.359  20.721  0.00  0.00    +0.000 OA
ATOM     24  C   UNL     1       0.327   9.763  20.874  0.00  0.00    +0.000 A 
ATOM     25  C   UNL     1      -0.197   8.913  21.855  0.00  0.00    +0.000 A 
ATOM     26  C   UNL     1      -0.818   9.437  22.994  0.00  0.00    +0.000 A 
ATOM     27  C   UNL     1      -0.905  10.814  23.176  0.00  0.00    +0.000 A 
ATOM     28  C   UNL     1      -0.393  11.676  22.208  0.00  0.00    +0.000 A 
ATOM     29  C   UNL     1       0.196  11.153  21.055  0.00  0.00    +0.000 A 
ATOM     30  N   UNL     1       0.701  12.048  20.106  0.00  0.00    +0.000 N 
ATOM     31  H   UNL     1       0.723  13.040  20.289  0.00  0.00    +0.000 HD
ENDBRANCH  17  22
ENDBRANCH   1  17
TORSDOF 4
ENDMDL
MODEL 3
REMARK VINA RESULT:      -8.4      1.335      1.468
REMARK  Name = 
REMARK  4 active torsions:
REMARK  status: ('A' for Active; 'I' for Inactive)
REMARK    1  A    between atoms: C_5  and  C_7
REMARK    2  A    between atoms: C_7  and  N_8
REMARK    3  A    between atoms: C_12  and  C_13
REMARK    4  A    between atoms: N_15  and  C_16
REMARK                            x       y       z     vdW  Elec       q    Type
REMARK                         _______ _______ _______ _____ _____    ______ ____
ROOT
ATOM      1  N   UNL     1       0.352  10.790  19.870  0.00  0.00    +0.000 NA
ATOM      2  C   UNL     1      -0.654  10.721  20.941  0.00  0.00    +0.000 C 
ATOM      3  C   UNL     1      -0.073  10.047  22.181  0.00  0.00    +0.000 C 
ATOM      4  C   UNL     1       0.469   8.662  21.850  0.00  0.00    +0.000 C 
ATOM      5  C   UNL     1       1.446   8.713  20.666  0.00  0.00    +0.000 C 
ATOM      6  C   UNL     1       0.803   9.445  19.483  0.00  0.00    +0.000 C 
ENDROOT
BRANCH   5   7
ATOM      7  C   UNL     1       1.838   7.303  20.234  0.00  0.00    +0.000 C 
ATOM      8  O   UNL     1       1.587   6.332  20.941  0.00  0.00    +0.000 OA
ATOM      9  N   UNL     1       2.502   7.257  19.015  0.00  0.00    +0.000 N 
ATOM     10  H   UNL     1       2.862   8.126  18.642  0.00  0.00    +0.000 HD
BRANCH   9  11
ATOM     11  C   UNL     1       2.855   6.082  18.315  0.00  0.00    +0.000 A 
ATOM     12  C   UNL     1       1.944   5.061  18.034  0.00  0.00    +0.000 A 
ATOM     13  C   UNL     1       2.355   3.898  17.380  0.00  0.00    +0.000 A 
ATOM     14  C   UNL     1       3.681   3.752  16.987  0.00  0.00    +0.000 A 
ATOM     15  C   UNL     1       4.590   4.782  17.227  0.00  0.00    +0.000 A 
ATOM     16  C   UNL     1       4.178   5.947  17.878  0.00  0.00    +0.000 A 
ENDBRANCH   9  11
ENDBRANCH   5   7
BRANCH   1  17
ATOM     17  C   UNL     1      -0.205  11.518  18.708  0.00  0.00    +0.000 C 
BRANCH  17  22
ATOM     18  O   UNL     1      -2.932   9.728  15.078  0.00  0.00    +0.000 OA
ATOM     19  C   UNL     1      -3.264  10.322  16.100  0.00  0.00    +0.000 C 
ATOM     20  C   UNL     1      -2.487  10.215  17.402  0.00  0.00    +0.000 C 
ATOM     21  N   UNL     1      -2.689  11.354  18.313  0.00  0.00    +0.000 N 
ATOM     22  C   UNL     1      -1.640  12.011  18.966  0.00  0.00    +0.000 C 
ATOM     23  O   UNL     1      -1.787  12.992  19.701  0.00  0.00    +0.000 OA
ATOM     24  C   UNL     1      -4.049  11.795  18.429  0.00  0.00    +0.000 A 
ATOM     25  C   UNL     1      -4.550  12.440  19.565  0.00  0.00    +0.000 A 
ATOM     26  C   UNL     1      -5.869  12.903  19.598  0.00  0.00    +0.000 A 
ATOM     27  C   UNL     1      -6.698  12.745  18.491  0.00  0.00    +0.000 A 
ATOM     28  C   UNL     1      -6.218  12.101  17.352  0.00  0.00    +0.000 A 
ATOM     29  C   UNL     1      -4.911  11.608  17.331  0.00  0.00    +0.000 A 
ATOM     30  N   UNL     1      -4.464  10.970  16.171  0.00  0.00    +0.000 N 
ATOM     31  H   UNL     1      -5.034  10.947  15.338  0.00  0.00    +0.000 HD
ENDBRANCH  17  22
ENDBRANCH   1  17
TORSDOF 4
ENDMDL
MODEL 4
REMARK VINA RESULT:      -8.3      1.228      1.590
REMARK  Name = 
REMARK  4 active torsions:
REMARK  status: ('A' for Active; 'I' for Inactive)
REMARK    1  A    between atoms: C_5  and  C_7
REMARK    2  A    between atoms: C_7  and  N_8
REMARK    3  A    between atoms: C_12  and  C_13
REMARK    4  A    between atoms: N_15  and  C_16
REMARK                            x       y       z     vdW  Elec       q    Type
REMARK                         _______ _______ _______ _____ _____    ______ ____
ROOT
ATOM      1  N   UNL     1       0.053  11.296  20.144  0.00  0.00    +0.000 NA
ATOM      2  C   UNL     1      -0.898  11.001  21.227  0.00  0.00    +0.000 C 
ATOM      3  C   UNL     1      -0.232  10.163  22.314  0.00  0.00    +0.000 C 
ATOM      4  C   UNL     1       0.354   8.881  21.737  0.00  0.00    +0.000 C 
ATOM      5  C   UNL     1       1.271   9.174  20.541  0.00  0.00    +0.000 C 
ATOM      6  C   UNL     1       0.543  10.057  19.521  0.00  0.00    +0.000 C 
ENDROOT
BRANCH   5   7
ATOM      7  C   UNL     1       1.705   7.876  19.866  0.00  0.00    +0.000 C 
ATOM      8  O   UNL     1       2.046   7.861  18.687  0.00  0.00    +0.000 OA
ATOM      9  N   UNL     1       1.647   6.766  20.697  0.00  0.00    +0.000 N 
ATOM     10  H   UNL     1       1.131   6.853  21.563  0.00  0.00    +0.000 HD
BRANCH   9  11
ATOM     11  C   UNL     1       2.118   5.474  20.377  0.00  0.00    +0.000 A 
ATOM     12  C   UNL     1       3.403   5.232  19.888  0.00  0.00    +0.000 A 
ATOM     13  C   UNL     1       3.804   3.940  19.542  0.00  0.00    +0.000 A 
ATOM     14  C   UNL     1       2.925   2.874  19.697  0.00  0.00    +0.000 A 
ATOM     15  C   UNL     1       1.652   3.097  20.222  0.00  0.00    +0.000 A 
ATOM     16  C   UNL     1       1.253   4.390  20.571  0.00  0.00    +0.000 A 
ENDBRANCH   9  11
ENDBRANCH   5   7
BRANCH   1  17
ATOM     17  C   UNL     1      -0.589  12.175  19.141  0.00  0.00    +0.000 C 
BRANCH  17  22
ATOM     18  O   UNL     1      -2.848  10.608  15.110  0.00  0.00    +0.000 OA
ATOM     19  C   UNL     1      -3.308  10.937  16.199  0.00  0.00    +0.000 C 
ATOM     20  C   UNL     1      -2.556  10.739  17.504  0.00  0.00    +0.000 C 
ATOM     21  N   UNL     1      -2.988  11.640  18.586  0.00  0.00    +0.000 N 
ATOM     22  C   UNL     1      -2.096  12.347  19.400  0.00  0.00    +0.000 C 
ATOM     23  O   UNL     1      -2.442  13.136  20.285  0.00  0.00    +0.000 OA
ATOM     24  C   UNL     1      -4.409  11.800  18.700  0.00  0.00    +0.000 A 
ATOM     25  C   UNL     1      -5.047  12.128  19.901  0.00  0.00    +0.000 A 
ATOM     26  C   UNL     1      -6.431  12.331  19.940  0.00  0.00    +0.000 A 
ATOM     27  C   UNL     1      -7.190  12.229  18.778  0.00  0.00    +0.000 A 
ATOM     28  C   UNL     1      -6.572  11.899  17.573  0.00  0.00    +0.000 A 
ATOM     29  C   UNL     1      -5.196  11.662  17.540  0.00  0.00    +0.000 A 
ATOM     30  N   UNL     1      -4.610  11.335  16.314  0.00  0.00    +0.000 N 
ATOM     31  H   UNL     1      -5.147  11.359  15.459  0.00  0.00    +0.000 HD
ENDBRANCH  17  22
ENDBRANCH   1  17
TORSDOF 4
ENDMDL
MODEL 5
REMARK VINA RESULT:      -8.0      3.346      9.740
REMARK  Name = 
REMARK  4 active torsions:
REMARK  status: ('A' for Active; 'I' for Inactive)
REMARK    1  A    between atoms: C_5  and  C_7
REMARK    2  A    between atoms: C_7  and  N_8
REMARK    3  A    between atoms: C_12  and  C_13
REMARK    4  A    between atoms: N_15  and  C_16
REMARK                            x       y       z     vdW  Elec       q    Type
REMARK                         _______ _______ _______ _____ _____    ______ ____
ROOT
ATOM      1  N   UNL     1       1.762   8.791  19.408  0.00  0.00    +0.000 NA
ATOM      2  C   UNL     1       0.982   9.129  18.207  0.00  0.00    +0.000 C 
ATOM      3  C   UNL     1       0.708  10.630  18.149  0.00  0.00    +0.000 C 
ATOM      4  C   UNL     1       0.003  11.108  19.411  0.00  0.00    +0.000 C 
ATOM      5  C   UNL     1       0.760  10.672  20.674  0.00  0.00    +0.000 C 
ATOM      6  C   UNL     1       1.035   9.165  20.631  0.00  0.00    +0.000 C 
ENDROOT
BRANCH   5   7
ATOM      7  C   UNL     1      -0.049  11.001  21.925  0.00  0.00    +0.000 C 
ATOM      8  O   UNL     1       0.129  10.385  22.972  0.00  0.00    +0.000 OA
ATOM      9  N   UNL     1      -0.980  12.014  21.740  0.00  0.00    +0.000 N 
ATOM     10  H   UNL     1      -1.203  12.280  20.790  0.00  0.00    +0.000 HD
BRANCH   9  11
ATOM     11  C   UNL     1      -1.760  12.610  22.756  0.00  0.00    +0.000 A 
ATOM     12  C   UNL     1      -2.976  12.079  23.190  0.00  0.00    +0.000 A 
ATOM     13  C   UNL     1      -3.732  12.733  24.165  0.00  0.00    +0.000 A 
ATOM     14  C   UNL     1      -3.270  13.918  24.726  0.00  0.00    +0.000 A 
ATOM     15  C   UNL     1      -2.038  14.436  24.329  0.00  0.00    +0.000 A 
ATOM     16  C   UNL     1      -1.280  13.780  23.355  0.00  0.00    +0.000 A 
ENDBRANCH   9  11
ENDBRANCH   5   7
BRANCH   1  17
ATOM     17  C   UNL     1       2.085   7.347  19.402  0.00  0.00    +0.000 C 
BRANCH  17  22
ATOM     18  O   UNL     1       2.652   2.505  19.612  0.00  0.00    +0.000 OA
ATOM     19  C   UNL     1       3.103   3.322  18.814  0.00  0.00    +0.000 C 
ATOM     20  C   UNL     1       2.362   4.592  18.431  0.00  0.00    +0.000 C 
ATOM     21  N   UNL     1       3.236   5.663  17.923  0.00  0.00    +0.000 N 
ATOM     22  C   UNL     1       3.146   6.994  18.346  0.00  0.00    +0.000 C 
ATOM     23  O   UNL     1       3.897   7.895  17.960  0.00  0.00    +0.000 OA
ATOM     24  C   UNL     1       4.247   5.225  17.004  0.00  0.00    +0.000 A 
ATOM     25  C   UNL     1       4.799   6.056  16.023  0.00  0.00    +0.000 A 
ATOM     26  C   UNL     1       5.827   5.593  15.194  0.00  0.00    +0.000 A 
ATOM     27  C   UNL     1       6.327   4.303  15.347  0.00  0.00    +0.000 A 
ATOM     28  C   UNL     1       5.787   3.460  16.317  0.00  0.00    +0.000 A 
ATOM     29  C   UNL     1       4.738   3.910  17.121  0.00  0.00    +0.000 A 
ATOM     30  N   UNL     1       4.222   3.038  18.084  0.00  0.00    +0.000 N 
ATOM     31  H   UNL     1       4.653   2.142  18.257  0.00  0.00    +0.000 HD
ENDBRANCH  17  22
ENDBRANCH   1  17
TORSDOF 4
ENDMDL
MODEL 6
REMARK VINA RESULT:      -8.0      3.879      6.021
REMARK  Name = 
REMARK  4 active torsions:
REMARK  status: ('A' for Active; 'I' for Inactive)
REMARK    1  A    between atoms: C_5  and  C_7
REMARK    2  A    between atoms: C_7  and  N_8
REMARK    3  A    between atoms: C_12  and  C_13
REMARK    4  A    between atoms: N_15  and  C_16
REMARK                            x       y       z     vdW  Elec       q    Type
REMARK                         _______ _______ _______ _____ _____    ______ ____
ROOT
ATOM      1  N   UNL     1       3.291   6.383  18.614  0.00  0.00    +0.000 NA
ATOM      2  C   UNL     1       3.077   5.219  19.488  0.00  0.00    +0.000 C 
ATOM      3  C   UNL     1       4.404   4.724  20.058  0.00  0.00    +0.000 C 
ATOM      4  C   UNL     1       5.393   4.399  18.945  0.00  0.00    +0.000 C 
ATOM      5  C   UNL     1       5.545   5.576  17.971  0.00  0.00    +0.000 C 
ATOM      6  C   UNL     1       4.168   6.040  17.484  0.00  0.00    +0.000 C 
ENDROOT
BRANCH   5   7
ATOM      7  C   UNL     1       6.395   5.173  16.770  0.00  0.00    +0.000 C 
ATOM      8  O   UNL     1       7.566   4.834  16.910  0.00  0.00    +0.000 OA
ATOM      9  N   UNL     1       5.723   5.255  15.557  0.00  0.00    +0.000 N 
ATOM     10  H   UNL     1       4.852   5.768  15.535  0.00  0.00    +0.000 HD
BRANCH   9  11
ATOM     11  C   UNL     1       6.220   4.814  14.311  0.00  0.00    +0.000 A 
ATOM     12  C   UNL     1       7.359   5.355  13.711  0.00  0.00    +0.000 A 
ATOM     13  C   UNL     1       7.782   4.916  12.456  0.00  0.00    +0.000 A 
ATOM     14  C   UNL     1       7.076   3.918  11.793  0.00  0.00    +0.000 A 
ATOM     15  C   UNL     1       5.960   3.342  12.399  0.00  0.00    +0.000 A 
ATOM     16  C   UNL     1       5.539   3.780  13.658  0.00  0.00    +0.000 A 
ENDBRANCH   9  11
ENDBRANCH   5   7
BRANCH   1  17
ATOM     17  C   UNL     1       1.986   6.895  18.137  0.00  0.00    +0.000 C 
BRANCH  17  22
ATOM     18  O   UNL     1      -0.789   8.259  21.912  0.00  0.00    +0.000 OA
ATOM     19  C   UNL     1      -0.108   8.933  21.145  0.00  0.00    +0.000 C 
ATOM     20  C   UNL     1       1.173   8.415  20.512  0.00  0.00    +0.000 C 
ATOM     21  N   UNL     1       1.544   9.105  19.265  0.00  0.00    +0.000 N 
ATOM     22  C   UNL     1       1.943   8.432  18.104  0.00  0.00    +0.000 C 
ATOM     23  O   UNL     1       2.219   8.993  17.039  0.00  0.00    +0.000 OA
ATOM     24  C   UNL     1       1.395  10.531  19.303  0.00  0.00    +0.000 A 
ATOM     25  C   UNL     1       2.151  11.400  18.508  0.00  0.00    +0.000 A 
ATOM     26  C   UNL     1       1.920  12.779  18.542  0.00  0.00    +0.000 A 
ATOM     27  C   UNL     1       0.920  13.305  19.354  0.00  0.00    +0.000 A 
ATOM     28  C   UNL     1       0.159  12.456  20.156  0.00  0.00    +0.000 A 
ATOM     29  C   UNL     1       0.413  11.082  20.148  0.00  0.00    +0.000 A 
ATOM     30  N   UNL     1      -0.371  10.261  20.963  0.00  0.00    +0.000 N 
ATOM     31  H   UNL     1      -1.158  10.635  21.474  0.00  0.00    +0.000 HD
ENDBRANCH  17  22
ENDBRANCH   1  17
TORSDOF 4
ENDMDL
MODEL 7
REMARK VINA RESULT:      -7.9      3.909      5.885
REMARK  Name = 
REMARK  4 active torsions:
REMARK  status: ('A' for Active; 'I' for Inactive)
REMARK    1  A    between atoms: C_5  and  C_7
REMARK    2  A    between atoms: C_7  and  N_8
REMARK    3  A    between atoms: C_12  and  C_13
REMARK    4  A    between atoms: N_15  and  C_16
REMARK                            x       y       z     vdW  Elec       q    Type
REMARK                         _______ _______ _______ _____ _____    ______ ____
ROOT
ATOM      1  N   UNL     1       3.349   6.734  18.558  0.00  0.00    +0.000 NA
ATOM      2  C   UNL     1       3.318   5.517  19.384  0.00  0.00    +0.000 C 
ATOM      3  C   UNL     1       4.733   5.095  19.773  0.00  0.00    +0.000 C 
ATOM      4  C   UNL     1       5.605   4.897  18.540  0.00  0.00    +0.000 C 
ATOM      5  C   UNL     1       5.563   6.127  17.622  0.00  0.00    +0.000 C 
ATOM      6  C   UNL     1       4.111   6.511  17.319  0.00  0.00    +0.000 C 
ENDROOT
BRANCH   5   7
ATOM      7  C   UNL     1       6.293   5.845  16.312  0.00  0.00    +0.000 C 
ATOM      8  O   UNL     1       7.450   6.216  16.141  0.00  0.00    +0.000 OA
ATOM      9  N   UNL     1       5.521   5.172  15.375  0.00  0.00    +0.000 N 
ATOM     10  H   UNL     1       4.522   5.131  15.531  0.00  0.00    +0.000 HD
BRANCH   9  11
ATOM     11  C   UNL     1       5.982   4.666  14.140  0.00  0.00    +0.000 A 
ATOM     12  C   UNL     1       5.281   3.712  13.399  0.00  0.00    +0.000 A 
ATOM     13  C   UNL     1       5.803   3.209  12.206  0.00  0.00    +0.000 A 
ATOM     14  C   UNL     1       7.029   3.668  11.736  0.00  0.00    +0.000 A 
ATOM     15  C   UNL     1       7.719   4.649  12.446  0.00  0.00    +0.000 A 
ATOM     16  C   UNL     1       7.193   5.155  13.638  0.00  0.00    +0.000 A 
ENDBRANCH   9  11
ENDBRANCH   5   7
BRANCH   1  17
ATOM     17  C   UNL     1       1.967   7.171  18.260  0.00  0.00    +0.000 C 
BRANCH  17  22
ATOM     18  O   UNL     1      -0.789   8.305  22.124  0.00  0.00    +0.000 OA
ATOM     19  C   UNL     1      -0.169   9.031  21.353  0.00  0.00    +0.000 C 
ATOM     20  C   UNL     1       1.124   8.602  20.680  0.00  0.00    +0.000 C 
ATOM     21  N   UNL     1       1.421   9.332  19.436  0.00  0.00    +0.000 N 
ATOM     22  C   UNL     1       1.831   8.703  18.255  0.00  0.00    +0.000 C 
ATOM     23  O   UNL     1       2.045   9.296  17.193  0.00  0.00    +0.000 OA
ATOM     24  C   UNL     1       1.188  10.745  19.502  0.00  0.00    +0.000 A 
ATOM     25  C   UNL     1       1.870  11.671  18.704  0.00  0.00    +0.000 A 
ATOM     26  C   UNL     1       1.558  13.033  18.767  0.00  0.00    +0.000 A 
ATOM     27  C   UNL     1       0.549  13.485  19.613  0.00  0.00    +0.000 A 
ATOM     28  C   UNL     1      -0.139  12.578  20.418  0.00  0.00    +0.000 A 
ATOM     29  C   UNL     1       0.196  11.223  20.380  0.00  0.00    +0.000 A 
ATOM     30  N   UNL     1      -0.516  10.343  21.200  0.00  0.00    +0.000 N 
ATOM     31  H   UNL     1      -1.310  10.660  21.736  0.00  0.00    +0.000 HD
ENDBRANCH  17  22
ENDBRANCH   1  17
TORSDOF 4
ENDMDL
MODEL 8
REMARK VINA RESULT:      -7.9      2.043      3.373
REMARK  Name = 
REMARK  4 active torsions:
REMARK  status: ('A' for Active; 'I' for Inactive)
REMARK    1  A    between atoms: C_5  and  C_7
REMARK    2  A    between atoms: C_7  and  N_8
REMARK    3  A    between atoms: C_12  and  C_13
REMARK    4  A    between atoms: N_15  and  C_16
REMARK                            x       y       z     vdW  Elec       q    Type
REMARK                         _______ _______ _______ _____ _____    ______ ____
ROOT
ATOM      1  N   UNL     1       0.054  11.587  19.898  0.00  0.00    +0.000 NA
ATOM      2  C   UNL     1      -0.742  10.896  20.925  0.00  0.00    +0.000 C 
ATOM      3  C   UNL     1       0.114   9.879  21.675  0.00  0.00    +0.000 C 
ATOM      4  C   UNL     1       0.751   8.883  20.715  0.00  0.00    +0.000 C 
ATOM      5  C   UNL     1       1.501   9.598  19.583  0.00  0.00    +0.000 C 
ATOM      6  C   UNL     1       0.587  10.632  18.914  0.00  0.00    +0.000 C 
ENDROOT
BRANCH   5   7
ATOM      7  C   UNL     1       1.977   8.596  18.536  0.00  0.00    +0.000 C 
ATOM      8  O   UNL     1       2.040   8.904  17.349  0.00  0.00    +0.000 OA
ATOM      9  N   UNL     1       2.294   7.349  19.058  0.00  0.00    +0.000 N 
ATOM     10  H   UNL     1       1.980   7.139  19.997  0.00  0.00    +0.000 HD
BRANCH   9  11
ATOM     11  C   UNL     1       2.886   6.284  18.344  0.00  0.00    +0.000 A 
ATOM     12  C   UNL     1       4.167   6.357  17.793  0.00  0.00    +0.000 A 
ATOM     13  C   UNL     1       4.688   5.293  17.055  0.00  0.00    +0.000 A 
ATOM     14  C   UNL     1       3.936   4.138  16.874  0.00  0.00    +0.000 A 
ATOM     15  C   UNL     1       2.671   4.038  17.452  0.00  0.00    +0.000 A 
ATOM     16  C   UNL     1       2.152   5.102  18.194  0.00  0.00    +0.000 A 
ENDBRANCH   9  11
ENDBRANCH   5   7
BRANCH   1  17
ATOM     17  C   UNL     1      -0.772  12.622  19.239  0.00  0.00    +0.000 C 
BRANCH  17  22
ATOM     18  O   UNL     1      -3.490  13.674  23.153  0.00  0.00    +0.000 OA
ATOM     19  C   UNL     1      -3.820  13.244  22.052  0.00  0.00    +0.000 C 
ATOM     20  C   UNL     1      -3.076  13.596  20.775  0.00  0.00    +0.000 C 
ATOM     21  N   UNL     1      -3.252  12.615  19.691  0.00  0.00    +0.000 N 
ATOM     22  C   UNL     1      -2.191  12.119  18.924  0.00  0.00    +0.000 C 
ATOM     23  O   UNL     1      -2.316  11.267  18.038  0.00  0.00    +0.000 OA
ATOM     24  C   UNL     1      -4.595  12.142  19.524  0.00  0.00    +0.000 A 
ATOM     25  C   UNL     1      -5.094  11.673  18.303  0.00  0.00    +0.000 A 
ATOM     26  C   UNL     1      -6.396  11.167  18.213  0.00  0.00    +0.000 A 
ATOM     27  C   UNL     1      -7.206  11.105  19.343  0.00  0.00    +0.000 A 
ATOM     28  C   UNL     1      -6.728  11.572  20.566  0.00  0.00    +0.000 A 
ATOM     29  C   UNL     1      -5.441  12.109  20.649  0.00  0.00    +0.000 A 
ATOM     30  N   UNL     1      -4.995  12.566  21.893  0.00  0.00    +0.000 N 
ATOM     31  H   UNL     1      -5.548  12.428  22.725  0.00  0.00    +0.000 HD
ENDBRANCH  17  22
ENDBRANCH   1  17
TORSDOF 4
ENDMDL
MODEL 9
REMARK VINA RESULT:      -7.9      1.937      3.146
REMARK  Name = 
REMARK  4 active torsions:
REMARK  status: ('A' for Active; 'I' for Inactive)
REMARK    1  A    between atoms: C_5  and  C_7
REMARK    2  A    between atoms: C_7  and  N_8
REMARK    3  A    between atoms: C_12  and  C_13
REMARK    4  A    between atoms: N_15  and  C_16
REMARK                            x       y       z     vdW  Elec       q    Type
REMARK                         _______ _______ _______ _____ _____    ______ ____
ROOT
ATOM      1  N   UNL     1       0.102  11.169  21.074  0.00  0.00    +0.000 NA
ATOM      2  C   UNL     1      -0.863  10.482  21.948  0.00  0.00    +0.000 C 
ATOM      3  C   UNL     1      -0.196   9.314  22.670  0.00  0.00    +0.000 C 
ATOM      4  C   UNL     1       0.433   8.343  21.680  0.00  0.00    +0.000 C 
ATOM      5  C   UNL     1       1.365   9.069  20.700  0.00  0.00    +0.000 C 
ATOM      6  C   UNL     1       0.635  10.252  20.055  0.00  0.00    +0.000 C 
ENDROOT
BRANCH   5   7
ATOM      7  C   UNL     1       1.844   8.117  19.608  0.00  0.00    +0.000 C 
ATOM      8  O   UNL     1       1.926   8.485  18.440  0.00  0.00    +0.000 OA
ATOM      9  N   UNL     1       2.138   6.840  20.068  0.00  0.00    +0.000 N 
ATOM     10  H   UNL     1       1.809   6.585  20.990  0.00  0.00    +0.000 HD
BRANCH   9  11
ATOM     11  C   UNL     1       2.727   5.807  19.307  0.00  0.00    +0.000 A 
ATOM     12  C   UNL     1       2.010   5.032  18.392  0.00  0.00    +0.000 A 
ATOM     13  C   UNL     1       2.629   3.991  17.698  0.00  0.00    +0.000 A 
ATOM     14  C   UNL     1       3.978   3.724  17.903  0.00  0.00    +0.000 A 
ATOM     15  C   UNL     1       4.714   4.516  18.784  0.00  0.00    +0.000 A 
ATOM     16  C   UNL     1       4.094   5.560  19.476  0.00  0.00    +0.000 A 
ENDBRANCH   9  11
ENDBRANCH   5   7
BRANCH   1  17
ATOM     17  C   UNL     1      -0.543  12.344  20.446  0.00  0.00    +0.000 C 
BRANCH  17  22
ATOM     18  O   UNL     1      -4.356  13.279  23.345  0.00  0.00    +0.000 OA
ATOM     19  C   UNL     1      -4.320  12.953  22.163  0.00  0.00    +0.000 C 
ATOM     20  C   UNL     1      -3.185  13.349  21.233  0.00  0.00    +0.000 C 
ATOM     21  N   UNL     1      -3.032  12.463  20.067  0.00  0.00    +0.000 N 
ATOM     22  C   UNL     1      -1.797  11.958  19.643  0.00  0.00    +0.000 C 
ATOM     23  O   UNL     1      -1.656  11.182  18.692  0.00  0.00    +0.000 OA
ATOM     24  C   UNL     1      -4.262  12.093  19.431  0.00  0.00    +0.000 A 
ATOM     25  C   UNL     1      -4.350  11.747  18.077  0.00  0.00    +0.000 A 
ATOM     26  C   UNL     1      -5.567  11.335  17.524  0.00  0.00    +0.000 A 
ATOM     27  C   UNL     1      -6.705  11.243  18.319  0.00  0.00    +0.000 A 
ATOM     28  C   UNL     1      -6.639  11.587  19.669  0.00  0.00    +0.000 A 
ATOM     29  C   UNL     1      -5.432  12.032  20.213  0.00  0.00    +0.000 A 
ATOM     30  N   UNL     1      -5.402  12.366  21.570  0.00  0.00    +0.000 N 
ATOM     31  H   UNL     1      -6.203  12.204  22.162  0.00  0.00    +0.000 HD
ENDBRANCH  17  22
ENDBRANCH   1  17
TORSDOF 4
ENDMDL
