MODEL 1
REMARK VINA RESULT:      -8.0      0.000      0.000
REMARK  Name = 
REMARK  7 active torsions:
REMARK  status: ('A' for Active; 'I' for Inactive)
REMARK    1  A    between atoms: C_1  and  N_2
REMARK    2  A    between atoms: C_6  and  C_7
REMARK    3  A    between atoms: C_7  and  N_8
REMARK    4  A    between atoms: C_13  and  N_14
REMARK    5  A    between atoms: C_19  and  C_20
REMARK    6  A    between atoms: C_20  and  C_21
REMARK    7  A    between atoms: C_26  and  C_27
REMARK                            x       y       z     vdW  Elec       q    Type
REMARK                         _______ _______ _______ _____ _____    ______ ____
ROOT
ATOM      1  N   UNL     1      -0.011  10.947  18.536  0.00  0.00    +0.000 N 
ATOM      2  C   UNL     1       0.395  12.322  18.817  0.00  0.00    +0.000 C 
ATOM      3  C   UNL     1      -0.847  12.873  19.438  0.00  0.00    +0.000 A 
ATOM      4  C   UNL     1      -1.924  12.077  19.054  0.00  0.00    +0.000 A 
ATOM      5  C   UNL     1      -3.174  12.150  19.633  0.00  0.00    +0.000 A 
ATOM      6  C   UNL     1      -3.352  13.092  20.645  0.00  0.00    +0.000 A 
ATOM      7  C   UNL     1      -2.299  13.976  20.972  0.00  0.00    +0.000 A 
ATOM      8  C   UNL     1      -1.022  13.877  20.380  0.00  0.00    +0.000 A 
ATOM      9  C   UNL     1      -1.397  10.928  18.315  0.00  0.00    +0.000 C 
ATOM     10  O   UNL     1      -2.094  10.067  17.809  0.00  0.00    +0.000 OA
ENDROOT
BRANCH   1  16
ATOM     11  N   UNL     1       2.653   6.842  19.430  0.00  0.00    +0.000 N 
ATOM     12  C   UNL     1       2.054   6.358  20.686  0.00  0.00    +0.000 C 
ATOM     13  C   UNL     1       1.370   7.671  20.736  0.00  0.00    +0.000 A 
ATOM     14  C   UNL     1       0.425   8.452  21.331  0.00  0.00    +0.000 A 
ATOM     15  C   UNL     1       0.014   9.568  20.600  0.00  0.00    +0.000 A 
ATOM     16  C   UNL     1       0.559   9.886  19.318  0.00  0.00    +0.000 A 
ATOM     17  C   UNL     1       1.623   9.125  18.819  0.00  0.00    +0.000 A 
ATOM     18  C   UNL     1       1.963   8.025  19.557  0.00  0.00    +0.000 A 
BRANCH  11  19
ATOM     19  C   UNL     1       2.278   6.204  18.156  0.00  0.00    +0.000 C 
BRANCH  19  25
ATOM     20  C   UNL     1       4.896   4.415  18.495  0.00  0.00    +0.000 C 
ATOM     21  N   UNL     1       3.584   3.991  18.093  0.00  0.00    +0.000 N 
ATOM     22  C   UNL     1       3.249   2.722  17.728  0.00  0.00    +0.000 A 
ATOM     23  N   UNL     1       1.969   2.662  17.452  0.00  0.00    +0.000 NA
ATOM     24  N   UNL     1       1.457   3.921  17.617  0.00  0.00    +0.000 NA
ATOM     25  C   UNL     1       2.435   4.729  17.987  0.00  0.00    +0.000 A 
ENDBRANCH  19  25
ENDBRANCH  11  19
ENDBRANCH   1  16
BRANCH   8  26
ATOM     26  C   UNL     1       0.102  14.767  20.843  0.00  0.00    +0.000 C 
ATOM     27  F   UNL     1      -0.290  15.763  21.686  0.00  0.00    +0.000 F 
ATOM     28  F   UNL     1       1.076  14.084  21.510  0.00  0.00    +0.000 F 
ATOM     29  F   UNL     1       0.723  15.387  19.803  0.00  0.00    +0.000 F 
ENDBRANCH   8  26
BRANCH   6  30
ATOM     30  C   UNL     1      -4.621  13.087  21.458  0.00  0.00    +0.000 C 
BRANCH  30  31
ATOM     31  C   UNL     1      -4.333  13.410  22.911  0.00  0.00    +0.000 C 
ATOM     32  C   UNL     1      -3.635  12.264  23.662  0.00  0.00    +0.000 C 
ATOM     33  N   UNL     1      -4.639  12.342  24.727  0.00  0.00    +0.000 NA
ATOM     34  C   UNL     1      -5.479  13.241  23.926  0.00  0.00    +0.000 C 
ATOM     35  H   UNL     1      -4.294  12.760  25.590  0.00  0.00    +0.000 HD
ENDBRANCH  30  31
ENDBRANCH   6  30
TORSDOF 6
ENDMDL
MODEL 2
REMARK VINA RESULT:      -7.9      3.407      4.739
REMARK  Name = 
REMARK  7 active torsions:
REMARK  status: ('A' for Active; 'I' for Inactive)
REMARK    1  A    between atoms: C_1  and  N_2
REMARK    2  A    between atoms: C_6  and  C_7
REMARK    3  A    between atoms: C_7  and  N_8
REMARK    4  A    between atoms: C_13  and  N_14
REMARK    5  A    between atoms: C_19  and  C_20
REMARK    6  A    between atoms: C_20  and  C_21
REMARK    7  A    between atoms: C_26  and  C_27
REMARK                            x       y       z     vdW  Elec       q    Type
REMARK                         _______ _______ _______ _____ _____    ______ ____
ROOT
ATOM      1  N   UNL     1       2.472   8.142  19.595  0.00  0.00    +0.000 N 
ATOM      2  C   UNL     1       1.939   9.022  20.631  0.00  0.00    +0.000 C 
ATOM      3  C   UNL     1       0.703   9.540  19.970  0.00  0.00    +0.000 A 
ATOM      4  C   UNL     1       0.840   9.382  18.592  0.00  0.00    +0.000 A 
ATOM      5  C   UNL     1      -0.200   9.528  17.698  0.00  0.00    +0.000 A 
ATOM      6  C   UNL     1      -1.446   9.868  18.223  0.00  0.00    +0.000 A 
ATOM      7  C   UNL     1      -1.575  10.133  19.605  0.00  0.00    +0.000 A 
ATOM      8  C   UNL     1      -0.504   9.965  20.507  0.00  0.00    +0.000 A 
ATOM      9  C   UNL     1       2.076   8.637  18.343  0.00  0.00    +0.000 C 
ATOM     10  O   UNL     1       2.499   8.375  17.232  0.00  0.00    +0.000 OA
ENDROOT
BRANCH   1  16
ATOM     11  N   UNL     1       3.868   3.391  19.119  0.00  0.00    +0.000 N 
ATOM     12  C   UNL     1       2.626   2.674  19.454  0.00  0.00    +0.000 C 
ATOM     13  C   UNL     1       2.123   3.988  19.917  0.00  0.00    +0.000 A 
ATOM     14  C   UNL     1       1.060   4.726  20.344  0.00  0.00    +0.000 A 
ATOM     15  C   UNL     1       1.216   6.111  20.274  0.00  0.00    +0.000 A 
ATOM     16  C   UNL     1       2.419   6.722  19.803  0.00  0.00    +0.000 A 
ATOM     17  C   UNL     1       3.525   5.917  19.507  0.00  0.00    +0.000 A 
ATOM     18  C   UNL     1       3.308   4.567  19.559  0.00  0.00    +0.000 A 
BRANCH  11  19
ATOM     19  C   UNL     1       4.256   3.546  17.705  0.00  0.00    +0.000 C 
BRANCH  19  25
ATOM     20  C   UNL     1       5.426   4.346  14.848  0.00  0.00    +0.000 C 
ATOM     21  N   UNL     1       6.104   4.359  16.115  0.00  0.00    +0.000 N 
ATOM     22  C   UNL     1       7.416   4.676  16.298  0.00  0.00    +0.000 A 
ATOM     23  N   UNL     1       7.713   4.625  17.573  0.00  0.00    +0.000 NA
ATOM     24  N   UNL     1       6.580   4.247  18.241  0.00  0.00    +0.000 NA
ATOM     25  C   UNL     1       5.611   4.068  17.359  0.00  0.00    +0.000 A 
ENDBRANCH  19  25
ENDBRANCH  11  19
ENDBRANCH   1  16
BRANCH   8  26
ATOM     26  C   UNL     1      -0.720  10.147  21.986  0.00  0.00    +0.000 C 
ATOM     27  F   UNL     1       0.341  10.704  22.637  0.00  0.00    +0.000 F 
ATOM     28  F   UNL     1      -1.785  10.949  22.271  0.00  0.00    +0.000 F 
ATOM     29  F   UNL     1      -0.960   8.965  22.617  0.00  0.00    +0.000 F 
ENDBRANCH   8  26
BRANCH   6  30
ATOM     30  C   UNL     1      -2.664   9.841  17.335  0.00  0.00    +0.000 C 
BRANCH  30  31
ATOM     31  C   UNL     1      -3.509  11.084  17.541  0.00  0.00    +0.000 C 
ATOM     32  C   UNL     1      -4.878  10.788  18.177  0.00  0.00    +0.000 C 
ATOM     33  N   UNL     1      -5.543  11.546  17.112  0.00  0.00    +0.000 NA
ATOM     34  C   UNL     1      -4.300  11.623  16.335  0.00  0.00    +0.000 C 
ATOM     35  H   UNL     1      -5.899  12.453  17.412  0.00  0.00    +0.000 HD
ENDBRANCH  30  31
ENDBRANCH   6  30
TORSDOF 6
ENDMDL
MODEL 3
REMARK VINA RESULT:      -7.9      1.587      1.944
REMARK  Name = 
REMARK  7 active torsions:
REMARK  status: ('A' for Active; 'I' for Inactive)
REMARK    1  A    between atoms: C_1  and  N_2
REMARK    2  A    between atoms: C_6  and  C_7
REMARK    3  A    between atoms: C_7  and  N_8
REMARK    4  A    between atoms: C_13  and  N_14
REMARK    5  A    between atoms: C_19  and  C_20
REMARK    6  A    between atoms: C_20  and  C_21
REMARK    7  A    between atoms: C_26  and  C_27
REMARK                            x       y       z     vdW  Elec       q    Type
REMARK                         _______ _______ _______ _____ _____    ______ ____
ROOT
ATOM      1  N   UNL     1       0.379  10.789  18.525  0.00  0.00    +0.000 N 
ATOM      2  C   UNL     1       0.633  12.150  18.992  0.00  0.00    +0.000 C 
ATOM      3  C   UNL     1      -0.747  12.598  19.352  0.00  0.00    +0.000 A 
ATOM      4  C   UNL     1      -1.663  11.796  18.675  0.00  0.00    +0.000 A 
ATOM      5  C   UNL     1      -3.013  11.771  18.958  0.00  0.00    +0.000 A 
ATOM      6  C   UNL     1      -3.466  12.617  19.970  0.00  0.00    +0.000 A 
ATOM      7  C   UNL     1      -2.565  13.510  20.592  0.00  0.00    +0.000 A 
ATOM      8  C   UNL     1      -1.185  13.512  20.301  0.00  0.00    +0.000 A 
ATOM      9  C   UNL     1      -0.919  10.736  17.994  0.00  0.00    +0.000 C 
ATOM     10  O   UNL     1      -1.434   9.894  17.279  0.00  0.00    +0.000 OA
ENDROOT
BRANCH   1  16
ATOM     11  N   UNL     1       2.688   6.508  19.569  0.00  0.00    +0.000 N 
ATOM     12  C   UNL     1       1.969   6.062  20.775  0.00  0.00    +0.000 C 
ATOM     13  C   UNL     1       1.375   7.419  20.789  0.00  0.00    +0.000 A 
ATOM     14  C   UNL     1       0.446   8.261  21.323  0.00  0.00    +0.000 A 
ATOM     15  C   UNL     1       0.164   9.405  20.574  0.00  0.00    +0.000 A 
ATOM     16  C   UNL     1       0.819   9.689  19.337  0.00  0.00    +0.000 A 
ATOM     17  C   UNL     1       1.861   8.858  18.906  0.00  0.00    +0.000 A 
ATOM     18  C   UNL     1       2.073   7.735  19.657  0.00  0.00    +0.000 A 
BRANCH  11  19
ATOM     19  C   UNL     1       2.360   5.902  18.266  0.00  0.00    +0.000 C 
BRANCH  19  25
ATOM     20  C   UNL     1       4.898   4.039  18.777  0.00  0.00    +0.000 C 
ATOM     21  N   UNL     1       3.614   3.658  18.258  0.00  0.00    +0.000 N 
ATOM     22  C   UNL     1       3.279   2.406  17.838  0.00  0.00    +0.000 A 
ATOM     23  N   UNL     1       2.026   2.385  17.456  0.00  0.00    +0.000 NA
ATOM     24  N   UNL     1       1.532   3.652  17.608  0.00  0.00    +0.000 NA
ATOM     25  C   UNL     1       2.496   4.427  18.077  0.00  0.00    +0.000 A 
ENDBRANCH  19  25
ENDBRANCH  11  19
ENDBRANCH   1  16
BRANCH   8  26
ATOM     26  C   UNL     1      -0.246  14.402  21.072  0.00  0.00    +0.000 C 
ATOM     27  F   UNL     1      -0.873  15.297  21.886  0.00  0.00    +0.000 F 
ATOM     28  F   UNL     1       0.601  13.703  21.880  0.00  0.00    +0.000 F 
ATOM     29  F   UNL     1       0.546  15.142  20.249  0.00  0.00    +0.000 F 
ENDBRANCH   8  26
BRANCH   6  30
ATOM     30  C   UNL     1      -4.883  12.493  20.469  0.00  0.00    +0.000 C 
BRANCH  30  31
ATOM     31  C   UNL     1      -5.822  12.113  19.340  0.00  0.00    +0.000 C 
ATOM     32  C   UNL     1      -6.364  13.327  18.567  0.00  0.00    +0.000 C 
ATOM     33  N   UNL     1      -7.733  12.830  18.735  0.00  0.00    +0.000 NA
ATOM     34  C   UNL     1      -7.289  11.813  19.697  0.00  0.00    +0.000 C 
ATOM     35  H   UNL     1      -8.139  12.444  17.884  0.00  0.00    +0.000 HD
ENDBRANCH  30  31
ENDBRANCH   6  30
TORSDOF 6
ENDMDL
MODEL 4
REMARK VINA RESULT:      -7.7      0.538      1.167
REMARK  Name = 
REMARK  7 active torsions:
REMARK  status: ('A' for Active; 'I' for Inactive)
REMARK    1  A    between atoms: C_1  and  N_2
REMARK    2  A    between atoms: C_6  and  C_7
REMARK    3  A    between atoms: C_7  and  N_8
REMARK    4  A    between atoms: C_13  and  N_14
REMARK    5  A    between atoms: C_19  and  C_20
REMARK    6  A    between atoms: C_20  and  C_21
REMARK    7  A    between atoms: C_26  and  C_27
REMARK                            x       y       z     vdW  Elec       q    Type
REMARK                         _______ _______ _______ _____ _____    ______ ____
ROOT
ATOM      1  N   UNL     1      -0.032  10.915  18.505  0.00  0.00    +0.000 N 
ATOM      2  C   UNL     1       0.407  12.290  18.735  0.00  0.00    +0.000 C 
ATOM      3  C   UNL     1      -0.810  12.886  19.363  0.00  0.00    +0.000 A 
ATOM      4  C   UNL     1      -1.910  12.100  19.027  0.00  0.00    +0.000 A 
ATOM      5  C   UNL     1      -3.146  12.216  19.628  0.00  0.00    +0.000 A 
ATOM      6  C   UNL     1      -3.284  13.193  20.614  0.00  0.00    +0.000 A 
ATOM      7  C   UNL     1      -2.207  14.066  20.890  0.00  0.00    +0.000 A 
ATOM      8  C   UNL     1      -0.946  13.922  20.276  0.00  0.00    +0.000 A 
ATOM      9  C   UNL     1      -1.421  10.918  18.314  0.00  0.00    +0.000 C 
ATOM     10  O   UNL     1      -2.146  10.056  17.849  0.00  0.00    +0.000 OA
ENDROOT
BRANCH   1  16
ATOM     11  N   UNL     1       2.617   6.819  19.484  0.00  0.00    +0.000 N 
ATOM     12  C   UNL     1       2.015   6.363  20.748  0.00  0.00    +0.000 C 
ATOM     13  C   UNL     1       1.336   7.679  20.772  0.00  0.00    +0.000 A 
ATOM     14  C   UNL     1       0.393   8.475  21.350  0.00  0.00    +0.000 A 
ATOM     15  C   UNL     1      -0.013   9.578  20.597  0.00  0.00    +0.000 A 
ATOM     16  C   UNL     1       0.535   9.869  19.310  0.00  0.00    +0.000 A 
ATOM     17  C   UNL     1       1.595   9.093  18.826  0.00  0.00    +0.000 A 
ATOM     18  C   UNL     1       1.932   8.007  19.586  0.00  0.00    +0.000 A 
BRANCH  11  19
ATOM     19  C   UNL     1       2.241   6.158  18.222  0.00  0.00    +0.000 C 
BRANCH  19  25
ATOM     20  C   UNL     1       1.174   3.186  18.674  0.00  0.00    +0.000 C 
ATOM     21  N   UNL     1       2.421   3.597  18.092  0.00  0.00    +0.000 N 
ATOM     22  C   UNL     1       3.405   2.753  17.672  0.00  0.00    +0.000 A 
ATOM     23  N   UNL     1       4.394   3.444  17.159  0.00  0.00    +0.000 NA
ATOM     24  N   UNL     1       4.064   4.768  17.263  0.00  0.00    +0.000 NA
ATOM     25  C   UNL     1       2.879   4.863  17.842  0.00  0.00    +0.000 A 
ENDBRANCH  19  25
ENDBRANCH  11  19
ENDBRANCH   1  16
BRANCH   8  26
ATOM     26  C   UNL     1       0.205  14.803  20.687  0.00  0.00    +0.000 C 
ATOM     27  F   UNL     1       0.853  15.393  19.643  0.00  0.00    +0.000 F 
ATOM     28  F   UNL     1      -0.176  15.824  21.506  0.00  0.00    +0.000 F 
ATOM     29  F   UNL     1       1.159  14.111  21.369  0.00  0.00    +0.000 F 
ENDBRANCH   8  26
BRANCH   6  30
ATOM     30  C   UNL     1      -4.536  13.239  21.452  0.00  0.00    +0.000 C 
BRANCH  30  31
ATOM     31  C   UNL     1      -4.196  13.417  22.919  0.00  0.00    +0.000 C 
ATOM     32  C   UNL     1      -3.446  12.216  23.519  0.00  0.00    +0.000 C 
ATOM     33  N   UNL     1      -4.409  12.159  24.624  0.00  0.00    +0.000 NA
ATOM     34  C   UNL     1      -5.297  13.116  23.953  0.00  0.00    +0.000 C 
ATOM     35  H   UNL     1      -4.038  12.493  25.512  0.00  0.00    +0.000 HD
ENDBRANCH  30  31
ENDBRANCH   6  30
TORSDOF 6
ENDMDL
MODEL 5
REMARK VINA RESULT:      -7.6      1.584      2.055
REMARK  Name = 
REMARK  7 active torsions:
REMARK  status: ('A' for Active; 'I' for Inactive)
REMARK    1  A    between atoms: C_1  and  N_2
REMARK    2  A    between atoms: C_6  and  C_7
REMARK    3  A    between atoms: C_7  and  N_8
REMARK    4  A    between atoms: C_13  and  N_14
REMARK    5  A    between atoms: C_19  and  C_20
REMARK    6  A    between atoms: C_20  and  C_21
REMARK    7  A    between atoms: C_26  and  C_27
REMARK                            x       y       z     vdW  Elec       q    Type
REMARK                         _______ _______ _______ _____ _____    ______ ____
ROOT
ATOM      1  N   UNL     1       0.519  10.591  18.400  0.00  0.00    +0.000 N 
ATOM      2  C   UNL     1       0.877  11.958  18.774  0.00  0.00    +0.000 C 
ATOM      3  C   UNL     1      -0.446  12.499  19.209  0.00  0.00    +0.000 A 
ATOM      4  C   UNL     1      -1.451  11.716  18.645  0.00  0.00    +0.000 A 
ATOM      5  C   UNL     1      -2.775  11.780  19.025  0.00  0.00    +0.000 A 
ATOM      6  C   UNL     1      -3.106  12.699  20.021  0.00  0.00    +0.000 A 
ATOM      7  C   UNL     1      -2.116  13.571  20.527  0.00  0.00    +0.000 A 
ATOM      8  C   UNL     1      -0.764  13.481  20.137  0.00  0.00    +0.000 A 
ATOM      9  C   UNL     1      -0.816  10.584  17.969  0.00  0.00    +0.000 C 
ATOM     10  O   UNL     1      -1.427   9.738  17.340  0.00  0.00    +0.000 OA
ENDROOT
BRANCH   1  16
ATOM     11  N   UNL     1       2.687   6.252  19.504  0.00  0.00    +0.000 N 
ATOM     12  C   UNL     1       2.035   5.902  20.778  0.00  0.00    +0.000 C 
ATOM     13  C   UNL     1       1.509   7.286  20.762  0.00  0.00    +0.000 A 
ATOM     14  C   UNL     1       0.661   8.200  21.313  0.00  0.00    +0.000 A 
ATOM     15  C   UNL     1       0.382   9.319  20.528  0.00  0.00    +0.000 A 
ATOM     16  C   UNL     1       0.962   9.510  19.236  0.00  0.00    +0.000 A 
ATOM     17  C   UNL     1       1.929   8.607  18.779  0.00  0.00    +0.000 A 
ATOM     18  C   UNL     1       2.140   7.512  19.570  0.00  0.00    +0.000 A 
BRANCH  11  19
ATOM     19  C   UNL     1       2.240   5.602  18.259  0.00  0.00    +0.000 C 
BRANCH  19  25
ATOM     20  C   UNL     1       0.789   2.868  19.029  0.00  0.00    +0.000 C 
ATOM     21  N   UNL     1       2.040   3.041  18.346  0.00  0.00    +0.000 N 
ATOM     22  C   UNL     1       2.862   2.029  17.949  0.00  0.00    +0.000 A 
ATOM     23  N   UNL     1       3.904   2.521  17.325  0.00  0.00    +0.000 NA
ATOM     24  N   UNL     1       3.776   3.883  17.328  0.00  0.00    +0.000 NA
ATOM     25  C   UNL     1       2.659   4.200  17.961  0.00  0.00    +0.000 A 
ENDBRANCH  19  25
ENDBRANCH  11  19
ENDBRANCH   1  16
BRANCH   8  26
ATOM     26  C   UNL     1       0.276  14.355  20.789  0.00  0.00    +0.000 C 
ATOM     27  F   UNL     1      -0.240  15.316  21.606  0.00  0.00    +0.000 F 
ATOM     28  F   UNL     1       1.151  13.650  21.560  0.00  0.00    +0.000 F 
ATOM     29  F   UNL     1       1.032  15.018  19.872  0.00  0.00    +0.000 F 
ENDBRANCH   8  26
BRANCH   6  30
ATOM     30  C   UNL     1      -4.486  12.679  20.628  0.00  0.00    +0.000 C 
BRANCH  30  31
ATOM     31  C   UNL     1      -5.489  12.067  19.669  0.00  0.00    +0.000 C 
ATOM     32  C   UNL     1      -6.238  13.113  18.825  0.00  0.00    +0.000 C 
ATOM     33  N   UNL     1      -7.520  12.512  19.209  0.00  0.00    +0.000 NA
ATOM     34  C   UNL     1      -6.870  11.676  20.226  0.00  0.00    +0.000 C 
ATOM     35  H   UNL     1      -7.967  11.982  18.463  0.00  0.00    +0.000 HD
ENDBRANCH  30  31
ENDBRANCH   6  30
TORSDOF 6
ENDMDL
MODEL 6
REMARK VINA RESULT:      -7.6      4.658      7.912
REMARK  Name = 
REMARK  7 active torsions:
REMARK  status: ('A' for Active; 'I' for Inactive)
REMARK    1  A    between atoms: C_1  and  N_2
REMARK    2  A    between atoms: C_6  and  C_7
REMARK    3  A    between atoms: C_7  and  N_8
REMARK    4  A    between atoms: C_13  and  N_14
REMARK    5  A    between atoms: C_19  and  C_20
REMARK    6  A    between atoms: C_20  and  C_21
REMARK    7  A    between atoms: C_26  and  C_27
REMARK                            x       y       z     vdW  Elec       q    Type
REMARK                         _______ _______ _______ _____ _____    ______ ____
ROOT
ATOM      1  N   UNL     1      -1.109  12.811  23.128  0.00  0.00    +0.000 N 
ATOM      2  C   UNL     1      -0.213  13.665  22.352  0.00  0.00    +0.000 C 
ATOM      3  C   UNL     1      -0.085  12.882  21.086  0.00  0.00    +0.000 A 
ATOM      4  C   UNL     1      -0.423  11.557  21.350  0.00  0.00    +0.000 A 
ATOM      5  C   UNL     1      -0.648  10.614  20.368  0.00  0.00    +0.000 A 
ATOM      6  C   UNL     1      -0.506  11.030  19.044  0.00  0.00    +0.000 A 
ATOM      7  C   UNL     1      -0.062  12.342  18.765  0.00  0.00    +0.000 A 
ATOM      8  C   UNL     1       0.148  13.297  19.782  0.00  0.00    +0.000 A 
ATOM      9  C   UNL     1      -0.913  11.481  22.727  0.00  0.00    +0.000 C 
ATOM     10  O   UNL     1      -1.249  10.445  23.273  0.00  0.00    +0.000 OA
ENDROOT
BRANCH   1  16
ATOM     11  N   UNL     1      -5.979  13.298  22.236  0.00  0.00    +0.000 N 
ATOM     12  C   UNL     1      -6.306  14.517  22.995  0.00  0.00    +0.000 C 
ATOM     13  C   UNL     1      -4.959  14.374  23.592  0.00  0.00    +0.000 A 
ATOM     14  C   UNL     1      -3.978  14.927  24.360  0.00  0.00    +0.000 A 
ATOM     15  C   UNL     1      -2.710  14.358  24.226  0.00  0.00    +0.000 A 
ATOM     16  C   UNL     1      -2.456  13.254  23.355  0.00  0.00    +0.000 A 
ATOM     17  C   UNL     1      -3.528  12.641  22.695  0.00  0.00    +0.000 A 
ATOM     18  C   UNL     1      -4.741  13.258  22.834  0.00  0.00    +0.000 A 
BRANCH  11  19
ATOM     19  C   UNL     1      -5.802  13.381  20.775  0.00  0.00    +0.000 C 
BRANCH  19  25
ATOM     20  C   UNL     1      -6.472  13.352  17.657  0.00  0.00    +0.000 C 
ATOM     21  N   UNL     1      -6.531  12.255  18.582  0.00  0.00    +0.000 N 
ATOM     22  C   UNL     1      -6.946  10.994  18.277  0.00  0.00    +0.000 A 
ATOM     23  N   UNL     1      -6.847  10.225  19.333  0.00  0.00    +0.000 NA
ATOM     24  N   UNL     1      -6.376  10.999  20.359  0.00  0.00    +0.000 NA
ATOM     25  C   UNL     1      -6.201  12.231  19.911  0.00  0.00    +0.000 A 
ENDBRANCH  19  25
ENDBRANCH  11  19
ENDBRANCH   1  16
BRANCH   8  26
ATOM     26  C   UNL     1       0.510  14.716  19.429  0.00  0.00    +0.000 C 
ATOM     27  F   UNL     1       1.313  15.328  20.345  0.00  0.00    +0.000 F 
ATOM     28  F   UNL     1       1.170  14.815  18.240  0.00  0.00    +0.000 F 
ATOM     29  F   UNL     1      -0.590  15.510  19.315  0.00  0.00    +0.000 F 
ENDBRANCH   8  26
BRANCH   6  30
ATOM     30  C   UNL     1      -0.934  10.117  17.924  0.00  0.00    +0.000 C 
BRANCH  30  31
ATOM     31  C   UNL     1      -2.435  10.189  17.712  0.00  0.00    +0.000 C 
ATOM     32  C   UNL     1      -2.838  10.223  16.228  0.00  0.00    +0.000 C 
ATOM     33  N   UNL     1      -3.672  11.403  16.476  0.00  0.00    +0.000 NA
ATOM     34  C   UNL     1      -3.110  11.568  17.822  0.00  0.00    +0.000 C 
ATOM     35  H   UNL     1      -4.672  11.211  16.467  0.00  0.00    +0.000 HD
ENDBRANCH  30  31
ENDBRANCH   6  30
TORSDOF 6
ENDMDL
MODEL 7
REMARK VINA RESULT:      -7.6      0.974      1.465
REMARK  Name = 
REMARK  7 active torsions:
REMARK  status: ('A' for Active; 'I' for Inactive)
REMARK    1  A    between atoms: C_1  and  N_2
REMARK    2  A    between atoms: C_6  and  C_7
REMARK    3  A    between atoms: C_7  and  N_8
REMARK    4  A    between atoms: C_13  and  N_14
REMARK    5  A    between atoms: C_19  and  C_20
REMARK    6  A    between atoms: C_20  and  C_21
REMARK    7  A    between atoms: C_26  and  C_27
REMARK                            x       y       z     vdW  Elec       q    Type
REMARK                         _______ _______ _______ _____ _____    ______ ____
ROOT
ATOM      1  N   UNL     1       0.546  10.627  18.487  0.00  0.00    +0.000 N 
ATOM      2  C   UNL     1       1.065  11.962  18.772  0.00  0.00    +0.000 C 
ATOM      3  C   UNL     1      -0.148  12.637  19.326  0.00  0.00    +0.000 A 
ATOM      4  C   UNL     1      -1.275  11.938  18.900  0.00  0.00    +0.000 A 
ATOM      5  C   UNL     1      -2.539  12.136  19.417  0.00  0.00    +0.000 A 
ATOM      6  C   UNL     1      -2.674  13.107  20.409  0.00  0.00    +0.000 A 
ATOM      7  C   UNL     1      -1.560  13.894  20.775  0.00  0.00    +0.000 A 
ATOM      8  C   UNL     1      -0.272  13.668  20.247  0.00  0.00    +0.000 A 
ATOM      9  C   UNL     1      -0.824  10.734  18.201  0.00  0.00    +0.000 C 
ATOM     10  O   UNL     1      -1.574   9.933  17.671  0.00  0.00    +0.000 OA
ENDROOT
BRANCH   1  16
ATOM     11  N   UNL     1       2.806   6.328  19.565  0.00  0.00    +0.000 N 
ATOM     12  C   UNL     1       2.090   5.905  20.781  0.00  0.00    +0.000 C 
ATOM     13  C   UNL     1       1.514   7.270  20.783  0.00  0.00    +0.000 A 
ATOM     14  C   UNL     1       0.599   8.130  21.313  0.00  0.00    +0.000 A 
ATOM     15  C   UNL     1       0.327   9.268  20.553  0.00  0.00    +0.000 A 
ATOM     16  C   UNL     1       0.977   9.530  19.308  0.00  0.00    +0.000 A 
ATOM     17  C   UNL     1       2.005   8.681  18.880  0.00  0.00    +0.000 A 
ATOM     18  C   UNL     1       2.208   7.564  19.643  0.00  0.00    +0.000 A 
BRANCH  11  19
ATOM     19  C   UNL     1       2.462   5.711  18.271  0.00  0.00    +0.000 C 
BRANCH  19  25
ATOM     20  C   UNL     1       3.011   2.625  17.683  0.00  0.00    +0.000 C 
ATOM     21  N   UNL     1       3.774   3.757  17.238  0.00  0.00    +0.000 N 
ATOM     22  C   UNL     1       4.924   3.690  16.512  0.00  0.00    +0.000 A 
ATOM     23  N   UNL     1       5.351   4.899  16.240  0.00  0.00    +0.000 NA
ATOM     24  N   UNL     1       4.476   5.779  16.816  0.00  0.00    +0.000 NA
ATOM     25  C   UNL     1       3.532   5.091  17.435  0.00  0.00    +0.000 A 
ENDBRANCH  19  25
ENDBRANCH  11  19
ENDBRANCH   1  16
BRANCH   8  26
ATOM     26  C   UNL     1       0.908  14.456  20.753  0.00  0.00    +0.000 C 
ATOM     27  F   UNL     1       1.852  13.700  21.381  0.00  0.00    +0.000 F 
ATOM     28  F   UNL     1       1.569  15.115  19.759  0.00  0.00    +0.000 F 
ATOM     29  F   UNL     1       0.538  15.407  21.653  0.00  0.00    +0.000 F 
ENDBRANCH   8  26
BRANCH   6  30
ATOM     30  C   UNL     1      -3.975  13.232  21.160  0.00  0.00    +0.000 C 
BRANCH  30  31
ATOM     31  C   UNL     1      -3.726  13.411  22.645  0.00  0.00    +0.000 C 
ATOM     32  C   UNL     1      -3.137  12.159  23.317  0.00  0.00    +0.000 C 
ATOM     33  N   UNL     1      -4.178  12.218  24.349  0.00  0.00    +0.000 NA
ATOM     34  C   UNL     1      -4.921  13.238  23.600  0.00  0.00    +0.000 C 
ATOM     35  H   UNL     1      -3.841  12.536  25.257  0.00  0.00    +0.000 HD
ENDBRANCH  30  31
ENDBRANCH   6  30
TORSDOF 6
ENDMDL
MODEL 8
REMARK VINA RESULT:      -7.6      1.309      1.640
REMARK  Name = 
REMARK  7 active torsions:
REMARK  status: ('A' for Active; 'I' for Inactive)
REMARK    1  A    between atoms: C_1  and  N_2
REMARK    2  A    between atoms: C_6  and  C_7
REMARK    3  A    between atoms: C_7  and  N_8
REMARK    4  A    between atoms: C_13  and  N_14
REMARK    5  A    between atoms: C_19  and  C_20
REMARK    6  A    between atoms: C_20  and  C_21
REMARK    7  A    between atoms: C_26  and  C_27
REMARK                            x       y       z     vdW  Elec       q    Type
REMARK                         _______ _______ _______ _____ _____    ______ ____
ROOT
ATOM      1  N   UNL     1       0.295  10.748  18.418  0.00  0.00    +0.000 N 
ATOM      2  C   UNL     1       0.606  12.125  18.793  0.00  0.00    +0.000 C 
ATOM      3  C   UNL     1      -0.729  12.613  19.254  0.00  0.00    +0.000 A 
ATOM      4  C   UNL     1      -1.713  11.794  18.703  0.00  0.00    +0.000 A 
ATOM      5  C   UNL     1      -3.032  11.804  19.106  0.00  0.00    +0.000 A 
ATOM      6  C   UNL     1      -3.381  12.704  20.112  0.00  0.00    +0.000 A 
ATOM      7  C   UNL     1      -2.417  13.612  20.606  0.00  0.00    +0.000 A 
ATOM      8  C   UNL     1      -1.069  13.577  20.193  0.00  0.00    +0.000 A 
ATOM      9  C   UNL     1      -1.046  10.690  18.010  0.00  0.00    +0.000 C 
ATOM     10  O   UNL     1      -1.634   9.824  17.387  0.00  0.00    +0.000 OA
ENDROOT
BRANCH   1  16
ATOM     11  N   UNL     1       2.708   6.527  19.472  0.00  0.00    +0.000 N 
ATOM     12  C   UNL     1       2.067   6.117  20.733  0.00  0.00    +0.000 C 
ATOM     13  C   UNL     1       1.459   7.468  20.735  0.00  0.00    +0.000 A 
ATOM     14  C   UNL     1       0.554   8.320  21.293  0.00  0.00    +0.000 A 
ATOM     15  C   UNL     1       0.216   9.434  20.523  0.00  0.00    +0.000 A 
ATOM     16  C   UNL     1       0.794   9.681  19.240  0.00  0.00    +0.000 A 
ATOM     17  C   UNL     1       1.818   8.845  18.778  0.00  0.00    +0.000 A 
ATOM     18  C   UNL     1       2.086   7.751  19.554  0.00  0.00    +0.000 A 
BRANCH  11  19
ATOM     19  C   UNL     1       2.311   5.872  18.212  0.00  0.00    +0.000 C 
BRANCH  19  25
ATOM     20  C   UNL     1       4.889   4.005  18.409  0.00  0.00    +0.000 C 
ATOM     21  N   UNL     1       3.537   3.615  18.124  0.00  0.00    +0.000 N 
ATOM     22  C   UNL     1       3.132   2.347  17.830  0.00  0.00    +0.000 A 
ATOM     23  N   UNL     1       1.834   2.323  17.656  0.00  0.00    +0.000 NA
ATOM     24  N   UNL     1       1.377   3.603  17.817  0.00  0.00    +0.000 NA
ATOM     25  C   UNL     1       2.408   4.388  18.083  0.00  0.00    +0.000 A 
ENDBRANCH  19  25
ENDBRANCH  11  19
ENDBRANCH   1  16
BRANCH   8  26
ATOM     26  C   UNL     1      -0.054  14.488  20.831  0.00  0.00    +0.000 C 
ATOM     27  F   UNL     1       0.872  13.839  21.592  0.00  0.00    +0.000 F 
ATOM     28  F   UNL     1       0.661  15.206  19.919  0.00  0.00    +0.000 F 
ATOM     29  F   UNL     1      -0.635  15.400  21.657  0.00  0.00    +0.000 F 
ENDBRANCH   8  26
BRANCH   6  30
ATOM     30  C   UNL     1      -4.748  12.627  20.743  0.00  0.00    +0.000 C 
BRANCH  30  31
ATOM     31  C   UNL     1      -5.342  14.013  20.915  0.00  0.00    +0.000 C 
ATOM     32  C   UNL     1      -6.691  14.008  21.653  0.00  0.00    +0.000 C 
ATOM     33  N   UNL     1      -7.287  14.813  20.582  0.00  0.00    +0.000 NA
ATOM     34  C   UNL     1      -6.111  14.617  19.725  0.00  0.00    +0.000 C 
ATOM     35  H   UNL     1      -7.453  15.784  20.839  0.00  0.00    +0.000 HD
ENDBRANCH  30  31
ENDBRANCH   6  30
TORSDOF 6
ENDMDL
MODEL 9
REMARK VINA RESULT:      -7.6      4.654      8.016
REMARK  Name = 
REMARK  7 active torsions:
REMARK  status: ('A' for Active; 'I' for Inactive)
REMARK    1  A    between atoms: C_1  and  N_2
REMARK    2  A    between atoms: C_6  and  C_7
REMARK    3  A    between atoms: C_7  and  N_8
REMARK    4  A    between atoms: C_13  and  N_14
REMARK    5  A    between atoms: C_19  and  C_20
REMARK    6  A    between atoms: C_20  and  C_21
REMARK    7  A    between atoms: C_26  and  C_27
REMARK                            x       y       z     vdW  Elec       q    Type
REMARK                         _______ _______ _______ _____ _____    ______ ____
ROOT
ATOM      1  N   UNL     1      -1.212  12.830  23.141  0.00  0.00    +0.000 N 
ATOM      2  C   UNL     1      -0.272  13.673  22.407  0.00  0.00    +0.000 C 
ATOM      3  C   UNL     1      -0.080  12.878  21.156  0.00  0.00    +0.000 A 
ATOM      4  C   UNL     1      -0.439  11.556  21.414  0.00  0.00    +0.000 A 
ATOM      5  C   UNL     1      -0.615  10.605  20.430  0.00  0.00    +0.000 A 
ATOM      6  C   UNL     1      -0.401  11.008  19.112  0.00  0.00    +0.000 A 
ATOM      7  C   UNL     1       0.064  12.315  18.846  0.00  0.00    +0.000 A 
ATOM      8  C   UNL     1       0.225  13.279  19.863  0.00  0.00    +0.000 A 
ATOM      9  C   UNL     1      -1.002  11.495  22.763  0.00  0.00    +0.000 C 
ATOM     10  O   UNL     1      -1.372  10.466  23.301  0.00  0.00    +0.000 OA
ENDROOT
BRANCH   1  16
ATOM     11  N   UNL     1      -5.952  13.602  21.838  0.00  0.00    +0.000 N 
ATOM     12  C   UNL     1      -6.334  14.712  22.729  0.00  0.00    +0.000 C 
ATOM     13  C   UNL     1      -5.060  14.440  23.433  0.00  0.00    +0.000 A 
ATOM     14  C   UNL     1      -4.155  14.845  24.368  0.00  0.00    +0.000 A 
ATOM     15  C   UNL     1      -2.892  14.258  24.283  0.00  0.00    +0.000 A 
ATOM     16  C   UNL     1      -2.568  13.281  23.292  0.00  0.00    +0.000 A 
ATOM     17  C   UNL     1      -3.575  12.805  22.444  0.00  0.00    +0.000 A 
ATOM     18  C   UNL     1      -4.784  13.436  22.547  0.00  0.00    +0.000 A 
BRANCH  11  19
ATOM     19  C   UNL     1      -5.619  13.886  20.430  0.00  0.00    +0.000 C 
BRANCH  19  25
ATOM     20  C   UNL     1      -7.136  11.091  20.675  0.00  0.00    +0.000 C 
ATOM     21  N   UNL     1      -6.775  11.797  19.478  0.00  0.00    +0.000 N 
ATOM     22  C   UNL     1      -6.985  11.346  18.209  0.00  0.00    +0.000 A 
ATOM     23  N   UNL     1      -6.573  12.242  17.345  0.00  0.00    +0.000 NA
ATOM     24  N   UNL     1      -6.065  13.293  18.058  0.00  0.00    +0.000 NA
ATOM     25  C   UNL     1      -6.170  13.019  19.347  0.00  0.00    +0.000 A 
ENDBRANCH  19  25
ENDBRANCH  11  19
ENDBRANCH   1  16
BRANCH   8  26
ATOM     26  C   UNL     1       0.611  14.693  19.517  0.00  0.00    +0.000 C 
ATOM     27  F   UNL     1       0.947  14.872  18.208  0.00  0.00    +0.000 F 
ATOM     28  F   UNL     1      -0.385  15.590  19.766  0.00  0.00    +0.000 F 
ATOM     29  F   UNL     1       1.687  15.117  20.235  0.00  0.00    +0.000 F 
ENDBRANCH   8  26
BRANCH   6  30
ATOM     30  C   UNL     1      -0.773  10.086  17.979  0.00  0.00    +0.000 C 
BRANCH  30  31
ATOM     31  C   UNL     1      -2.252  10.195  17.658  0.00  0.00    +0.000 C 
ATOM     32  C   UNL     1      -2.533  10.912  16.326  0.00  0.00    +0.000 C 
ATOM     33  N   UNL     1      -3.482  11.803  17.000  0.00  0.00    +0.000 NA
ATOM     34  C   UNL     1      -3.049  11.333  18.322  0.00  0.00    +0.000 C 
ATOM     35  H   UNL     1      -4.458  11.601  16.790  0.00  0.00    +0.000 HD
ENDBRANCH  30  31
ENDBRANCH   6  30
TORSDOF 6
ENDMDL
