MODEL 1
REMARK VINA RESULT:      -9.7      0.000      0.000
REMARK  Name = 
REMARK  6 active torsions:
REMARK  status: ('A' for Active; 'I' for Inactive)
REMARK    1  A    between atoms: C_1  and  N_2
REMARK    2  A    between atoms: C_8  and  C_9
REMARK    3  A    between atoms: N_11  and  C_12
REMARK    4  A    between atoms: C_12  and  C_13
REMARK    5  A    between atoms: C_18  and  O_19
REMARK    6  A    between atoms: O_19  and  C_20
REMARK                            x       y       z     vdW  Elec       q    Type
REMARK                         _______ _______ _______ _____ _____    ______ ____
ROOT
ATOM      1  C   UNL     1       2.248   8.358  18.176  0.00  0.00    +0.000 C 
ATOM      2  O   UNL     1       2.361   9.000  17.138  0.00  0.00    +0.000 OA
ATOM      3  N   UNL     1       2.881   7.152  18.396  0.00  0.00    +0.000 N 
ATOM      4  H   UNL     1       2.982   6.819  19.348  0.00  0.00    +0.000 HD
ENDROOT
BRANCH   1  12
ATOM      5  C   UNL     1      -2.193  12.769  22.175  0.00  0.00    +0.000 C 
ATOM      6  N   UNL     1      -1.353  11.726  21.638  0.00  0.00    +0.000 N 
ATOM      7  C   UNL     1      -0.769  10.737  22.381  0.00  0.00    +0.000 C 
ATOM      8  O   UNL     1      -0.846  10.521  23.573  0.00  0.00    +0.000 OA
ATOM      9  C   UNL     1       0.031   9.939  21.449  0.00  0.00    +0.000 A 
ATOM     10  C   UNL     1       0.856   8.857  21.675  0.00  0.00    +0.000 A 
ATOM     11  C   UNL     1       1.550   8.343  20.571  0.00  0.00    +0.000 A 
ATOM     12  C   UNL     1       1.397   8.901  19.274  0.00  0.00    +0.000 A 
ATOM     13  C   UNL     1       0.542   9.994  19.073  0.00  0.00    +0.000 A 
ATOM     14  C   UNL     1      -0.120  10.488  20.187  0.00  0.00    +0.000 A 
ATOM     15  C   UNL     1      -1.013  11.638  20.316  0.00  0.00    +0.000 C 
ATOM     16  O   UNL     1      -1.341  12.346  19.384  0.00  0.00    +0.000 OA
ENDBRANCH   1  12
BRANCH   3  17
ATOM     17  C   UNL     1       3.792   6.603  17.393  0.00  0.00    +0.000 C 
BRANCH  17  18
ATOM     18  C   UNL     1       5.154   6.264  17.938  0.00  0.00    +0.000 A 
ATOM     19  C   UNL     1       6.324   6.778  17.354  0.00  0.00    +0.000 A 
ATOM     20  C   UNL     1       7.574   6.494  17.900  0.00  0.00    +0.000 A 
ATOM     21  C   UNL     1       7.629   5.681  19.011  0.00  0.00    +0.000 A 
ATOM     22  N   UNL     1       6.536   5.178  19.610  0.00  0.00    +0.000 NA
ATOM     23  C   UNL     1       5.319   5.519  19.111  0.00  0.00    +0.000 A 
BRANCH  23  24
ATOM     24  O   UNL     1       4.187   5.131  19.831  0.00  0.00    +0.000 OA
BRANCH  24  25
ATOM     25  C   UNL     1       3.536   3.984  19.408  0.00  0.00    +0.000 A 
ATOM     26  C   UNL     1       4.200   2.933  18.758  0.00  0.00    +0.000 A 
ATOM     27  C   UNL     1       3.488   1.841  18.257  0.00  0.00    +0.000 A 
ATOM     28  C   UNL     1       2.113   1.764  18.464  0.00  0.00    +0.000 A 
ATOM     29  C   UNL     1       1.473   2.769  19.182  0.00  0.00    +0.000 A 
ATOM     30  F   UNL     1       0.156   2.672  19.409  0.00  0.00    +0.000 F 
ATOM     31  C   UNL     1       2.169   3.878  19.662  0.00  0.00    +0.000 A 
ENDBRANCH  24  25
ENDBRANCH  23  24
ENDBRANCH  17  18
ENDBRANCH   3  17
TORSDOF 5
ENDMDL
MODEL 2
REMARK VINA RESULT:      -9.4      0.842      1.213
REMARK  Name = 
REMARK  6 active torsions:
REMARK  status: ('A' for Active; 'I' for Inactive)
REMARK    1  A    between atoms: C_1  and  N_2
REMARK    2  A    between atoms: C_8  and  C_9
REMARK    3  A    between atoms: N_11  and  C_12
REMARK    4  A    between atoms: C_12  and  C_13
REMARK    5  A    between atoms: C_18  and  O_19
REMARK    6  A    between atoms: O_19  and  C_20
REMARK                            x       y       z     vdW  Elec       q    Type
REMARK                         _______ _______ _______ _____ _____    ______ ____
ROOT
ATOM      1  C   UNL     1       2.132   8.444  18.194  0.00  0.00    +0.000 C 
ATOM      2  O   UNL     1       2.315   9.103  17.176  0.00  0.00    +0.000 OA
ATOM      3  N   UNL     1       2.674   7.191  18.395  0.00  0.00    +0.000 N 
ATOM      4  H   UNL     1       2.728   6.827  19.339  0.00  0.00    +0.000 HD
ENDROOT
BRANCH   1  12
ATOM      5  C   UNL     1      -2.265  12.961  22.122  0.00  0.00    +0.000 C 
ATOM      6  N   UNL     1      -1.431  11.904  21.604  0.00  0.00    +0.000 N 
ATOM      7  C   UNL     1      -0.838  10.935  22.366  0.00  0.00    +0.000 C 
ATOM      8  O   UNL     1      -0.903  10.751  23.564  0.00  0.00    +0.000 OA
ATOM      9  C   UNL     1      -0.049  10.112  21.447  0.00  0.00    +0.000 A 
ATOM     10  C   UNL     1       0.779   9.036  21.692  0.00  0.00    +0.000 A 
ATOM     11  C   UNL     1       1.460   8.493  20.595  0.00  0.00    +0.000 A 
ATOM     12  C   UNL     1       1.293   9.016  19.286  0.00  0.00    +0.000 A 
ATOM     13  C   UNL     1       0.435  10.103  19.065  0.00  0.00    +0.000 A 
ATOM     14  C   UNL     1      -0.214  10.627  20.172  0.00  0.00    +0.000 A 
ATOM     15  C   UNL     1      -1.106  11.780  20.281  0.00  0.00    +0.000 C 
ATOM     16  O   UNL     1      -1.444  12.463  19.333  0.00  0.00    +0.000 OA
ENDBRANCH   1  12
BRANCH   3  17
ATOM     17  C   UNL     1       3.570   6.606  17.399  0.00  0.00    +0.000 C 
BRANCH  17  18
ATOM     18  C   UNL     1       4.923   6.239  17.947  0.00  0.00    +0.000 A 
ATOM     19  C   UNL     1       6.106   6.692  17.339  0.00  0.00    +0.000 A 
ATOM     20  C   UNL     1       7.349   6.384  17.886  0.00  0.00    +0.000 A 
ATOM     21  C   UNL     1       7.385   5.610  19.026  0.00  0.00    +0.000 A 
ATOM     22  N   UNL     1       6.279   5.166  19.648  0.00  0.00    +0.000 NA
ATOM     23  C   UNL     1       5.072   5.531  19.144  0.00  0.00    +0.000 A 
BRANCH  23  24
ATOM     24  O   UNL     1       3.932   5.208  19.884  0.00  0.00    +0.000 OA
BRANCH  24  25
ATOM     25  C   UNL     1       3.218   4.090  19.484  0.00  0.00    +0.000 A 
ATOM     26  C   UNL     1       1.817   4.037  19.511  0.00  0.00    +0.000 A 
ATOM     27  C   UNL     1       1.143   2.855  19.196  0.00  0.00    +0.000 A 
ATOM     28  C   UNL     1       1.867   1.738  18.787  0.00  0.00    +0.000 A 
ATOM     29  C   UNL     1       3.251   1.823  18.682  0.00  0.00    +0.000 A 
ATOM     30  F   UNL     1       3.941   0.757  18.254  0.00  0.00    +0.000 F 
ATOM     31  C   UNL     1       3.938   2.989  19.021  0.00  0.00    +0.000 A 
ENDBRANCH  24  25
ENDBRANCH  23  24
ENDBRANCH  17  18
ENDBRANCH   3  17
TORSDOF 5
ENDMDL
MODEL 3
REMARK VINA RESULT:      -9.3      1.183      1.277
REMARK  Name = 
REMARK  6 active torsions:
REMARK  status: ('A' for Active; 'I' for Inactive)
REMARK    1  A    between atoms: C_1  and  N_2
REMARK    2  A    between atoms: C_8  and  C_9
REMARK    3  A    between atoms: N_11  and  C_12
REMARK    4  A    between atoms: C_12  and  C_13
REMARK    5  A    between atoms: C_18  and  O_19
REMARK    6  A    between atoms: O_19  and  C_20
REMARK                            x       y       z     vdW  Elec       q    Type
REMARK                         _______ _______ _______ _____ _____    ______ ____
ROOT
ATOM      1  C   UNL     1       2.414   8.419  18.016  0.00  0.00    +0.000 C 
ATOM      2  O   UNL     1       2.379   9.151  17.032  0.00  0.00    +0.000 OA
ATOM      3  N   UNL     1       3.155   7.257  18.072  0.00  0.00    +0.000 N 
ATOM      4  H   UNL     1       3.370   6.858  18.977  0.00  0.00    +0.000 HD
ENDROOT
BRANCH   1  12
ATOM      5  C   UNL     1      -1.662  12.242  22.908  0.00  0.00    +0.000 C 
ATOM      6  N   UNL     1      -0.894  11.276  22.163  0.00  0.00    +0.000 N 
ATOM      7  C   UNL     1      -0.331  10.149  22.697  0.00  0.00    +0.000 C 
ATOM      8  O   UNL     1      -0.376   9.731  23.836  0.00  0.00    +0.000 OA
ATOM      9  C   UNL     1       0.395   9.494  21.607  0.00  0.00    +0.000 A 
ATOM     10  C   UNL     1       1.175   8.356  21.605  0.00  0.00    +0.000 A 
ATOM     11  C   UNL     1       1.803   8.015  20.400  0.00  0.00    +0.000 A 
ATOM     12  C   UNL     1       1.630   8.797  19.227  0.00  0.00    +0.000 A 
ATOM     13  C   UNL     1       0.821   9.941  19.256  0.00  0.00    +0.000 A 
ATOM     14  C   UNL     1       0.225  10.261  20.466  0.00  0.00    +0.000 A 
ATOM     15  C   UNL     1      -0.607  11.406  20.831  0.00  0.00    +0.000 C 
ATOM     16  O   UNL     1      -0.934  12.278  20.050  0.00  0.00    +0.000 OA
ENDBRANCH   1  12
BRANCH   3  17
ATOM     17  C   UNL     1       4.008   6.871  16.948  0.00  0.00    +0.000 C 
BRANCH  17  18
ATOM     18  C   UNL     1       5.299   6.219  17.368  0.00  0.00    +0.000 A 
ATOM     19  C   UNL     1       6.463   6.974  17.583  0.00  0.00    +0.000 A 
ATOM     20  C   UNL     1       7.637   6.362  18.018  0.00  0.00    +0.000 A 
ATOM     21  C   UNL     1       7.626   4.997  18.211  0.00  0.00    +0.000 A 
ATOM     22  N   UNL     1       6.532   4.238  18.030  0.00  0.00    +0.000 NA
ATOM     23  C   UNL     1       5.376   4.856  17.673  0.00  0.00    +0.000 A 
BRANCH  23  24
ATOM     24  O   UNL     1       4.208   4.090  17.647  0.00  0.00    +0.000 OA
BRANCH  24  25
ATOM     25  C   UNL     1       3.634   3.778  18.869  0.00  0.00    +0.000 A 
ATOM     26  C   UNL     1       4.176   2.819  19.737  0.00  0.00    +0.000 A 
ATOM     27  C   UNL     1       3.508   2.462  20.911  0.00  0.00    +0.000 A 
ATOM     28  C   UNL     1       2.327   3.114  21.255  0.00  0.00    +0.000 A 
ATOM     29  C   UNL     1       1.839   4.123  20.432  0.00  0.00    +0.000 A 
ATOM     30  F   UNL     1       0.721   4.772  20.786  0.00  0.00    +0.000 F 
ATOM     31  C   UNL     1       2.481   4.468  19.243  0.00  0.00    +0.000 A 
ENDBRANCH  24  25
ENDBRANCH  23  24
ENDBRANCH  17  18
ENDBRANCH   3  17
TORSDOF 5
ENDMDL
MODEL 4
REMARK VINA RESULT:      -9.3      2.265      4.041
REMARK  Name = 
REMARK  6 active torsions:
REMARK  status: ('A' for Active; 'I' for Inactive)
REMARK    1  A    between atoms: C_1  and  N_2
REMARK    2  A    between atoms: C_8  and  C_9
REMARK    3  A    between atoms: N_11  and  C_12
REMARK    4  A    between atoms: C_12  and  C_13
REMARK    5  A    between atoms: C_18  and  O_19
REMARK    6  A    between atoms: O_19  and  C_20
REMARK                            x       y       z     vdW  Elec       q    Type
REMARK                         _______ _______ _______ _____ _____    ______ ____
ROOT
ATOM      1  C   UNL     1       2.220   7.821  19.087  0.00  0.00    +0.000 C 
ATOM      2  O   UNL     1       2.628   7.777  17.932  0.00  0.00    +0.000 OA
ATOM      3  N   UNL     1       2.576   6.903  20.054  0.00  0.00    +0.000 N 
ATOM      4  H   UNL     1       2.446   7.144  21.029  0.00  0.00    +0.000 HD
ENDROOT
BRANCH   1  12
ATOM      5  C   UNL     1      -2.247  12.227  23.062  0.00  0.00    +0.000 C 
ATOM      6  N   UNL     1      -1.439  11.568  22.066  0.00  0.00    +0.000 N 
ATOM      7  C   UNL     1      -1.549  11.769  20.717  0.00  0.00    +0.000 C 
ATOM      8  O   UNL     1      -2.285  12.516  20.106  0.00  0.00    +0.000 OA
ATOM      9  C   UNL     1      -0.583  10.865  20.086  0.00  0.00    +0.000 A 
ATOM     10  C   UNL     1      -0.316  10.628  18.753  0.00  0.00    +0.000 A 
ATOM     11  C   UNL     1       0.633   9.640  18.460  0.00  0.00    +0.000 A 
ATOM     12  C   UNL     1       1.301   8.925  19.489  0.00  0.00    +0.000 A 
ATOM     13  C   UNL     1       1.017   9.196  20.834  0.00  0.00    +0.000 A 
ATOM     14  C   UNL     1       0.065  10.170  21.093  0.00  0.00    +0.000 A 
ATOM     15  C   UNL     1      -0.491  10.628  22.365  0.00  0.00    +0.000 C 
ATOM     16  O   UNL     1      -0.138  10.202  23.447  0.00  0.00    +0.000 OA
ENDBRANCH   1  12
BRANCH   3  17
ATOM     17  C   UNL     1       3.534   5.843  19.747  0.00  0.00    +0.000 C 
BRANCH  17  18
ATOM     18  C   UNL     1       2.904   4.483  19.605  0.00  0.00    +0.000 A 
ATOM     19  C   UNL     1       1.510   4.313  19.658  0.00  0.00    +0.000 A 
ATOM     20  C   UNL     1       0.940   3.055  19.476  0.00  0.00    +0.000 A 
ATOM     21  C   UNL     1       1.781   1.984  19.262  0.00  0.00    +0.000 A 
ATOM     22  N   UNL     1       3.118   2.102  19.191  0.00  0.00    +0.000 NA
ATOM     23  C   UNL     1       3.658   3.344  19.300  0.00  0.00    +0.000 A 
BRANCH  23  24
ATOM     24  O   UNL     1       5.027   3.484  19.061  0.00  0.00    +0.000 OA
BRANCH  24  25
ATOM     25  C   UNL     1       5.399   4.107  17.881  0.00  0.00    +0.000 A 
ATOM     26  C   UNL     1       4.840   3.770  16.639  0.00  0.00    +0.000 A 
ATOM     27  C   UNL     1       5.317   4.351  15.462  0.00  0.00    +0.000 A 
ATOM     28  C   UNL     1       6.312   5.323  15.530  0.00  0.00    +0.000 A 
ATOM     29  C   UNL     1       6.803   5.713  16.771  0.00  0.00    +0.000 A 
ATOM     30  F   UNL     1       7.735   6.674  16.833  0.00  0.00    +0.000 F 
ATOM     31  C   UNL     1       6.355   5.119  17.951  0.00  0.00    +0.000 A 
ENDBRANCH  24  25
ENDBRANCH  23  24
ENDBRANCH  17  18
ENDBRANCH   3  17
TORSDOF 5
ENDMDL
MODEL 5
REMARK VINA RESULT:      -9.3      2.250      4.130
REMARK  Name = 
REMARK  6 active torsions:
REMARK  status: ('A' for Active; 'I' for Inactive)
REMARK    1  A    between atoms: C_1  and  N_2
REMARK    2  A    between atoms: C_8  and  C_9
REMARK    3  A    between atoms: N_11  and  C_12
REMARK    4  A    between atoms: C_12  and  C_13
REMARK    5  A    between atoms: C_18  and  O_19
REMARK    6  A    between atoms: O_19  and  C_20
REMARK                            x       y       z     vdW  Elec       q    Type
REMARK                         _______ _______ _______ _____ _____    ______ ____
ROOT
ATOM      1  C   UNL     1       1.905   8.289  19.331  0.00  0.00    +0.000 C 
ATOM      2  O   UNL     1       2.594   8.352  18.319  0.00  0.00    +0.000 OA
ATOM      3  N   UNL     1       1.973   7.246  20.233  0.00  0.00    +0.000 N 
ATOM      4  H   UNL     1       1.605   7.382  21.166  0.00  0.00    +0.000 HD
ENDROOT
BRANCH   1  12
ATOM      5  C   UNL     1      -2.759  12.869  22.857  0.00  0.00    +0.000 C 
ATOM      6  N   UNL     1      -1.914  12.155  21.932  0.00  0.00    +0.000 N 
ATOM      7  C   UNL     1      -2.006  12.241  20.570  0.00  0.00    +0.000 C 
ATOM      8  O   UNL     1      -2.752  12.913  19.888  0.00  0.00    +0.000 OA
ATOM      9  C   UNL     1      -1.003  11.319  20.030  0.00  0.00    +0.000 A 
ATOM     10  C   UNL     1      -0.705  10.981  18.726  0.00  0.00    +0.000 A 
ATOM     11  C   UNL     1       0.277  10.001  18.531  0.00  0.00    +0.000 A 
ATOM     12  C   UNL     1       0.947   9.394  19.626  0.00  0.00    +0.000 A 
ATOM     13  C   UNL     1       0.631   9.766  20.940  0.00  0.00    +0.000 A 
ATOM     14  C   UNL     1      -0.354  10.728  21.102  0.00  0.00    +0.000 A 
ATOM     15  C   UNL     1      -0.945  11.273  22.323  0.00  0.00    +0.000 C 
ATOM     16  O   UNL     1      -0.600  10.948  23.442  0.00  0.00    +0.000 OA
ENDBRANCH   1  12
BRANCH   3  17
ATOM     17  C   UNL     1       2.946   6.171  20.045  0.00  0.00    +0.000 C 
BRANCH  17  18
ATOM     18  C   UNL     1       2.341   4.894  19.524  0.00  0.00    +0.000 A 
ATOM     19  C   UNL     1       1.456   4.133  20.306  0.00  0.00    +0.000 A 
ATOM     20  C   UNL     1       0.867   2.980  19.792  0.00  0.00    +0.000 A 
ATOM     21  C   UNL     1       1.191   2.600  18.507  0.00  0.00    +0.000 A 
ATOM     22  N   UNL     1       2.022   3.305  17.720  0.00  0.00    +0.000 NA
ATOM     23  C   UNL     1       2.535   4.464  18.207  0.00  0.00    +0.000 A 
BRANCH  23  24
ATOM     24  O   UNL     1       3.263   5.275  17.332  0.00  0.00    +0.000 OA
BRANCH  24  25
ATOM     25  C   UNL     1       4.585   4.928  17.108  0.00  0.00    +0.000 A 
ATOM     26  C   UNL     1       5.580   5.067  18.087  0.00  0.00    +0.000 A 
ATOM     27  C   UNL     1       6.918   4.803  17.785  0.00  0.00    +0.000 A 
ATOM     28  C   UNL     1       7.258   4.334  16.518  0.00  0.00    +0.000 A 
ATOM     29  C   UNL     1       6.255   4.119  15.579  0.00  0.00    +0.000 A 
ATOM     30  F   UNL     1       6.583   3.633  14.373  0.00  0.00    +0.000 F 
ATOM     31  C   UNL     1       4.920   4.406  15.859  0.00  0.00    +0.000 A 
ENDBRANCH  24  25
ENDBRANCH  23  24
ENDBRANCH  17  18
ENDBRANCH   3  17
TORSDOF 5
ENDMDL
MODEL 6
REMARK VINA RESULT:      -9.1      2.002      3.898
REMARK  Name = 
REMARK  6 active torsions:
REMARK  status: ('A' for Active; 'I' for Inactive)
REMARK    1  A    between atoms: C_1  and  N_2
REMARK    2  A    between atoms: C_8  and  C_9
REMARK    3  A    between atoms: N_11  and  C_12
REMARK    4  A    between atoms: C_12  and  C_13
REMARK    5  A    between atoms: C_18  and  O_19
REMARK    6  A    between atoms: O_19  and  C_20
REMARK                            x       y       z     vdW  Elec       q    Type
REMARK                         _______ _______ _______ _____ _____    ______ ____
ROOT
ATOM      1  C   UNL     1       2.275   7.840  19.061  0.00  0.00    +0.000 C 
ATOM      2  O   UNL     1       2.703   7.845  17.911  0.00  0.00    +0.000 OA
ATOM      3  N   UNL     1       2.613   6.879  19.992  0.00  0.00    +0.000 N 
ATOM      4  H   UNL     1       2.467   7.079  20.974  0.00  0.00    +0.000 HD
ENDROOT
BRANCH   1  12
ATOM      5  C   UNL     1      -2.201  12.114  23.166  0.00  0.00    +0.000 C 
ATOM      6  N   UNL     1      -1.393  11.486  22.150  0.00  0.00    +0.000 N 
ATOM      7  C   UNL     1      -1.510  11.721  20.807  0.00  0.00    +0.000 C 
ATOM      8  O   UNL     1      -2.252  12.480  20.219  0.00  0.00    +0.000 OA
ATOM      9  C   UNL     1      -0.542  10.840  20.149  0.00  0.00    +0.000 A 
ATOM     10  C   UNL     1      -0.278  10.639  18.809  0.00  0.00    +0.000 A 
ATOM     11  C   UNL     1       0.675   9.664  18.487  0.00  0.00    +0.000 A 
ATOM     12  C   UNL     1       1.352   8.928  19.494  0.00  0.00    +0.000 A 
ATOM     13  C   UNL     1       1.072   9.162  20.847  0.00  0.00    +0.000 A 
ATOM     14  C   UNL     1       0.115  10.123  21.135  0.00  0.00    +0.000 A 
ATOM     15  C   UNL     1      -0.438  10.545  22.421  0.00  0.00    +0.000 C 
ATOM     16  O   UNL     1      -0.078  10.093  23.490  0.00  0.00    +0.000 OA
ENDBRANCH   1  12
BRANCH   3  17
ATOM     17  C   UNL     1       3.575   5.831  19.656  0.00  0.00    +0.000 C 
BRANCH  17  18
ATOM     18  C   UNL     1       2.942   4.486  19.416  0.00  0.00    +0.000 A 
ATOM     19  C   UNL     1       1.551   4.347  19.275  0.00  0.00    +0.000 A 
ATOM     20  C   UNL     1       0.985   3.103  19.005  0.00  0.00    +0.000 A 
ATOM     21  C   UNL     1       1.824   2.015  18.901  0.00  0.00    +0.000 A 
ATOM     22  N   UNL     1       3.161   2.104  19.016  0.00  0.00    +0.000 NA
ATOM     23  C   UNL     1       3.706   3.333  19.209  0.00  0.00    +0.000 A 
BRANCH  23  24
ATOM     24  O   UNL     1       5.098   3.443  19.163  0.00  0.00    +0.000 OA
BRANCH  24  25
ATOM     25  C   UNL     1       5.642   4.071  18.054  0.00  0.00    +0.000 A 
ATOM     26  C   UNL     1       6.738   4.942  18.140  0.00  0.00    +0.000 A 
ATOM     27  C   UNL     1       7.189   5.632  17.012  0.00  0.00    +0.000 A 
ATOM     28  C   UNL     1       6.586   5.401  15.778  0.00  0.00    +0.000 A 
ATOM     29  C   UNL     1       5.556   4.472  15.685  0.00  0.00    +0.000 A 
ATOM     30  F   UNL     1       5.003   4.227  14.489  0.00  0.00    +0.000 F 
ATOM     31  C   UNL     1       5.078   3.799  16.809  0.00  0.00    +0.000 A 
ENDBRANCH  24  25
ENDBRANCH  23  24
ENDBRANCH  17  18
ENDBRANCH   3  17
TORSDOF 5
ENDMDL
MODEL 7
REMARK VINA RESULT:      -9.1      2.276      4.140
REMARK  Name = 
REMARK  6 active torsions:
REMARK  status: ('A' for Active; 'I' for Inactive)
REMARK    1  A    between atoms: C_1  and  N_2
REMARK    2  A    between atoms: C_8  and  C_9
REMARK    3  A    between atoms: N_11  and  C_12
REMARK    4  A    between atoms: C_12  and  C_13
REMARK    5  A    between atoms: C_18  and  O_19
REMARK    6  A    between atoms: O_19  and  C_20
REMARK                            x       y       z     vdW  Elec       q    Type
REMARK                         _______ _______ _______ _____ _____    ______ ____
ROOT
ATOM      1  C   UNL     1       1.965   8.188  19.327  0.00  0.00    +0.000 C 
ATOM      2  O   UNL     1       2.621   8.221  18.292  0.00  0.00    +0.000 OA
ATOM      3  N   UNL     1       2.063   7.173  20.256  0.00  0.00    +0.000 N 
ATOM      4  H   UNL     1       1.725   7.336  21.197  0.00  0.00    +0.000 HD
ENDROOT
BRANCH   1  12
ATOM      5  C   UNL     1      -2.685  12.795  22.836  0.00  0.00    +0.000 C 
ATOM      6  N   UNL     1      -1.839  12.079  21.915  0.00  0.00    +0.000 N 
ATOM      7  C   UNL     1      -1.914  12.175  20.552  0.00  0.00    +0.000 C 
ATOM      8  O   UNL     1      -2.645  12.861  19.867  0.00  0.00    +0.000 OA
ATOM      9  C   UNL     1      -0.916  11.246  20.017  0.00  0.00    +0.000 A 
ATOM     10  C   UNL     1      -0.607  10.914  18.714  0.00  0.00    +0.000 A 
ATOM     11  C   UNL     1       0.366   9.924  18.522  0.00  0.00    +0.000 A 
ATOM     12  C   UNL     1       1.017   9.302  19.619  0.00  0.00    +0.000 A 
ATOM     13  C   UNL     1       0.690   9.668  20.933  0.00  0.00    +0.000 A 
ATOM     14  C   UNL     1      -0.285  10.640  21.091  0.00  0.00    +0.000 A 
ATOM     15  C   UNL     1      -0.884  11.182  22.310  0.00  0.00    +0.000 C 
ATOM     16  O   UNL     1      -0.554  10.845  23.430  0.00  0.00    +0.000 OA
ENDBRANCH   1  12
BRANCH   3  17
ATOM     17  C   UNL     1       3.030   6.092  20.069  0.00  0.00    +0.000 C 
BRANCH  17  18
ATOM     18  C   UNL     1       2.425   4.833  19.508  0.00  0.00    +0.000 A 
ATOM     19  C   UNL     1       1.637   3.983  20.301  0.00  0.00    +0.000 A 
ATOM     20  C   UNL     1       1.045   2.847  19.753  0.00  0.00    +0.000 A 
ATOM     21  C   UNL     1       1.270   2.573  18.422  0.00  0.00    +0.000 A 
ATOM     22  N   UNL     1       2.007   3.365  17.623  0.00  0.00    +0.000 NA
ATOM     23  C   UNL     1       2.521   4.506  18.151  0.00  0.00    +0.000 A 
BRANCH  23  24
ATOM     24  O   UNL     1       3.143   5.405  17.281  0.00  0.00    +0.000 OA
BRANCH  24  25
ATOM     25  C   UNL     1       4.460   5.141  16.941  0.00  0.00    +0.000 A 
ATOM     26  C   UNL     1       4.823   4.105  16.067  0.00  0.00    +0.000 A 
ATOM     27  C   UNL     1       6.168   3.810  15.833  0.00  0.00    +0.000 A 
ATOM     28  C   UNL     1       7.157   4.594  16.422  0.00  0.00    +0.000 A 
ATOM     29  C   UNL     1       6.788   5.672  17.219  0.00  0.00    +0.000 A 
ATOM     30  F   UNL     1       7.743   6.446  17.754  0.00  0.00    +0.000 F 
ATOM     31  C   UNL     1       5.450   5.959  17.484  0.00  0.00    +0.000 A 
ENDBRANCH  24  25
ENDBRANCH  23  24
ENDBRANCH  17  18
ENDBRANCH   3  17
TORSDOF 5
ENDMDL
MODEL 8
REMARK VINA RESULT:      -9.1      2.210      4.172
REMARK  Name = 
REMARK  6 active torsions:
REMARK  status: ('A' for Active; 'I' for Inactive)
REMARK    1  A    between atoms: C_1  and  N_2
REMARK    2  A    between atoms: C_8  and  C_9
REMARK    3  A    between atoms: N_11  and  C_12
REMARK    4  A    between atoms: C_12  and  C_13
REMARK    5  A    between atoms: C_18  and  O_19
REMARK    6  A    between atoms: O_19  and  C_20
REMARK                            x       y       z     vdW  Elec       q    Type
REMARK                         _______ _______ _______ _____ _____    ______ ____
ROOT
ATOM      1  C   UNL     1       2.401   7.635  19.218  0.00  0.00    +0.000 C 
ATOM      2  O   UNL     1       3.149   7.618  18.247  0.00  0.00    +0.000 OA
ATOM      3  N   UNL     1       2.418   6.674  20.208  0.00  0.00    +0.000 N 
ATOM      4  H   UNL     1       1.995   6.887  21.103  0.00  0.00    +0.000 HD
ENDROOT
BRANCH   1  12
ATOM      5  C   UNL     1      -2.387  12.541  22.078  0.00  0.00    +0.000 C 
ATOM      6  N   UNL     1      -1.516  11.732  21.261  0.00  0.00    +0.000 N 
ATOM      7  C   UNL     1      -1.582  11.650  19.897  0.00  0.00    +0.000 C 
ATOM      8  O   UNL     1      -2.324  12.222  19.126  0.00  0.00    +0.000 OA
ATOM      9  C   UNL     1      -0.558  10.684  19.492  0.00  0.00    +0.000 A 
ATOM     10  C   UNL     1      -0.231  10.194  18.244  0.00  0.00    +0.000 A 
ATOM     11  C   UNL     1       0.767   9.212  18.187  0.00  0.00    +0.000 A 
ATOM     12  C   UNL     1       1.424   8.754  19.359  0.00  0.00    +0.000 A 
ATOM     13  C   UNL     1       1.079   9.278  20.612  0.00  0.00    +0.000 A 
ATOM     14  C   UNL     1       0.079  10.238  20.638  0.00  0.00    +0.000 A 
ATOM     15  C   UNL     1      -0.542  10.918  21.773  0.00  0.00    +0.000 C 
ATOM     16  O   UNL     1      -0.214  10.738  22.930  0.00  0.00    +0.000 OA
ENDBRANCH   1  12
BRANCH   3  17
ATOM     17  C   UNL     1       3.405   5.595  20.172  0.00  0.00    +0.000 C 
BRANCH  17  18
ATOM     18  C   UNL     1       2.942   4.382  19.410  0.00  0.00    +0.000 A 
ATOM     19  C   UNL     1       1.600   4.226  19.026  0.00  0.00    +0.000 A 
ATOM     20  C   UNL     1       1.197   3.121  18.280  0.00  0.00    +0.000 A 
ATOM     21  C   UNL     1       2.147   2.179  17.947  0.00  0.00    +0.000 A 
ATOM     22  N   UNL     1       3.444   2.294  18.282  0.00  0.00    +0.000 NA
ATOM     23  C   UNL     1       3.837   3.410  18.949  0.00  0.00    +0.000 A 
BRANCH  23  24
ATOM     24  O   UNL     1       5.206   3.603  19.148  0.00  0.00    +0.000 OA
BRANCH  24  25
ATOM     25  C   UNL     1       5.819   4.587  18.390  0.00  0.00    +0.000 A 
ATOM     26  C   UNL     1       5.478   4.834  17.052  0.00  0.00    +0.000 A 
ATOM     27  C   UNL     1       6.192   5.765  16.295  0.00  0.00    +0.000 A 
ATOM     28  C   UNL     1       7.209   6.504  16.895  0.00  0.00    +0.000 A 
ATOM     29  C   UNL     1       7.486   6.315  18.244  0.00  0.00    +0.000 A 
ATOM     30  F   UNL     1       8.441   7.053  18.825  0.00  0.00    +0.000 F 
ATOM     31  C   UNL     1       6.799   5.367  19.003  0.00  0.00    +0.000 A 
ENDBRANCH  24  25
ENDBRANCH  23  24
ENDBRANCH  17  18
ENDBRANCH   3  17
TORSDOF 5
ENDMDL
MODEL 9
REMARK VINA RESULT:      -9.1      2.288      3.786
REMARK  Name = 
REMARK  6 active torsions:
REMARK  status: ('A' for Active; 'I' for Inactive)
REMARK    1  A    between atoms: C_1  and  N_2
REMARK    2  A    between atoms: C_8  and  C_9
REMARK    3  A    between atoms: N_11  and  C_12
REMARK    4  A    between atoms: C_12  and  C_13
REMARK    5  A    between atoms: C_18  and  O_19
REMARK    6  A    between atoms: O_19  and  C_20
REMARK                            x       y       z     vdW  Elec       q    Type
REMARK                         _______ _______ _______ _____ _____    ______ ____
ROOT
ATOM      1  C   UNL     1       1.954   7.906  19.743  0.00  0.00    +0.000 C 
ATOM      2  O   UNL     1       2.372   8.188  18.625  0.00  0.00    +0.000 OA
ATOM      3  N   UNL     1       2.326   6.767  20.428  0.00  0.00    +0.000 N 
ATOM      4  H   UNL     1       2.182   6.731  21.430  0.00  0.00    +0.000 HD
ENDROOT
BRANCH   1  12
ATOM      5  C   UNL     1      -2.619  13.597  21.105  0.00  0.00    +0.000 C 
ATOM      6  N   UNL     1      -1.805  12.407  21.124  0.00  0.00    +0.000 N 
ATOM      7  C   UNL     1      -1.422  11.743  22.257  0.00  0.00    +0.000 C 
ATOM      8  O   UNL     1      -1.690  11.980  23.417  0.00  0.00    +0.000 OA
ATOM      9  C   UNL     1      -0.569  10.636  21.818  0.00  0.00    +0.000 A 
ATOM     10  C   UNL     1       0.118   9.689  22.549  0.00  0.00    +0.000 A 
ATOM     11  C   UNL     1       0.917   8.788  21.833  0.00  0.00    +0.000 A 
ATOM     12  C   UNL     1       1.003   8.837  20.416  0.00  0.00    +0.000 A 
ATOM     13  C   UNL     1       0.284   9.803  19.699  0.00  0.00    +0.000 A 
ATOM     14  C   UNL     1      -0.487  10.689  20.436  0.00  0.00    +0.000 A 
ATOM     15  C   UNL     1      -1.286  11.831  19.996  0.00  0.00    +0.000 C 
ATOM     16  O   UNL     1      -1.412  12.158  18.832  0.00  0.00    +0.000 OA
ENDBRANCH   1  12
BRANCH   3  17
ATOM     17  C   UNL     1       3.315   5.854  19.858  0.00  0.00    +0.000 C 
BRANCH  17  18
ATOM     18  C   UNL     1       2.797   4.454  19.657  0.00  0.00    +0.000 A 
ATOM     19  C   UNL     1       1.419   4.179  19.645  0.00  0.00    +0.000 A 
ATOM     20  C   UNL     1       0.956   2.886  19.410  0.00  0.00    +0.000 A 
ATOM     21  C   UNL     1       1.884   1.888  19.209  0.00  0.00    +0.000 A 
ATOM     22  N   UNL     1       3.210   2.108  19.199  0.00  0.00    +0.000 NA
ATOM     23  C   UNL     1       3.648   3.384  19.361  0.00  0.00    +0.000 A 
BRANCH  23  24
ATOM     24  O   UNL     1       5.011   3.633  19.185  0.00  0.00    +0.000 OA
BRANCH  24  25
ATOM     25  C   UNL     1       5.397   4.203  17.983  0.00  0.00    +0.000 A 
ATOM     26  C   UNL     1       4.855   3.808  16.750  0.00  0.00    +0.000 A 
ATOM     27  C   UNL     1       5.346   4.336  15.554  0.00  0.00    +0.000 A 
ATOM     28  C   UNL     1       6.338   5.314  15.590  0.00  0.00    +0.000 A 
ATOM     29  C   UNL     1       6.810   5.762  16.819  0.00  0.00    +0.000 A 
ATOM     30  F   UNL     1       7.739   6.728  16.849  0.00  0.00    +0.000 F 
ATOM     31  C   UNL     1       6.349   5.221  18.019  0.00  0.00    +0.000 A 
ENDBRANCH  24  25
ENDBRANCH  23  24
ENDBRANCH  17  18
ENDBRANCH   3  17
TORSDOF 5
ENDMDL
