MODEL 1
REMARK VINA RESULT:      -8.3      0.000      0.000
REMARK  Name = 
REMARK  6 active torsions:
REMARK  status: ('A' for Active; 'I' for Inactive)
REMARK    1  A    between atoms: C_2  and  O_3
REMARK    2  A    between atoms: C_2  and  C_4
REMARK    3  A    between atoms: C_8  and  C_9
REMARK    4  A    between atoms: C_9  and  N_10
REMARK    5  A    between atoms: C_13  and  O_14
REMARK    6  A    between atoms: O_14  and  C_15
REMARK                            x       y       z     vdW  Elec       q    Type
REMARK                         _______ _______ _______ _____ _____    ______ ____
ROOT
ATOM      1  C   UNL     1       4.602   3.813  19.656  0.00  0.00    +0.000 C 
ENDROOT
BRANCH   1   6
ATOM      2  C   UNL     1       6.981   4.798  14.181  0.00  0.00    +0.000 A 
ATOM      3  C   UNL     1       5.922   4.075  14.693  0.00  0.00    +0.000 A 
ATOM      4  C   UNL     1       5.897   4.322  16.089  0.00  0.00    +0.000 A 
ATOM      5  C   UNL     1       5.100   3.907  17.168  0.00  0.00    +0.000 A 
ATOM      6  C   UNL     1       5.414   4.343  18.479  0.00  0.00    +0.000 A 
ATOM      7  C   UNL     1       6.506   5.200  18.682  0.00  0.00    +0.000 A 
ATOM      8  C   UNL     1       7.301   5.640  17.614  0.00  0.00    +0.000 A 
ATOM      9  C   UNL     1       6.962   5.172  16.346  0.00  0.00    +0.000 A 
ATOM     10  O   UNL     1       7.619   5.470  15.190  0.00  0.00    +0.000 OA
BRANCH   2  12
ATOM     11  O   UNL     1       7.212   4.220  11.885  0.00  0.00    +0.000 OA
ATOM     12  C   UNL     1       7.488   4.936  12.832  0.00  0.00    +0.000 C 
BRANCH  12  13
ATOM     13  O   UNL     1       8.333   5.994  12.733  0.00  0.00    +0.000 OA
ATOM     14  H   UNL     1       9.199   5.694  12.383  0.00  0.00    +0.000 HD
ENDBRANCH  12  13
ENDBRANCH   2  12
ENDBRANCH   1   6
BRANCH   1  15
ATOM     15  N   UNL     1       3.306   4.462  19.677  0.00  0.00    +0.000 NA
ATOM     16  C   UNL     1       2.438   4.083  20.780  0.00  0.00    +0.000 C 
ATOM     17  C   UNL     1       1.212   4.851  20.346  0.00  0.00    +0.000 C 
ATOM     18  C   UNL     1       1.780   6.232  19.990  0.00  0.00    +0.000 C 
ATOM     19  C   UNL     1       3.257   5.923  19.621  0.00  0.00    +0.000 C 
BRANCH  18  20
ATOM     20  O   UNL     1       1.731   7.104  21.128  0.00  0.00    +0.000 OA
BRANCH  20  21
ATOM     21  C   UNL     1       1.199   8.354  20.927  0.00  0.00    +0.000 A 
ATOM     22  C   UNL     1       1.141   9.027  19.701  0.00  0.00    +0.000 A 
ATOM     23  C   UNL     1       0.566  10.297  19.608  0.00  0.00    +0.000 A 
ATOM     24  C   UNL     1       0.058  10.914  20.751  0.00  0.00    +0.000 A 
ATOM     25  C   UNL     1       0.111  10.239  21.962  0.00  0.00    +0.000 A 
ATOM     26  F   UNL     1      -0.375  10.834  23.060  0.00  0.00    +0.000 F 
ATOM     27  C   UNL     1       0.662   8.965  22.060  0.00  0.00    +0.000 A 
ENDBRANCH  20  21
ENDBRANCH  18  20
ENDBRANCH   1  15
TORSDOF 6
ENDMDL
MODEL 2
REMARK VINA RESULT:      -8.2      0.969      1.348
REMARK  Name = 
REMARK  6 active torsions:
REMARK  status: ('A' for Active; 'I' for Inactive)
REMARK    1  A    between atoms: C_2  and  O_3
REMARK    2  A    between atoms: C_2  and  C_4
REMARK    3  A    between atoms: C_8  and  C_9
REMARK    4  A    between atoms: C_9  and  N_10
REMARK    5  A    between atoms: C_13  and  O_14
REMARK    6  A    between atoms: O_14  and  C_15
REMARK                            x       y       z     vdW  Elec       q    Type
REMARK                         _______ _______ _______ _____ _____    ______ ____
ROOT
ATOM      1  C   UNL     1       4.550   3.679  19.617  0.00  0.00    +0.000 C 
ENDROOT
BRANCH   1   6
ATOM      2  C   UNL     1       6.991   4.794  14.195  0.00  0.00    +0.000 A 
ATOM      3  C   UNL     1       5.900   4.095  14.673  0.00  0.00    +0.000 A 
ATOM      4  C   UNL     1       5.880   4.283  16.078  0.00  0.00    +0.000 A 
ATOM      5  C   UNL     1       5.061   3.858  17.137  0.00  0.00    +0.000 A 
ATOM      6  C   UNL     1       5.388   4.223  18.466  0.00  0.00    +0.000 A 
ATOM      7  C   UNL     1       6.514   5.024  18.708  0.00  0.00    +0.000 A 
ATOM      8  C   UNL     1       7.332   5.475  17.661  0.00  0.00    +0.000 A 
ATOM      9  C   UNL     1       6.978   5.076  16.374  0.00  0.00    +0.000 A 
ATOM     10  O   UNL     1       7.653   5.395  15.233  0.00  0.00    +0.000 OA
BRANCH   2  12
ATOM     11  O   UNL     1       7.202   4.308  11.875  0.00  0.00    +0.000 OA
ATOM     12  C   UNL     1       7.509   4.967  12.855  0.00  0.00    +0.000 C 
BRANCH  12  13
ATOM     13  O   UNL     1       8.405   5.986  12.804  0.00  0.00    +0.000 OA
ATOM     14  H   UNL     1       7.930   6.841  12.731  0.00  0.00    +0.000 HD
ENDBRANCH  12  13
ENDBRANCH   2  12
ENDBRANCH   1   6
BRANCH   1  15
ATOM     15  N   UNL     1       3.281   4.378  19.660  0.00  0.00    +0.000 NA
ATOM     16  C   UNL     1       2.416   4.031  20.777  0.00  0.00    +0.000 C 
ATOM     17  C   UNL     1       1.214   4.847  20.364  0.00  0.00    +0.000 C 
ATOM     18  C   UNL     1       1.830   6.205  20.001  0.00  0.00    +0.000 C 
ATOM     19  C   UNL     1       3.287   5.840  19.607  0.00  0.00    +0.000 C 
BRANCH  18  20
ATOM     20  O   UNL     1       1.833   7.077  21.140  0.00  0.00    +0.000 OA
BRANCH  20  21
ATOM     21  C   UNL     1       1.167   8.270  21.008  0.00  0.00    +0.000 A 
ATOM     22  C   UNL     1       0.448   8.918  22.020  0.00  0.00    +0.000 A 
ATOM     23  C   UNL     1      -0.186  10.139  21.778  0.00  0.00    +0.000 A 
ATOM     24  C   UNL     1      -0.119  10.716  20.509  0.00  0.00    +0.000 A 
ATOM     25  C   UNL     1       0.602  10.075  19.513  0.00  0.00    +0.000 A 
ATOM     26  F   UNL     1       0.663  10.628  18.295  0.00  0.00    +0.000 F 
ATOM     27  C   UNL     1       1.254   8.868  19.751  0.00  0.00    +0.000 A 
ENDBRANCH  20  21
ENDBRANCH  18  20
ENDBRANCH   1  15
TORSDOF 6
ENDMDL
MODEL 3
REMARK VINA RESULT:      -8.1      3.570      9.477
REMARK  Name = 
REMARK  6 active torsions:
REMARK  status: ('A' for Active; 'I' for Inactive)
REMARK    1  A    between atoms: C_2  and  O_3
REMARK    2  A    between atoms: C_2  and  C_4
REMARK    3  A    between atoms: C_8  and  C_9
REMARK    4  A    between atoms: C_9  and  N_10
REMARK    5  A    between atoms: C_13  and  O_14
REMARK    6  A    between atoms: O_14  and  C_15
REMARK                            x       y       z     vdW  Elec       q    Type
REMARK                         _______ _______ _______ _____ _____    ______ ____
ROOT
ATOM      1  C   UNL     1       3.129   5.901  18.050  0.00  0.00    +0.000 C 
ENDROOT
BRANCH   1   6
ATOM      2  C   UNL     1       0.389  10.021  21.533  0.00  0.00    +0.000 A 
ATOM      3  C   UNL     1       0.964   8.779  21.720  0.00  0.00    +0.000 A 
ATOM      4  C   UNL     1       1.473   8.372  20.461  0.00  0.00    +0.000 A 
ATOM      5  C   UNL     1       2.154   7.246  19.970  0.00  0.00    +0.000 A 
ATOM      6  C   UNL     1       2.475   7.168  18.592  0.00  0.00    +0.000 A 
ATOM      7  C   UNL     1       2.130   8.225  17.738  0.00  0.00    +0.000 A 
ATOM      8  C   UNL     1       1.468   9.366  18.215  0.00  0.00    +0.000 A 
ATOM      9  C   UNL     1       1.159   9.390  19.574  0.00  0.00    +0.000 A 
ATOM     10  O   UNL     1       0.506  10.397  20.220  0.00  0.00    +0.000 OA
BRANCH   2  12
ATOM     11  O   UNL     1      -0.939  10.591  23.422  0.00  0.00    +0.000 OA
ATOM     12  C   UNL     1      -0.281  10.918  22.449  0.00  0.00    +0.000 C 
BRANCH  12  13
ATOM     13  O   UNL     1      -0.084  12.215  22.096  0.00  0.00    +0.000 OA
ATOM     14  H   UNL     1       0.054  12.760  22.901  0.00  0.00    +0.000 HD
ENDBRANCH  12  13
ENDBRANCH   2  12
ENDBRANCH   1   6
BRANCH   1  15
ATOM     15  N   UNL     1       4.543   6.141  17.844  0.00  0.00    +0.000 NA
ATOM     16  C   UNL     1       5.435   5.376  18.700  0.00  0.00    +0.000 C 
ATOM     17  C   UNL     1       6.733   6.014  18.263  0.00  0.00    +0.000 C 
ATOM     18  C   UNL     1       6.619   6.010  16.733  0.00  0.00    +0.000 C 
ATOM     19  C   UNL     1       5.084   6.006  16.492  0.00  0.00    +0.000 C 
BRANCH  18  20
ATOM     20  O   UNL     1       7.204   4.819  16.188  0.00  0.00    +0.000 OA
BRANCH  20  21
ATOM     21  C   UNL     1       7.036   4.606  14.842  0.00  0.00    +0.000 A 
ATOM     22  C   UNL     1       6.232   3.615  14.268  0.00  0.00    +0.000 A 
ATOM     23  C   UNL     1       6.126   3.494  12.880  0.00  0.00    +0.000 A 
ATOM     24  C   UNL     1       6.841   4.360  12.051  0.00  0.00    +0.000 A 
ATOM     25  C   UNL     1       7.630   5.346  12.626  0.00  0.00    +0.000 A 
ATOM     26  F   UNL     1       8.319   6.174  11.829  0.00  0.00    +0.000 F 
ATOM     27  C   UNL     1       7.725   5.486  14.008  0.00  0.00    +0.000 A 
ENDBRANCH  20  21
ENDBRANCH  18  20
ENDBRANCH   1  15
TORSDOF 6
ENDMDL
MODEL 4
REMARK VINA RESULT:      -8.1      3.629      9.574
REMARK  Name = 
REMARK  6 active torsions:
REMARK  status: ('A' for Active; 'I' for Inactive)
REMARK    1  A    between atoms: C_2  and  O_3
REMARK    2  A    between atoms: C_2  and  C_4
REMARK    3  A    between atoms: C_8  and  C_9
REMARK    4  A    between atoms: C_9  and  N_10
REMARK    5  A    between atoms: C_13  and  O_14
REMARK    6  A    between atoms: O_14  and  C_15
REMARK                            x       y       z     vdW  Elec       q    Type
REMARK                         _______ _______ _______ _____ _____    ______ ____
ROOT
ATOM      1  C   UNL     1       3.154   5.798  18.849  0.00  0.00    +0.000 C 
ENDROOT
BRANCH   1   6
ATOM      2  C   UNL     1       0.019  10.337  21.335  0.00  0.00    +0.000 A 
ATOM      3  C   UNL     1       0.546   9.136  21.766  0.00  0.00    +0.000 A 
ATOM      4  C   UNL     1       1.218   8.564  20.655  0.00  0.00    +0.000 A 
ATOM      5  C   UNL     1       1.944   7.385  20.418  0.00  0.00    +0.000 A 
ATOM      6  C   UNL     1       2.450   7.123  19.121  0.00  0.00    +0.000 A 
ATOM      7  C   UNL     1       2.238   8.054  18.093  0.00  0.00    +0.000 A 
ATOM      8  C   UNL     1       1.532   9.245  18.316  0.00  0.00    +0.000 A 
ATOM      9  C   UNL     1       1.041   9.451  19.604  0.00  0.00    +0.000 A 
ATOM     10  O   UNL     1       0.320  10.532  20.012  0.00  0.00    +0.000 OA
BRANCH   2  12
ATOM     11  O   UNL     1      -0.644  11.667  23.193  0.00  0.00    +0.000 OA
ATOM     12  C   UNL     1      -0.757  11.347  22.022  0.00  0.00    +0.000 C 
BRANCH  12  13
ATOM     13  O   UNL     1      -1.657  11.925  21.185  0.00  0.00    +0.000 OA
ATOM     14  H   UNL     1      -2.208  11.232  20.761  0.00  0.00    +0.000 HD
ENDBRANCH  12  13
ENDBRANCH   2  12
ENDBRANCH   1   6
BRANCH   1  15
ATOM     15  N   UNL     1       4.429   6.055  18.208  0.00  0.00    +0.000 NA
ATOM     16  C   UNL     1       5.582   5.448  18.853  0.00  0.00    +0.000 C 
ATOM     17  C   UNL     1       6.649   6.062  17.979  0.00  0.00    +0.000 C 
ATOM     18  C   UNL     1       6.103   5.839  16.562  0.00  0.00    +0.000 C 
ATOM     19  C   UNL     1       4.568   5.750  16.785  0.00  0.00    +0.000 C 
BRANCH  18  20
ATOM     20  O   UNL     1       6.593   4.604  16.023  0.00  0.00    +0.000 OA
BRANCH  20  21
ATOM     21  C   UNL     1       6.801   4.560  14.666  0.00  0.00    +0.000 A 
ATOM     22  C   UNL     1       7.696   5.366  13.953  0.00  0.00    +0.000 A 
ATOM     23  C   UNL     1       7.835   5.229  12.569  0.00  0.00    +0.000 A 
ATOM     24  C   UNL     1       7.061   4.293  11.883  0.00  0.00    +0.000 A 
ATOM     25  C   UNL     1       6.181   3.492  12.596  0.00  0.00    +0.000 A 
ATOM     26  F   UNL     1       5.437   2.596  11.935  0.00  0.00    +0.000 F 
ATOM     27  C   UNL     1       6.053   3.606  13.977  0.00  0.00    +0.000 A 
ENDBRANCH  20  21
ENDBRANCH  18  20
ENDBRANCH   1  15
TORSDOF 6
ENDMDL
MODEL 5
REMARK VINA RESULT:      -8.0      3.475      9.509
REMARK  Name = 
REMARK  6 active torsions:
REMARK  status: ('A' for Active; 'I' for Inactive)
REMARK    1  A    between atoms: C_2  and  O_3
REMARK    2  A    between atoms: C_2  and  C_4
REMARK    3  A    between atoms: C_8  and  C_9
REMARK    4  A    between atoms: C_9  and  N_10
REMARK    5  A    between atoms: C_13  and  O_14
REMARK    6  A    between atoms: O_14  and  C_15
REMARK                            x       y       z     vdW  Elec       q    Type
REMARK                         _______ _______ _______ _____ _____    ______ ____
ROOT
ATOM      1  C   UNL     1       3.102   6.074  17.538  0.00  0.00    +0.000 C 
ENDROOT
BRANCH   1   6
ATOM      2  C   UNL     1       0.430   9.461  21.780  0.00  0.00    +0.000 A 
ATOM      3  C   UNL     1       0.957   8.187  21.707  0.00  0.00    +0.000 A 
ATOM      4  C   UNL     1       1.480   8.037  20.397  0.00  0.00    +0.000 A 
ATOM      5  C   UNL     1       2.132   7.016  19.687  0.00  0.00    +0.000 A 
ATOM      6  C   UNL     1       2.481   7.220  18.329  0.00  0.00    +0.000 A 
ATOM      7  C   UNL     1       2.192   8.448  17.716  0.00  0.00    +0.000 A 
ATOM      8  C   UNL     1       1.560   9.486  18.415  0.00  0.00    +0.000 A 
ATOM      9  C   UNL     1       1.222   9.232  19.743  0.00  0.00    +0.000 A 
ATOM     10  O   UNL     1       0.590  10.103  20.580  0.00  0.00    +0.000 OA
BRANCH   2  12
ATOM     11  O   UNL     1      -1.036  11.073  22.734  0.00  0.00    +0.000 OA
ATOM     12  C   UNL     1      -0.229  10.168  22.857  0.00  0.00    +0.000 C 
BRANCH  12  13
ATOM     13  O   UNL     1       0.163   9.691  24.068  0.00  0.00    +0.000 OA
ATOM     14  H   UNL     1       0.993  10.135  24.345  0.00  0.00    +0.000 HD
ENDBRANCH  12  13
ENDBRANCH   2  12
ENDBRANCH   1   6
BRANCH   1  15
ATOM     15  N   UNL     1       4.538   6.261  17.467  0.00  0.00    +0.000 NA
ATOM     16  C   UNL     1       5.320   5.411  18.351  0.00  0.00    +0.000 C 
ATOM     17  C   UNL     1       6.675   6.014  18.064  0.00  0.00    +0.000 C 
ATOM     18  C   UNL     1       6.696   6.099  16.532  0.00  0.00    +0.000 C 
ATOM     19  C   UNL     1       5.189   6.177  16.161  0.00  0.00    +0.000 C 
BRANCH  18  20
ATOM     20  O   UNL     1       7.278   4.914  15.970  0.00  0.00    +0.000 OA
BRANCH  20  21
ATOM     21  C   UNL     1       7.219   4.784  14.605  0.00  0.00    +0.000 A 
ATOM     22  C   UNL     1       7.950   5.539  13.681  0.00  0.00    +0.000 A 
ATOM     23  C   UNL     1       7.820   5.314  12.308  0.00  0.00    +0.000 A 
ATOM     24  C   UNL     1       6.937   4.337  11.846  0.00  0.00    +0.000 A 
ATOM     25  C   UNL     1       6.220   3.586  12.766  0.00  0.00    +0.000 A 
ATOM     26  F   UNL     1       5.371   2.651  12.321  0.00  0.00    +0.000 F 
ATOM     27  C   UNL     1       6.361   3.789  14.136  0.00  0.00    +0.000 A 
ENDBRANCH  20  21
ENDBRANCH  18  20
ENDBRANCH   1  15
TORSDOF 6
ENDMDL
MODEL 6
REMARK VINA RESULT:      -7.9      3.469      9.391
REMARK  Name = 
REMARK  6 active torsions:
REMARK  status: ('A' for Active; 'I' for Inactive)
REMARK    1  A    between atoms: C_2  and  O_3
REMARK    2  A    between atoms: C_2  and  C_4
REMARK    3  A    between atoms: C_8  and  C_9
REMARK    4  A    between atoms: C_9  and  N_10
REMARK    5  A    between atoms: C_13  and  O_14
REMARK    6  A    between atoms: O_14  and  C_15
REMARK                            x       y       z     vdW  Elec       q    Type
REMARK                         _______ _______ _______ _____ _____    ______ ____
ROOT
ATOM      1  C   UNL     1       2.935   5.174  19.113  0.00  0.00    +0.000 C 
ENDROOT
BRANCH   1   6
ATOM      2  C   UNL     1       0.367  10.143  21.420  0.00  0.00    +0.000 A 
ATOM      3  C   UNL     1       0.696   8.884  21.882  0.00  0.00    +0.000 A 
ATOM      4  C   UNL     1       1.330   8.209  20.808  0.00  0.00    +0.000 A 
ATOM      5  C   UNL     1       1.891   6.936  20.613  0.00  0.00    +0.000 A 
ATOM      6  C   UNL     1       2.415   6.589  19.343  0.00  0.00    +0.000 A 
ATOM      7  C   UNL     1       2.387   7.527  18.301  0.00  0.00    +0.000 A 
ATOM      8  C   UNL     1       1.849   8.810  18.483  0.00  0.00    +0.000 A 
ATOM      9  C   UNL     1       1.332   9.099  19.744  0.00  0.00    +0.000 A 
ATOM     10  O   UNL     1       0.754  10.277  20.112  0.00  0.00    +0.000 OA
BRANCH   2  12
ATOM     11  O   UNL     1      -0.409  12.384  21.602  0.00  0.00    +0.000 OA
ATOM     12  C   UNL     1      -0.289  11.261  22.062  0.00  0.00    +0.000 C 
BRANCH  12  13
ATOM     13  O   UNL     1      -0.780  10.909  23.279  0.00  0.00    +0.000 OA
ATOM     14  H   UNL     1      -1.756  10.814  23.227  0.00  0.00    +0.000 HD
ENDBRANCH  12  13
ENDBRANCH   2  12
ENDBRANCH   1   6
BRANCH   1  15
ATOM     15  N   UNL     1       4.207   5.236  18.420  0.00  0.00    +0.000 NA
ATOM     16  C   UNL     1       5.189   4.246  18.831  0.00  0.00    +0.000 C 
ATOM     17  C   UNL     1       6.343   4.747  17.996  0.00  0.00    +0.000 C 
ATOM     18  C   UNL     1       5.702   4.962  16.618  0.00  0.00    +0.000 C 
ATOM     19  C   UNL     1       4.207   5.207  16.958  0.00  0.00    +0.000 C 
BRANCH  18  20
ATOM     20  O   UNL     1       5.836   3.783  15.812  0.00  0.00    +0.000 OA
BRANCH  20  21
ATOM     21  C   UNL     1       6.266   3.961  14.521  0.00  0.00    +0.000 A 
ATOM     22  C   UNL     1       5.751   3.311  13.393  0.00  0.00    +0.000 A 
ATOM     23  C   UNL     1       6.259   3.577  12.119  0.00  0.00    +0.000 A 
ATOM     24  C   UNL     1       7.303   4.489  11.965  0.00  0.00    +0.000 A 
ATOM     25  C   UNL     1       7.804   5.137  13.084  0.00  0.00    +0.000 A 
ATOM     26  F   UNL     1       8.809   6.009  12.935  0.00  0.00    +0.000 F 
ATOM     27  C   UNL     1       7.290   4.893  14.355  0.00  0.00    +0.000 A 
ENDBRANCH  20  21
ENDBRANCH  18  20
ENDBRANCH   1  15
TORSDOF 6
ENDMDL
MODEL 7
REMARK VINA RESULT:      -7.8      1.020      1.328
REMARK  Name = 
REMARK  6 active torsions:
REMARK  status: ('A' for Active; 'I' for Inactive)
REMARK    1  A    between atoms: C_2  and  O_3
REMARK    2  A    between atoms: C_2  and  C_4
REMARK    3  A    between atoms: C_8  and  C_9
REMARK    4  A    between atoms: C_9  and  N_10
REMARK    5  A    between atoms: C_13  and  O_14
REMARK    6  A    between atoms: O_14  and  C_15
REMARK                            x       y       z     vdW  Elec       q    Type
REMARK                         _______ _______ _______ _____ _____    ______ ____
ROOT
ATOM      1  C   UNL     1       3.431   2.842  18.423  0.00  0.00    +0.000 C 
ENDROOT
BRANCH   1   6
ATOM      2  C   UNL     1       7.162   4.948  14.151  0.00  0.00    +0.000 A 
ATOM      3  C   UNL     1       6.001   4.201  14.181  0.00  0.00    +0.000 A 
ATOM      4  C   UNL     1       5.615   4.104  15.542  0.00  0.00    +0.000 A 
ATOM      5  C   UNL     1       4.560   3.500  16.247  0.00  0.00    +0.000 A 
ATOM      6  C   UNL     1       4.525   3.581  17.661  0.00  0.00    +0.000 A 
ATOM      7  C   UNL     1       5.532   4.282  18.340  0.00  0.00    +0.000 A 
ATOM      8  C   UNL     1       6.582   4.909  17.652  0.00  0.00    +0.000 A 
ATOM      9  C   UNL     1       6.581   4.788  16.264  0.00  0.00    +0.000 A 
ATOM     10  O   UNL     1       7.520   5.308  15.424  0.00  0.00    +0.000 OA
BRANCH   2  12
ATOM     11  O   UNL     1       9.002   6.066  13.140  0.00  0.00    +0.000 OA
ATOM     12  C   UNL     1       8.004   5.371  13.053  0.00  0.00    +0.000 C 
BRANCH  12  13
ATOM     13  O   UNL     1       7.545   4.887  11.869  0.00  0.00    +0.000 OA
ATOM     14  H   UNL     1       7.536   3.906  11.895  0.00  0.00    +0.000 HD
ENDBRANCH  12  13
ENDBRANCH   2  12
ENDBRANCH   1   6
BRANCH   1  15
ATOM     15  N   UNL     1       2.623   3.800  19.152  0.00  0.00    +0.000 NA
ATOM     16  C   UNL     1       3.124   4.163  20.468  0.00  0.00    +0.000 C 
ATOM     17  C   UNL     1       1.960   5.024  20.898  0.00  0.00    +0.000 C 
ATOM     18  C   UNL     1       1.721   5.915  19.672  0.00  0.00    +0.000 C 
ATOM     19  C   UNL     1       2.279   5.063  18.499  0.00  0.00    +0.000 C 
BRANCH  18  20
ATOM     20  O   UNL     1       2.463   7.137  19.786  0.00  0.00    +0.000 OA
BRANCH  20  21
ATOM     21  C   UNL     1       1.771   8.304  19.573  0.00  0.00    +0.000 A 
ATOM     22  C   UNL     1       1.780   9.052  18.390  0.00  0.00    +0.000 A 
ATOM     23  C   UNL     1       1.027  10.224  18.278  0.00  0.00    +0.000 A 
ATOM     24  C   UNL     1       0.268  10.667  19.362  0.00  0.00    +0.000 A 
ATOM     25  C   UNL     1       0.256   9.918  20.529  0.00  0.00    +0.000 A 
ATOM     26  F   UNL     1      -0.470  10.347  21.570  0.00  0.00    +0.000 F 
ATOM     27  C   UNL     1       0.987   8.738  20.642  0.00  0.00    +0.000 A 
ENDBRANCH  20  21
ENDBRANCH  18  20
ENDBRANCH   1  15
TORSDOF 6
ENDMDL
MODEL 8
REMARK VINA RESULT:      -7.6      3.765      8.968
REMARK  Name = 
REMARK  6 active torsions:
REMARK  status: ('A' for Active; 'I' for Inactive)
REMARK    1  A    between atoms: C_2  and  O_3
REMARK    2  A    between atoms: C_2  and  C_4
REMARK    3  A    between atoms: C_8  and  C_9
REMARK    4  A    between atoms: C_9  and  N_10
REMARK    5  A    between atoms: C_13  and  O_14
REMARK    6  A    between atoms: O_14  and  C_15
REMARK                            x       y       z     vdW  Elec       q    Type
REMARK                         _______ _______ _______ _____ _____    ______ ____
ROOT
ATOM      1  C   UNL     1       3.192   5.345  19.396  0.00  0.00    +0.000 C 
ENDROOT
BRANCH   1   6
ATOM      2  C   UNL     1       0.792  10.879  18.931  0.00  0.00    +0.000 A 
ATOM      3  C   UNL     1       1.536  10.043  18.123  0.00  0.00    +0.000 A 
ATOM      4  C   UNL     1       1.731   8.841  18.848  0.00  0.00    +0.000 A 
ATOM      5  C   UNL     1       2.382   7.619  18.612  0.00  0.00    +0.000 A 
ATOM      6  C   UNL     1       2.403   6.629  19.625  0.00  0.00    +0.000 A 
ATOM      7  C   UNL     1       1.755   6.872  20.846  0.00  0.00    +0.000 A 
ATOM      8  C   UNL     1       1.083   8.078  21.092  0.00  0.00    +0.000 A 
ATOM      9  C   UNL     1       1.104   9.026  20.071  0.00  0.00    +0.000 A 
ATOM     10  O   UNL     1       0.526  10.259  20.125  0.00  0.00    +0.000 OA
BRANCH   2  12
ATOM     11  O   UNL     1      -0.770  12.662  19.129  0.00  0.00    +0.000 OA
ATOM     12  C   UNL     1       0.293  12.222  18.726  0.00  0.00    +0.000 C 
BRANCH  12  13
ATOM     13  O   UNL     1       1.175  12.968  18.011  0.00  0.00    +0.000 OA
ATOM     14  H   UNL     1       1.273  12.591  17.111  0.00  0.00    +0.000 HD
ENDBRANCH  12  13
ENDBRANCH   2  12
ENDBRANCH   1   6
BRANCH   1  15
ATOM     15  N   UNL     1       4.331   5.626  18.545  0.00  0.00    +0.000 NA
ATOM     16  C   UNL     1       5.589   5.037  18.973  0.00  0.00    +0.000 C 
ATOM     17  C   UNL     1       6.477   5.673  17.931  0.00  0.00    +0.000 C 
ATOM     18  C   UNL     1       5.695   5.448  16.630  0.00  0.00    +0.000 C 
ATOM     19  C   UNL     1       4.225   5.331  17.116  0.00  0.00    +0.000 C 
BRANCH  18  20
ATOM     20  O   UNL     1       6.103   4.224  16.003  0.00  0.00    +0.000 OA
BRANCH  20  21
ATOM     21  C   UNL     1       6.484   4.301  14.686  0.00  0.00    +0.000 A 
ATOM     22  C   UNL     1       7.465   5.156  14.169  0.00  0.00    +0.000 A 
ATOM     23  C   UNL     1       7.781   5.143  12.808  0.00  0.00    +0.000 A 
ATOM     24  C   UNL     1       7.101   4.282  11.946  0.00  0.00    +0.000 A 
ATOM     25  C   UNL     1       6.135   3.431  12.464  0.00  0.00    +0.000 A 
ATOM     26  F   UNL     1       5.482   2.608  11.635  0.00  0.00    +0.000 F 
ATOM     27  C   UNL     1       5.830   3.422  13.822  0.00  0.00    +0.000 A 
ENDBRANCH  20  21
ENDBRANCH  18  20
ENDBRANCH   1  15
TORSDOF 6
ENDMDL
MODEL 9
REMARK VINA RESULT:      -7.6      2.597      3.710
REMARK  Name = 
REMARK  6 active torsions:
REMARK  status: ('A' for Active; 'I' for Inactive)
REMARK    1  A    between atoms: C_2  and  O_3
REMARK    2  A    between atoms: C_2  and  C_4
REMARK    3  A    between atoms: C_8  and  C_9
REMARK    4  A    between atoms: C_9  and  N_10
REMARK    5  A    between atoms: C_13  and  O_14
REMARK    6  A    between atoms: O_14  and  C_15
REMARK                            x       y       z     vdW  Elec       q    Type
REMARK                         _______ _______ _______ _____ _____    ______ ____
ROOT
ATOM      1  C   UNL     1       3.377   2.160  18.247  0.00  0.00    +0.000 C 
ENDROOT
BRANCH   1   6
ATOM      2  C   UNL     1       7.161   6.870  17.925  0.00  0.00    +0.000 A 
ATOM      3  C   UNL     1       6.770   5.970  18.895  0.00  0.00    +0.000 A 
ATOM      4  C   UNL     1       5.864   5.072  18.277  0.00  0.00    +0.000 A 
ATOM      5  C   UNL     1       5.118   3.955  18.688  0.00  0.00    +0.000 A 
ATOM      6  C   UNL     1       4.254   3.312  17.767  0.00  0.00    +0.000 A 
ATOM      7  C   UNL     1       4.168   3.785  16.449  0.00  0.00    +0.000 A 
ATOM      8  C   UNL     1       4.920   4.887  16.016  0.00  0.00    +0.000 A 
ATOM      9  C   UNL     1       5.743   5.495  16.961  0.00  0.00    +0.000 A 
ATOM     10  O   UNL     1       6.534   6.582  16.740  0.00  0.00    +0.000 OA
BRANCH   2  12
ATOM     11  O   UNL     1       8.135   8.895  17.145  0.00  0.00    +0.000 OA
ATOM     12  C   UNL     1       8.065   8.000  17.969  0.00  0.00    +0.000 C 
BRANCH  12  13
ATOM     13  O   UNL     1       8.852   7.954  19.075  0.00  0.00    +0.000 OA
ATOM     14  H   UNL     1       8.525   7.258  19.685  0.00  0.00    +0.000 HD
ENDBRANCH  12  13
ENDBRANCH   2  12
ENDBRANCH   1   6
BRANCH   1  15
ATOM     15  N   UNL     1       2.442   2.650  19.240  0.00  0.00    +0.000 NA
ATOM     16  C   UNL     1       2.875   2.516  20.622  0.00  0.00    +0.000 C 
ATOM     17  C   UNL     1       1.603   2.995  21.280  0.00  0.00    +0.000 C 
ATOM     18  C   UNL     1       1.264   4.266  20.489  0.00  0.00    +0.000 C 
ATOM     19  C   UNL     1       1.944   4.019  19.115  0.00  0.00    +0.000 C 
BRANCH  18  20
ATOM     20  O   UNL     1       1.838   5.419  21.120  0.00  0.00    +0.000 OA
BRANCH  20  21
ATOM     21  C   UNL     1       1.801   6.594  20.413  0.00  0.00    +0.000 A 
ATOM     22  C   UNL     1       1.103   7.749  20.787  0.00  0.00    +0.000 A 
ATOM     23  C   UNL     1       1.142   8.899  19.993  0.00  0.00    +0.000 A 
ATOM     24  C   UNL     1       1.870   8.895  18.803  0.00  0.00    +0.000 A 
ATOM     25  C   UNL     1       2.567   7.751  18.441  0.00  0.00    +0.000 A 
ATOM     26  F   UNL     1       3.262   7.749  17.296  0.00  0.00    +0.000 F 
ATOM     27  C   UNL     1       2.550   6.609  19.237  0.00  0.00    +0.000 A 
ENDBRANCH  20  21
ENDBRANCH  18  20
ENDBRANCH   1  15
TORSDOF 6
ENDMDL
