MODEL 1
REMARK VINA RESULT:      -9.2      0.000      0.000
REMARK  Name = 
REMARK  7 active torsions:
REMARK  status: ('A' for Active; 'I' for Inactive)
REMARK    1  A    between atoms: C_1  and  N_2
REMARK    2  A    between atoms: C_6  and  C_7
REMARK    3  A    between atoms: C_7  and  C_8
REMARK    4  A    between atoms: C_8  and  N_9
REMARK    5  A    between atoms: C_12  and  N_13
REMARK    6  A    between atoms: C_15  and  N_16
REMARK    7  A    between atoms: C_23  and  C_24
REMARK                            x       y       z     vdW  Elec       q    Type
REMARK                         _______ _______ _______ _____ _____    ______ ____
ROOT
ATOM      1  N   UNL     1       4.266   4.469  18.404  0.00  0.00    +0.000 NA
ATOM      2  C   UNL     1       4.161   3.068  18.846  0.00  0.00    +0.000 C 
ATOM      3  C   UNL     1       3.418   2.716  20.099  0.00  0.00    +0.000 C 
ATOM      4  C   UNL     1       2.662   3.438  20.936  0.00  0.00    +0.000 C 
ATOM      5  C   UNL     1       2.408   4.858  20.809  0.00  0.00    +0.000 C 
ATOM      6  C   UNL     1       2.416   5.632  19.704  0.00  0.00    +0.000 C 
ATOM      7  C   UNL     1       2.928   5.091  18.366  0.00  0.00    +0.000 C 
ENDROOT
BRANCH   6   8
ATOM      8  N   UNL     1       1.897   6.943  19.746  0.00  0.00    +0.000 N 
ATOM      9  C   UNL     1       1.234   7.509  20.919  0.00  0.00    +0.000 C 
ATOM     10  C   UNL     1       1.024   8.947  20.569  0.00  0.00    +0.000 A 
ATOM     11  C   UNL     1       1.532   9.188  19.300  0.00  0.00    +0.000 A 
ATOM     12  C   UNL     1       1.556  10.446  18.725  0.00  0.00    +0.000 A 
ATOM     13  C   UNL     1       1.029  11.501  19.464  0.00  0.00    +0.000 A 
ATOM     14  C   UNL     1       0.492  11.273  20.744  0.00  0.00    +0.000 A 
ATOM     15  C   UNL     1       0.480   9.986  21.321  0.00  0.00    +0.000 A 
ATOM     16  C   UNL     1       2.070   7.935  18.760  0.00  0.00    +0.000 C 
ATOM     17  O   UNL     1       2.589   7.900  17.661  0.00  0.00    +0.000 OA
BRANCH  15  18
ATOM     18  C   UNL     1      -0.083   9.788  22.704  0.00  0.00    +0.000 C 
ATOM     19  F   UNL     1       0.861   9.480  23.636  0.00  0.00    +0.000 F 
ATOM     20  F   UNL     1      -0.719  10.896  23.169  0.00  0.00    +0.000 F 
ATOM     21  F   UNL     1      -0.995   8.779  22.753  0.00  0.00    +0.000 F 
ENDBRANCH  15  18
ENDBRANCH   6   8
BRANCH   4  22
ATOM     22  N   UNL     1       2.034   2.829  22.007  0.00  0.00    +0.000 N 
ATOM     23  H   UNL     1       1.127   2.428  21.804  0.00  0.00    +0.000 HD
ATOM     24  H   UNL     1       2.631   2.212  22.551  0.00  0.00    +0.000 HD
ENDBRANCH   4  22
BRANCH   1  25
ATOM     25  C   UNL     1       4.914   4.465  17.054  0.00  0.00    +0.000 C 
BRANCH  25  26
ATOM     26  C   UNL     1       6.454   4.359  17.052  0.00  0.00    +0.000 C 
BRANCH  26  32
ATOM     27  C   UNL     1       7.595   5.469  19.756  0.00  0.00    +0.000 C 
ATOM     28  N   UNL     1       7.564   6.152  18.490  0.00  0.00    +0.000 N 
ATOM     29  C   UNL     1       7.957   7.436  18.271  0.00  0.00    +0.000 A 
ATOM     30  N   UNL     1       7.815   7.725  17.001  0.00  0.00    +0.000 NA
ATOM     31  N   UNL     1       7.299   6.616  16.373  0.00  0.00    +0.000 NA
ATOM     32  C   UNL     1       7.126   5.675  17.281  0.00  0.00    +0.000 A 
ENDBRANCH  26  32
ENDBRANCH  25  26
ENDBRANCH   1  25
TORSDOF 6
ENDMDL
MODEL 2
REMARK VINA RESULT:      -9.1      1.100      1.790
REMARK  Name = 
REMARK  7 active torsions:
REMARK  status: ('A' for Active; 'I' for Inactive)
REMARK    1  A    between atoms: C_1  and  N_2
REMARK    2  A    between atoms: C_6  and  C_7
REMARK    3  A    between atoms: C_7  and  C_8
REMARK    4  A    between atoms: C_8  and  N_9
REMARK    5  A    between atoms: C_12  and  N_13
REMARK    6  A    between atoms: C_15  and  N_16
REMARK    7  A    between atoms: C_23  and  C_24
REMARK                            x       y       z     vdW  Elec       q    Type
REMARK                         _______ _______ _______ _____ _____    ______ ____
ROOT
ATOM      1  N   UNL     1       4.782   5.095  19.561  0.00  0.00    +0.000 NA
ATOM      2  C   UNL     1       4.594   3.634  19.520  0.00  0.00    +0.000 C 
ATOM      3  C   UNL     1       3.326   3.012  20.020  0.00  0.00    +0.000 C 
ATOM      4  C   UNL     1       2.166   3.534  20.438  0.00  0.00    +0.000 C 
ATOM      5  C   UNL     1       1.880   4.950  20.535  0.00  0.00    +0.000 C 
ATOM      6  C   UNL     1       2.415   5.979  19.844  0.00  0.00    +0.000 C 
ATOM      7  C   UNL     1       3.630   5.771  18.934  0.00  0.00    +0.000 C 
ENDROOT
BRANCH   6   8
ATOM      8  N   UNL     1       1.828   7.260  19.902  0.00  0.00    +0.000 N 
ATOM      9  C   UNL     1       1.140   7.778  21.083  0.00  0.00    +0.000 C 
ATOM     10  C   UNL     1       0.852   9.206  20.749  0.00  0.00    +0.000 A 
ATOM     11  C   UNL     1       1.343   9.487  19.480  0.00  0.00    +0.000 A 
ATOM     12  C   UNL     1       1.299  10.750  18.920  0.00  0.00    +0.000 A 
ATOM     13  C   UNL     1       0.719  11.768  19.671  0.00  0.00    +0.000 A 
ATOM     14  C   UNL     1       0.199  11.499  20.950  0.00  0.00    +0.000 A 
ATOM     15  C   UNL     1       0.256  10.207  21.513  0.00  0.00    +0.000 A 
ATOM     16  C   UNL     1       1.944   8.270  18.926  0.00  0.00    +0.000 C 
ATOM     17  O   UNL     1       2.462   8.274  17.825  0.00  0.00    +0.000 OA
BRANCH  15  18
ATOM     18  C   UNL     1      -0.290   9.965  22.895  0.00  0.00    +0.000 C 
ATOM     19  F   UNL     1       0.665   9.636  23.808  0.00  0.00    +0.000 F 
ATOM     20  F   UNL     1      -0.929  11.055  23.399  0.00  0.00    +0.000 F 
ATOM     21  F   UNL     1      -1.196   8.949  22.924  0.00  0.00    +0.000 F 
ENDBRANCH  15  18
ENDBRANCH   6   8
BRANCH   4  22
ATOM     22  N   UNL     1       1.119   2.704  20.795  0.00  0.00    +0.000 N 
ATOM     23  H   UNL     1       0.752   2.126  20.050  0.00  0.00    +0.000 HD
ATOM     24  H   UNL     1       1.262   2.195  21.663  0.00  0.00    +0.000 HD
ENDBRANCH   4  22
BRANCH   1  25
ATOM     25  C   UNL     1       6.061   5.402  18.845  0.00  0.00    +0.000 C 
BRANCH  25  26
ATOM     26  C   UNL     1       5.938   6.356  17.638  0.00  0.00    +0.000 C 
BRANCH  26  32
ATOM     27  C   UNL     1       4.547   4.125  15.925  0.00  0.00    +0.000 C 
ATOM     28  N   UNL     1       5.826   4.734  15.671  0.00  0.00    +0.000 N 
ATOM     29  C   UNL     1       6.688   4.383  14.679  0.00  0.00    +0.000 A 
ATOM     30  N   UNL     1       7.744   5.158  14.725  0.00  0.00    +0.000 NA
ATOM     31  N   UNL     1       7.584   6.023  15.781  0.00  0.00    +0.000 NA
ATOM     32  C   UNL     1       6.434   5.748  16.365  0.00  0.00    +0.000 A 
ENDBRANCH  26  32
ENDBRANCH  25  26
ENDBRANCH   1  25
TORSDOF 6
ENDMDL
MODEL 3
REMARK VINA RESULT:      -9.0      1.750      2.402
REMARK  Name = 
REMARK  7 active torsions:
REMARK  status: ('A' for Active; 'I' for Inactive)
REMARK    1  A    between atoms: C_1  and  N_2
REMARK    2  A    between atoms: C_6  and  C_7
REMARK    3  A    between atoms: C_7  and  C_8
REMARK    4  A    between atoms: C_8  and  N_9
REMARK    5  A    between atoms: C_12  and  N_13
REMARK    6  A    between atoms: C_15  and  N_16
REMARK    7  A    between atoms: C_23  and  C_24
REMARK                            x       y       z     vdW  Elec       q    Type
REMARK                         _______ _______ _______ _____ _____    ______ ____
ROOT
ATOM      1  N   UNL     1       4.855   5.432  17.966  0.00  0.00    +0.000 NA
ATOM      2  C   UNL     1       4.899   3.976  18.185  0.00  0.00    +0.000 C 
ATOM      3  C   UNL     1       4.102   3.343  19.285  0.00  0.00    +0.000 C 
ATOM      4  C   UNL     1       3.184   3.829  20.131  0.00  0.00    +0.000 C 
ATOM      5  C   UNL     1       2.754   5.211  20.186  0.00  0.00    +0.000 C 
ATOM      6  C   UNL     1       2.757   6.145  19.213  0.00  0.00    +0.000 C 
ATOM      7  C   UNL     1       3.454   5.888  17.873  0.00  0.00    +0.000 C 
ENDROOT
BRANCH   6   8
ATOM      8  N   UNL     1       2.065   7.362  19.389  0.00  0.00    +0.000 N 
ATOM      9  C   UNL     1       1.407   7.741  20.638  0.00  0.00    +0.000 C 
ATOM     10  C   UNL     1       0.978   9.155  20.417  0.00  0.00    +0.000 A 
ATOM     11  C   UNL     1       1.365   9.558  19.146  0.00  0.00    +0.000 A 
ATOM     12  C   UNL     1       1.177  10.845  18.675  0.00  0.00    +0.000 A 
ATOM     13  C   UNL     1       0.558  11.757  19.524  0.00  0.00    +0.000 A 
ATOM     14  C   UNL     1       0.141  11.363  20.809  0.00  0.00    +0.000 A 
ATOM     15  C   UNL     1       0.344  10.048  21.279  0.00  0.00    +0.000 A 
ATOM     16  C   UNL     1       2.035   8.437  18.479  0.00  0.00    +0.000 C 
ATOM     17  O   UNL     1       2.482   8.558  17.354  0.00  0.00    +0.000 OA
BRANCH  15  18
ATOM     18  C   UNL     1      -0.095   9.671  22.669  0.00  0.00    +0.000 C 
ATOM     19  F   UNL     1       0.937   9.341  23.495  0.00  0.00    +0.000 F 
ATOM     20  F   UNL     1      -0.765  10.678  23.292  0.00  0.00    +0.000 F 
ATOM     21  F   UNL     1      -0.932   8.598  22.676  0.00  0.00    +0.000 F 
ENDBRANCH  15  18
ENDBRANCH   6   8
BRANCH   4  22
ATOM     22  N   UNL     1       2.550   2.987  21.027  0.00  0.00    +0.000 N 
ATOM     23  H   UNL     1       2.816   2.013  20.967  0.00  0.00    +0.000 HD
ATOM     24  H   UNL     1       2.518   3.335  21.982  0.00  0.00    +0.000 HD
ENDBRANCH   4  22
BRANCH   1  25
ATOM     25  C   UNL     1       5.615   5.718  16.708  0.00  0.00    +0.000 C 
BRANCH  25  26
ATOM     26  C   UNL     1       5.848   4.508  15.778  0.00  0.00    +0.000 C 
BRANCH  26  32
ATOM     27  C   UNL     1       5.521   3.466  12.836  0.00  0.00    +0.000 C 
ATOM     28  N   UNL     1       6.563   4.324  13.335  0.00  0.00    +0.000 N 
ATOM     29  C   UNL     1       7.635   4.766  12.623  0.00  0.00    +0.000 A 
ATOM     30  N   UNL     1       8.370   5.544  13.380  0.00  0.00    +0.000 NA
ATOM     31  N   UNL     1       7.781   5.600  14.621  0.00  0.00    +0.000 NA
ATOM     32  C   UNL     1       6.702   4.841  14.597  0.00  0.00    +0.000 A 
ENDBRANCH  26  32
ENDBRANCH  25  26
ENDBRANCH   1  25
TORSDOF 6
ENDMDL
MODEL 4
REMARK VINA RESULT:      -8.9      0.667      1.120
REMARK  Name = 
REMARK  7 active torsions:
REMARK  status: ('A' for Active; 'I' for Inactive)
REMARK    1  A    between atoms: C_1  and  N_2
REMARK    2  A    between atoms: C_6  and  C_7
REMARK    3  A    between atoms: C_7  and  C_8
REMARK    4  A    between atoms: C_8  and  N_9
REMARK    5  A    between atoms: C_12  and  N_13
REMARK    6  A    between atoms: C_15  and  N_16
REMARK    7  A    between atoms: C_23  and  C_24
REMARK                            x       y       z     vdW  Elec       q    Type
REMARK                         _______ _______ _______ _____ _____    ______ ____
ROOT
ATOM      1  N   UNL     1       4.079   4.350  18.040  0.00  0.00    +0.000 NA
ATOM      2  C   UNL     1       4.017   2.965  18.536  0.00  0.00    +0.000 C 
ATOM      3  C   UNL     1       3.438   2.661  19.884  0.00  0.00    +0.000 C 
ATOM      4  C   UNL     1       2.803   3.419  20.787  0.00  0.00    +0.000 C 
ATOM      5  C   UNL     1       2.550   4.838  20.649  0.00  0.00    +0.000 C 
ATOM      6  C   UNL     1       2.424   5.578  19.528  0.00  0.00    +0.000 C 
ATOM      7  C   UNL     1       2.754   4.990  18.153  0.00  0.00    +0.000 C 
ENDROOT
BRANCH   6   8
ATOM      8  N   UNL     1       1.929   6.897  19.595  0.00  0.00    +0.000 N 
ATOM      9  C   UNL     1       1.282   7.455  20.781  0.00  0.00    +0.000 C 
ATOM     10  C   UNL     1       1.096   8.902  20.456  0.00  0.00    +0.000 A 
ATOM     11  C   UNL     1       1.601   9.155  19.188  0.00  0.00    +0.000 A 
ATOM     12  C   UNL     1       1.645  10.422  18.634  0.00  0.00    +0.000 A 
ATOM     13  C   UNL     1       1.141  11.474  19.393  0.00  0.00    +0.000 A 
ATOM     14  C   UNL     1       0.606  11.235  20.673  0.00  0.00    +0.000 A 
ATOM     15  C   UNL     1       0.574   9.938  21.228  0.00  0.00    +0.000 A 
ATOM     16  C   UNL     1       2.113   7.902  18.625  0.00  0.00    +0.000 C 
ATOM     17  O   UNL     1       2.627   7.877  17.522  0.00  0.00    +0.000 OA
BRANCH  15  18
ATOM     18  C   UNL     1       0.016   9.727  22.610  0.00  0.00    +0.000 C 
ATOM     19  F   UNL     1       0.955   9.365  23.527  0.00  0.00    +0.000 F 
ATOM     20  F   UNL     1      -0.579  10.845  23.106  0.00  0.00    +0.000 F 
ATOM     21  F   UNL     1      -0.930   8.749  22.644  0.00  0.00    +0.000 F 
ENDBRANCH  15  18
ENDBRANCH   6   8
BRANCH   4  22
ATOM     22  N   UNL     1       2.311   2.851  21.948  0.00  0.00    +0.000 N 
ATOM     23  H   UNL     1       1.605   2.138  21.815  0.00  0.00    +0.000 HD
ATOM     24  H   UNL     1       3.024   2.588  22.624  0.00  0.00    +0.000 HD
ENDBRANCH   4  22
BRANCH   1  25
ATOM     25  C   UNL     1       4.548   4.296  16.618  0.00  0.00    +0.000 C 
BRANCH  25  26
ATOM     26  C   UNL     1       6.079   4.272  16.419  0.00  0.00    +0.000 C 
BRANCH  26  32
ATOM     27  C   UNL     1       6.177   7.344  17.054  0.00  0.00    +0.000 C 
ATOM     28  N   UNL     1       6.884   6.299  17.746  0.00  0.00    +0.000 N 
ATOM     29  C   UNL     1       7.783   6.480  18.751  0.00  0.00    +0.000 A 
ATOM     30  N   UNL     1       8.216   5.314  19.164  0.00  0.00    +0.000 NA
ATOM     31  N   UNL     1       7.605   4.346  18.403  0.00  0.00    +0.000 NA
ATOM     32  C   UNL     1       6.818   4.946  17.530  0.00  0.00    +0.000 A 
ENDBRANCH  26  32
ENDBRANCH  25  26
ENDBRANCH   1  25
TORSDOF 6
ENDMDL
MODEL 5
REMARK VINA RESULT:      -8.6      1.239      2.002
REMARK  Name = 
REMARK  7 active torsions:
REMARK  status: ('A' for Active; 'I' for Inactive)
REMARK    1  A    between atoms: C_1  and  N_2
REMARK    2  A    between atoms: C_6  and  C_7
REMARK    3  A    between atoms: C_7  and  C_8
REMARK    4  A    between atoms: C_8  and  N_9
REMARK    5  A    between atoms: C_12  and  N_13
REMARK    6  A    between atoms: C_15  and  N_16
REMARK    7  A    between atoms: C_23  and  C_24
REMARK                            x       y       z     vdW  Elec       q    Type
REMARK                         _______ _______ _______ _____ _____    ______ ____
ROOT
ATOM      1  N   UNL     1       4.866   5.077  19.717  0.00  0.00    +0.000 NA
ATOM      2  C   UNL     1       4.710   3.642  19.422  0.00  0.00    +0.000 C 
ATOM      3  C   UNL     1       3.370   2.981  19.530  0.00  0.00    +0.000 C 
ATOM      4  C   UNL     1       2.139   3.462  19.749  0.00  0.00    +0.000 C 
ATOM      5  C   UNL     1       1.821   4.855  19.985  0.00  0.00    +0.000 C 
ATOM      6  C   UNL     1       2.485   5.961  19.589  0.00  0.00    +0.000 C 
ATOM      7  C   UNL     1       3.875   5.862  18.954  0.00  0.00    +0.000 C 
ENDROOT
BRANCH   6   8
ATOM      8  N   UNL     1       1.884   7.232  19.700  0.00  0.00    +0.000 N 
ATOM      9  C   UNL     1       1.225   7.708  20.914  0.00  0.00    +0.000 C 
ATOM     10  C   UNL     1       0.911   9.141  20.629  0.00  0.00    +0.000 A 
ATOM     11  C   UNL     1       1.361   9.463  19.355  0.00  0.00    +0.000 A 
ATOM     12  C   UNL     1       1.285  10.741  18.832  0.00  0.00    +0.000 A 
ATOM     13  C   UNL     1       0.716  11.730  19.628  0.00  0.00    +0.000 A 
ATOM     14  C   UNL     1       0.236  11.420  20.914  0.00  0.00    +0.000 A 
ATOM     15  C   UNL     1       0.326  10.113  21.438  0.00  0.00    +0.000 A 
ATOM     16  C   UNL     1       1.960   8.270  18.750  0.00  0.00    +0.000 C 
ATOM     17  O   UNL     1       2.445   8.312  17.635  0.00  0.00    +0.000 OA
BRANCH  15  18
ATOM     18  C   UNL     1      -0.177   9.825  22.828  0.00  0.00    +0.000 C 
ATOM     19  F   UNL     1      -0.823  10.878  23.402  0.00  0.00    +0.000 F 
ATOM     20  F   UNL     1      -1.055   8.787  22.858  0.00  0.00    +0.000 F 
ATOM     21  F   UNL     1       0.828   9.496  23.685  0.00  0.00    +0.000 F 
ENDBRANCH  15  18
ENDBRANCH   6   8
BRANCH   4  22
ATOM     22  N   UNL     1       1.048   2.611  19.738  0.00  0.00    +0.000 N 
ATOM     23  H   UNL     1       0.989   1.995  18.937  0.00  0.00    +0.000 HD
ATOM     24  H   UNL     1       0.875   2.137  20.621  0.00  0.00    +0.000 HD
ENDBRANCH   4  22
BRANCH   1  25
ATOM     25  C   UNL     1       6.269   5.458  19.358  0.00  0.00    +0.000 C 
BRANCH  25  26
ATOM     26  C   UNL     1       6.416   6.407  18.149  0.00  0.00    +0.000 C 
BRANCH  26  32
ATOM     27  C   UNL     1       5.018   6.737  15.359  0.00  0.00    +0.000 C 
ATOM     28  N   UNL     1       6.070   5.813  15.691  0.00  0.00    +0.000 N 
ATOM     29  C   UNL     1       6.585   4.866  14.861  0.00  0.00    +0.000 A 
ATOM     30  N   UNL     1       7.542   4.218  15.480  0.00  0.00    +0.000 NA
ATOM     31  N   UNL     1       7.647   4.735  16.749  0.00  0.00    +0.000 NA
ATOM     32  C   UNL     1       6.739   5.684  16.881  0.00  0.00    +0.000 A 
ENDBRANCH  26  32
ENDBRANCH  25  26
ENDBRANCH   1  25
TORSDOF 6
ENDMDL
MODEL 6
REMARK VINA RESULT:      -8.5      0.777      1.091
REMARK  Name = 
REMARK  7 active torsions:
REMARK  status: ('A' for Active; 'I' for Inactive)
REMARK    1  A    between atoms: C_1  and  N_2
REMARK    2  A    between atoms: C_6  and  C_7
REMARK    3  A    between atoms: C_7  and  C_8
REMARK    4  A    between atoms: C_8  and  N_9
REMARK    5  A    between atoms: C_12  and  N_13
REMARK    6  A    between atoms: C_15  and  N_16
REMARK    7  A    between atoms: C_23  and  C_24
REMARK                            x       y       z     vdW  Elec       q    Type
REMARK                         _______ _______ _______ _____ _____    ______ ____
ROOT
ATOM      1  N   UNL     1       4.521   5.463  17.840  0.00  0.00    +0.000 NA
ATOM      2  C   UNL     1       4.563   4.014  18.101  0.00  0.00    +0.000 C 
ATOM      3  C   UNL     1       3.865   3.430  19.292  0.00  0.00    +0.000 C 
ATOM      4  C   UNL     1       3.040   3.959  20.205  0.00  0.00    +0.000 C 
ATOM      5  C   UNL     1       2.639   5.349  20.256  0.00  0.00    +0.000 C 
ATOM      6  C   UNL     1       2.563   6.253  19.257  0.00  0.00    +0.000 C 
ATOM      7  C   UNL     1       3.125   5.942  17.867  0.00  0.00    +0.000 C 
ENDROOT
BRANCH   6   8
ATOM      8  N   UNL     1       1.910   7.487  19.459  0.00  0.00    +0.000 N 
ATOM      9  C   UNL     1       1.266   7.861  20.716  0.00  0.00    +0.000 C 
ATOM     10  C   UNL     1       0.881   9.293  20.525  0.00  0.00    +0.000 A 
ATOM     11  C   UNL     1       1.280   9.709  19.262  0.00  0.00    +0.000 A 
ATOM     12  C   UNL     1       1.133  11.010  18.817  0.00  0.00    +0.000 A 
ATOM     13  C   UNL     1       0.543  11.924  19.685  0.00  0.00    +0.000 A 
ATOM     14  C   UNL     1       0.115  11.517  20.962  0.00  0.00    +0.000 A 
ATOM     15  C   UNL     1       0.276  10.187  21.405  0.00  0.00    +0.000 A 
ATOM     16  C   UNL     1       1.913   8.581  18.571  0.00  0.00    +0.000 C 
ATOM     17  O   UNL     1       2.364   8.711  17.448  0.00  0.00    +0.000 OA
BRANCH  15  18
ATOM     18  C   UNL     1      -0.174   9.797  22.788  0.00  0.00    +0.000 C 
ATOM     19  F   UNL     1      -1.035   8.742  22.802  0.00  0.00    +0.000 F 
ATOM     20  F   UNL     1       0.865   9.441  23.591  0.00  0.00    +0.000 F 
ATOM     21  F   UNL     1      -0.818  10.810  23.429  0.00  0.00    +0.000 F 
ENDBRANCH  15  18
ENDBRANCH   6   8
BRANCH   4  22
ATOM     22  N   UNL     1       2.481   3.157  21.184  0.00  0.00    +0.000 N 
ATOM     23  H   UNL     1       2.396   2.178  20.944  0.00  0.00    +0.000 HD
ATOM     24  H   UNL     1       2.855   3.309  22.117  0.00  0.00    +0.000 HD
ENDBRANCH   4  22
BRANCH   1  25
ATOM     25  C   UNL     1       5.161   5.696  16.507  0.00  0.00    +0.000 C 
BRANCH  25  26
ATOM     26  C   UNL     1       6.698   5.557  16.470  0.00  0.00    +0.000 C 
BRANCH  26  32
ATOM     27  C   UNL     1       7.985   5.352  19.325  0.00  0.00    +0.000 C 
ATOM     28  N   UNL     1       7.900   6.529  18.501  0.00  0.00    +0.000 N 
ATOM     29  C   UNL     1       8.297   7.779  18.861  0.00  0.00    +0.000 A 
ATOM     30  N   UNL     1       8.096   8.605  17.863  0.00  0.00    +0.000 NA
ATOM     31  N   UNL     1       7.536   7.889  16.832  0.00  0.00    +0.000 NA
ATOM     32  C   UNL     1       7.397   6.638  17.231  0.00  0.00    +0.000 A 
ENDBRANCH  26  32
ENDBRANCH  25  26
ENDBRANCH   1  25
TORSDOF 6
ENDMDL
MODEL 7
REMARK VINA RESULT:      -8.5      1.594      4.228
REMARK  Name = 
REMARK  7 active torsions:
REMARK  status: ('A' for Active; 'I' for Inactive)
REMARK    1  A    between atoms: C_1  and  N_2
REMARK    2  A    between atoms: C_6  and  C_7
REMARK    3  A    between atoms: C_7  and  C_8
REMARK    4  A    between atoms: C_8  and  N_9
REMARK    5  A    between atoms: C_12  and  N_13
REMARK    6  A    between atoms: C_15  and  N_16
REMARK    7  A    between atoms: C_23  and  C_24
REMARK                            x       y       z     vdW  Elec       q    Type
REMARK                         _______ _______ _______ _____ _____    ______ ____
ROOT
ATOM      1  N   UNL     1       2.238   4.910  17.474  0.00  0.00    +0.000 NA
ATOM      2  C   UNL     1       3.577   4.340  17.244  0.00  0.00    +0.000 C 
ATOM      3  C   UNL     1       4.782   5.228  17.168  0.00  0.00    +0.000 C 
ATOM      4  C   UNL     1       4.957   6.537  17.389  0.00  0.00    +0.000 C 
ATOM      5  C   UNL     1       3.906   7.465  17.750  0.00  0.00    +0.000 C 
ATOM      6  C   UNL     1       2.739   7.229  18.386  0.00  0.00    +0.000 C 
ATOM      7  C   UNL     1       2.261   5.799  18.652  0.00  0.00    +0.000 C 
ENDROOT
BRANCH   6   8
ATOM      8  N   UNL     1       1.961   8.301  18.872  0.00  0.00    +0.000 N 
ATOM      9  C   UNL     1       1.352   8.316  20.200  0.00  0.00    +0.000 C 
ATOM     10  C   UNL     1       0.794   9.696  20.337  0.00  0.00    +0.000 A 
ATOM     11  C   UNL     1       1.069  10.417  19.182  0.00  0.00    +0.000 A 
ATOM     12  C   UNL     1       0.748  11.755  19.037  0.00  0.00    +0.000 A 
ATOM     13  C   UNL     1       0.108  12.383  20.101  0.00  0.00    +0.000 A 
ATOM     14  C   UNL     1      -0.196  11.664  21.272  0.00  0.00    +0.000 A 
ATOM     15  C   UNL     1       0.143  10.302  21.409  0.00  0.00    +0.000 A 
ATOM     16  C   UNL     1       1.787   9.550  18.243  0.00  0.00    +0.000 C 
ATOM     17  O   UNL     1       2.154   9.970  17.162  0.00  0.00    +0.000 OA
BRANCH  15  18
ATOM     18  C   UNL     1      -0.178   9.574  22.688  0.00  0.00    +0.000 C 
ATOM     19  F   UNL     1      -0.891   8.429  22.498  0.00  0.00    +0.000 F 
ATOM     20  F   UNL     1       0.939   9.208  23.372  0.00  0.00    +0.000 F 
ATOM     21  F   UNL     1      -0.915  10.332  23.545  0.00  0.00    +0.000 F 
ENDBRANCH  15  18
ENDBRANCH   6   8
BRANCH   4  22
ATOM     22  N   UNL     1       6.219   7.094  17.301  0.00  0.00    +0.000 N 
ATOM     23  H   UNL     1       6.533   7.586  18.128  0.00  0.00    +0.000 HD
ATOM     24  H   UNL     1       6.926   6.477  16.911  0.00  0.00    +0.000 HD
ENDBRANCH   4  22
BRANCH   1  25
ATOM     25  C   UNL     1       1.292   3.765  17.663  0.00  0.00    +0.000 C 
BRANCH  25  26
ATOM     26  C   UNL     1       1.891   2.504  18.321  0.00  0.00    +0.000 C 
BRANCH  26  32
ATOM     27  C   UNL     1       4.483   2.310  20.080  0.00  0.00    +0.000 C 
ATOM     28  N   UNL     1       3.133   2.473  20.551  0.00  0.00    +0.000 N 
ATOM     29  C   UNL     1       2.745   2.490  21.854  0.00  0.00    +0.000 A 
ATOM     30  N   UNL     1       1.449   2.678  21.921  0.00  0.00    +0.000 NA
ATOM     31  N   UNL     1       0.971   2.766  20.635  0.00  0.00    +0.000 NA
ATOM     32  C   UNL     1       1.989   2.617  19.809  0.00  0.00    +0.000 A 
ENDBRANCH  26  32
ENDBRANCH  25  26
ENDBRANCH   1  25
TORSDOF 6
ENDMDL
MODEL 8
REMARK VINA RESULT:      -8.3      4.189      8.294
REMARK  Name = 
REMARK  7 active torsions:
REMARK  status: ('A' for Active; 'I' for Inactive)
REMARK    1  A    between atoms: C_1  and  N_2
REMARK    2  A    between atoms: C_6  and  C_7
REMARK    3  A    between atoms: C_7  and  C_8
REMARK    4  A    between atoms: C_8  and  N_9
REMARK    5  A    between atoms: C_12  and  N_13
REMARK    6  A    between atoms: C_15  and  N_16
REMARK    7  A    between atoms: C_23  and  C_24
REMARK                            x       y       z     vdW  Elec       q    Type
REMARK                         _______ _______ _______ _____ _____    ______ ____
ROOT
ATOM      1  N   UNL     1      -0.546  10.431  19.726  0.00  0.00    +0.000 NA
ATOM      2  C   UNL     1      -0.837  11.264  20.906  0.00  0.00    +0.000 C 
ATOM      3  C   UNL     1      -0.593  10.741  22.289  0.00  0.00    +0.000 C 
ATOM      4  C   UNL     1      -0.014   9.623  22.745  0.00  0.00    +0.000 C 
ATOM      5  C   UNL     1       0.520   8.566  21.911  0.00  0.00    +0.000 C 
ATOM      6  C   UNL     1       0.992   8.630  20.649  0.00  0.00    +0.000 C 
ATOM      7  C   UNL     1       0.828   9.899  19.808  0.00  0.00    +0.000 C 
ENDROOT
BRANCH   6   8
ATOM      8  N   UNL     1       1.701   7.543  20.096  0.00  0.00    +0.000 N 
ATOM      9  C   UNL     1       1.596   6.174  20.597  0.00  0.00    +0.000 C 
ATOM     10  C   UNL     1       2.364   5.356  19.610  0.00  0.00    +0.000 A 
ATOM     11  C   UNL     1       2.864   6.189  18.617  0.00  0.00    +0.000 A 
ATOM     12  C   UNL     1       3.554   5.716  17.516  0.00  0.00    +0.000 A 
ATOM     13  C   UNL     1       3.759   4.343  17.426  0.00  0.00    +0.000 A 
ATOM     14  C   UNL     1       3.278   3.485  18.431  0.00  0.00    +0.000 A 
ATOM     15  C   UNL     1       2.569   3.980  19.546  0.00  0.00    +0.000 A 
ATOM     16  C   UNL     1       2.472   7.570  18.916  0.00  0.00    +0.000 C 
ATOM     17  O   UNL     1       2.780   8.482  18.172  0.00  0.00    +0.000 OA
BRANCH  15  18
ATOM     18  C   UNL     1       2.048   3.027  20.589  0.00  0.00    +0.000 C 
ATOM     19  F   UNL     1       0.708   3.134  20.804  0.00  0.00    +0.000 F 
ATOM     20  F   UNL     1       2.271   1.726  20.261  0.00  0.00    +0.000 F 
ATOM     21  F   UNL     1       2.634   3.216  21.803  0.00  0.00    +0.000 F 
ENDBRANCH  15  18
ENDBRANCH   6   8
BRANCH   4  22
ATOM     22  N   UNL     1       0.134   9.420  24.105  0.00  0.00    +0.000 N 
ATOM     23  H   UNL     1      -0.166   8.515  24.442  0.00  0.00    +0.000 HD
ATOM     24  H   UNL     1       1.034   9.708  24.479  0.00  0.00    +0.000 HD
ENDBRANCH   4  22
BRANCH   1  25
ATOM     25  C   UNL     1      -0.736  11.291  18.515  0.00  0.00    +0.000 C 
BRANCH  25  26
ATOM     26  C   UNL     1      -1.595  10.678  17.388  0.00  0.00    +0.000 C 
BRANCH  26  32
ATOM     27  C   UNL     1      -3.735  10.557  15.096  0.00  0.00    +0.000 C 
ATOM     28  N   UNL     1      -3.925  11.076  16.425  0.00  0.00    +0.000 N 
ATOM     29  C   UNL     1      -5.053  11.679  16.887  0.00  0.00    +0.000 A 
ATOM     30  N   UNL     1      -4.888  12.009  18.145  0.00  0.00    +0.000 NA
ATOM     31  N   UNL     1      -3.618  11.634  18.513  0.00  0.00    +0.000 NA
ATOM     32  C   UNL     1      -3.030  11.091  17.463  0.00  0.00    +0.000 A 
ENDBRANCH  26  32
ENDBRANCH  25  26
ENDBRANCH   1  25
TORSDOF 6
ENDMDL
MODEL 9
REMARK VINA RESULT:      -8.3      0.666      1.040
REMARK  Name = 
REMARK  7 active torsions:
REMARK  status: ('A' for Active; 'I' for Inactive)
REMARK    1  A    between atoms: C_1  and  N_2
REMARK    2  A    between atoms: C_6  and  C_7
REMARK    3  A    between atoms: C_7  and  C_8
REMARK    4  A    between atoms: C_8  and  N_9
REMARK    5  A    between atoms: C_12  and  N_13
REMARK    6  A    between atoms: C_15  and  N_16
REMARK    7  A    between atoms: C_23  and  C_24
REMARK                            x       y       z     vdW  Elec       q    Type
REMARK                         _______ _______ _______ _____ _____    ______ ____
ROOT
ATOM      1  N   UNL     1       4.177   4.351  18.246  0.00  0.00    +0.000 NA
ATOM      2  C   UNL     1       4.076   2.967  18.739  0.00  0.00    +0.000 C 
ATOM      3  C   UNL     1       3.402   2.667  20.043  0.00  0.00    +0.000 C 
ATOM      4  C   UNL     1       2.707   3.428  20.898  0.00  0.00    +0.000 C 
ATOM      5  C   UNL     1       2.468   4.848  20.740  0.00  0.00    +0.000 C 
ATOM      6  C   UNL     1       2.424   5.586  19.611  0.00  0.00    +0.000 C 
ATOM      7  C   UNL     1       2.849   4.994  18.264  0.00  0.00    +0.000 C 
ENDROOT
BRANCH   6   8
ATOM      8  N   UNL     1       1.929   6.906  19.641  0.00  0.00    +0.000 N 
ATOM      9  C   UNL     1       1.270   7.494  20.806  0.00  0.00    +0.000 C 
ATOM     10  C   UNL     1       1.087   8.932  20.444  0.00  0.00    +0.000 A 
ATOM     11  C   UNL     1       1.607   9.154  19.175  0.00  0.00    +0.000 A 
ATOM     12  C   UNL     1       1.656  10.407  18.592  0.00  0.00    +0.000 A 
ATOM     13  C   UNL     1       1.145  11.477  19.319  0.00  0.00    +0.000 A 
ATOM     14  C   UNL     1       0.597  11.269  20.598  0.00  0.00    +0.000 A 
ATOM     15  C   UNL     1       0.558   9.987  21.185  0.00  0.00    +0.000 A 
ATOM     16  C   UNL     1       2.124   7.887  18.648  0.00  0.00    +0.000 C 
ATOM     17  O   UNL     1       2.649   7.835  17.552  0.00  0.00    +0.000 OA
BRANCH  15  18
ATOM     18  C   UNL     1      -0.014   9.810  22.566  0.00  0.00    +0.000 C 
ATOM     19  F   UNL     1      -0.596  10.936  23.062  0.00  0.00    +0.000 F 
ATOM     20  F   UNL     1      -0.971   8.844  22.612  0.00  0.00    +0.000 F 
ATOM     21  F   UNL     1       0.931   9.449  23.477  0.00  0.00    +0.000 F 
ENDBRANCH  15  18
ENDBRANCH   6   8
BRANCH   4  22
ATOM     22  N   UNL     1       2.132   2.864  22.022  0.00  0.00    +0.000 N 
ATOM     23  H   UNL     1       2.783   2.469  22.689  0.00  0.00    +0.000 HD
ATOM     24  H   UNL     1       1.410   3.433  22.457  0.00  0.00    +0.000 HD
ENDBRANCH   4  22
BRANCH   1  25
ATOM     25  C   UNL     1       4.745   4.293  16.862  0.00  0.00    +0.000 C 
BRANCH  25  26
ATOM     26  C   UNL     1       5.008   5.657  16.189  0.00  0.00    +0.000 C 
BRANCH  26  32
ATOM     27  C   UNL     1       7.625   4.479  17.458  0.00  0.00    +0.000 C 
ATOM     28  N   UNL     1       7.232   5.863  17.424  0.00  0.00    +0.000 N 
ATOM     29  C   UNL     1       7.899   6.891  18.014  0.00  0.00    +0.000 A 
ATOM     30  N   UNL     1       7.274   8.016  17.765  0.00  0.00    +0.000 NA
ATOM     31  N   UNL     1       6.162   7.721  17.014  0.00  0.00    +0.000 NA
ATOM     32  C   UNL     1       6.126   6.415  16.830  0.00  0.00    +0.000 A 
ENDBRANCH  26  32
ENDBRANCH  25  26
ENDBRANCH   1  25
TORSDOF 6
ENDMDL
