MODEL 1
REMARK VINA RESULT:      -8.2      0.000      0.000
REMARK  Name = 
REMARK  5 active torsions:
REMARK  status: ('A' for Active; 'I' for Inactive)
REMARK    1  A    between atoms: C_1  and  N_2
REMARK    2  A    between atoms: C_6  and  C_7
REMARK    3  A    between atoms: C_11  and  N_12
REMARK    4  A    between atoms: C_13  and  C_15
REMARK    5  A    between atoms: C_15  and  N_16
REMARK                            x       y       z     vdW  Elec       q    Type
REMARK                         _______ _______ _______ _____ _____    ______ ____
ROOT
ATOM      1  N   UNL     1       2.436   7.870  18.958  0.00  0.00    +0.000 N 
ATOM      2  C   UNL     1       1.802   7.994  20.198  0.00  0.00    +0.000 C 
ATOM      3  O   UNL     1       1.500   7.042  20.919  0.00  0.00    +0.000 OA
ATOM      4  H   UNL     1       2.602   8.711  18.417  0.00  0.00    +0.000 HD
ENDROOT
BRANCH   1   9
ATOM      5  C   UNL     1       4.585   5.119  17.621  0.00  0.00    +0.000 A 
ATOM      6  C   UNL     1       3.629   4.112  17.473  0.00  0.00    +0.000 A 
ATOM      7  C   UNL     1       2.291   4.353  17.700  0.00  0.00    +0.000 A 
ATOM      8  C   UNL     1       1.897   5.606  18.141  0.00  0.00    +0.000 A 
ATOM      9  C   UNL     1       2.822   6.629  18.381  0.00  0.00    +0.000 A 
ATOM     10  C   UNL     1       4.174   6.383  18.090  0.00  0.00    +0.000 A 
BRANCH   5  16
ATOM     11  C   UNL     1       6.105   5.097  14.846  0.00  0.00    +0.000 C 
ATOM     12  N   UNL     1       6.610   4.751  16.143  0.00  0.00    +0.000 N 
ATOM     13  N   UNL     1       7.879   4.343  16.286  0.00  0.00    +0.000 NA
ATOM     14  N   UNL     1       8.053   4.203  17.590  0.00  0.00    +0.000 NA
ATOM     15  N   UNL     1       6.907   4.516  18.278  0.00  0.00    +0.000 NA
ATOM     16  C   UNL     1       5.994   4.819  17.373  0.00  0.00    +0.000 A 
ENDBRANCH   5  16
ENDBRANCH   1   9
BRANCH   2  17
ATOM     17  C   UNL     1       1.414   9.414  20.635  0.00  0.00    +0.000 C 
BRANCH  17  18
ATOM     18  N   UNL     1       0.580  10.119  19.673  0.00  0.00    +0.000 N 
ATOM     19  C   UNL     1       1.023  10.820  18.585  0.00  0.00    +0.000 C 
ATOM     20  O   UNL     1       2.133  10.887  18.124  0.00  0.00    +0.000 OA
ATOM     21  N   UNL     1      -0.079  11.421  17.995  0.00  0.00    +0.000 N 
ATOM     22  C   UNL     1      -1.298  10.774  18.396  0.00  0.00    +0.000 C 
ATOM     23  C   UNL     1      -1.820   9.860  17.275  0.00  0.00    +0.000 C 
ATOM     24  C   UNL     1      -3.328  10.072  17.271  0.00  0.00    +0.000 C 
ATOM     25  C   UNL     1      -3.481  11.532  17.666  0.00  0.00    +0.000 C 
ATOM     26  C   UNL     1      -2.430  11.735  18.752  0.00  0.00    +0.000 C 
ATOM     27  C   UNL     1      -0.769   9.982  19.601  0.00  0.00    +0.000 C 
ATOM     28  O   UNL     1      -1.444   9.241  20.326  0.00  0.00    +0.000 OA
ATOM     29  H   UNL     1       0.047  11.905  17.111  0.00  0.00    +0.000 HD
ENDBRANCH  17  18
ENDBRANCH   2  17
TORSDOF 4
ENDMDL
MODEL 2
REMARK VINA RESULT:      -8.1      1.828      2.555
REMARK  Name = 
REMARK  5 active torsions:
REMARK  status: ('A' for Active; 'I' for Inactive)
REMARK    1  A    between atoms: C_1  and  N_2
REMARK    2  A    between atoms: C_6  and  C_7
REMARK    3  A    between atoms: C_11  and  N_12
REMARK    4  A    between atoms: C_13  and  C_15
REMARK    5  A    between atoms: C_15  and  N_16
REMARK                            x       y       z     vdW  Elec       q    Type
REMARK                         _______ _______ _______ _____ _____    ______ ____
ROOT
ATOM      1  N   UNL     1       1.958   7.046  19.483  0.00  0.00    +0.000 N 
ATOM      2  C   UNL     1       1.771   8.359  19.042  0.00  0.00    +0.000 C 
ATOM      3  O   UNL     1       2.076   8.762  17.919  0.00  0.00    +0.000 OA
ATOM      4  H   UNL     1       1.718   6.821  20.442  0.00  0.00    +0.000 HD
ENDROOT
BRANCH   1   9
ATOM      5  C   UNL     1       4.473   4.867  17.779  0.00  0.00    +0.000 A 
ATOM      6  C   UNL     1       3.639   3.844  17.320  0.00  0.00    +0.000 A 
ATOM      7  C   UNL     1       2.270   3.914  17.465  0.00  0.00    +0.000 A 
ATOM      8  C   UNL     1       1.717   4.994  18.135  0.00  0.00    +0.000 A 
ATOM      9  C   UNL     1       2.512   6.009  18.684  0.00  0.00    +0.000 A 
ATOM     10  C   UNL     1       3.900   5.950  18.476  0.00  0.00    +0.000 A 
BRANCH   5  16
ATOM     11  C   UNL     1       6.124   5.028  15.084  0.00  0.00    +0.000 C 
ATOM     12  N   UNL     1       6.601   4.757  16.409  0.00  0.00    +0.000 N 
ATOM     13  N   UNL     1       7.904   4.517  16.621  0.00  0.00    +0.000 NA
ATOM     14  N   UNL     1       8.027   4.408  17.933  0.00  0.00    +0.000 NA
ATOM     15  N   UNL     1       6.816   4.573  18.559  0.00  0.00    +0.000 NA
ATOM     16  C   UNL     1       5.919   4.751  17.605  0.00  0.00    +0.000 A 
ENDBRANCH   5  16
ENDBRANCH   1   9
BRANCH   2  17
ATOM     17  C   UNL     1       1.206   9.356  20.065  0.00  0.00    +0.000 C 
BRANCH  17  18
ATOM     18  N   UNL     1       0.724  10.596  19.475  0.00  0.00    +0.000 N 
ATOM     19  C   UNL     1      -0.257  10.709  18.529  0.00  0.00    +0.000 C 
ATOM     20  O   UNL     1      -1.001   9.865  18.101  0.00  0.00    +0.000 OA
ATOM     21  N   UNL     1      -0.338  12.044  18.164  0.00  0.00    +0.000 N 
ATOM     22  C   UNL     1       0.252  12.891  19.165  0.00  0.00    +0.000 C 
ATOM     23  C   UNL     1      -0.838  13.570  20.010  0.00  0.00    +0.000 C 
ATOM     24  C   UNL     1      -0.343  14.996  20.209  0.00  0.00    +0.000 C 
ATOM     25  C   UNL     1       0.400  15.297  18.918  0.00  0.00    +0.000 C 
ATOM     26  C   UNL     1       1.138  14.000  18.604  0.00  0.00    +0.000 C 
ATOM     27  C   UNL     1       1.030  11.829  19.955  0.00  0.00    +0.000 C 
ATOM     28  O   UNL     1       1.735  12.046  20.948  0.00  0.00    +0.000 OA
ATOM     29  H   UNL     1      -1.085  12.333  17.540  0.00  0.00    +0.000 HD
ENDBRANCH  17  18
ENDBRANCH   2  17
TORSDOF 4
ENDMDL
MODEL 3
REMARK VINA RESULT:      -8.0      6.429      8.834
REMARK  Name = 
REMARK  5 active torsions:
REMARK  status: ('A' for Active; 'I' for Inactive)
REMARK    1  A    between atoms: C_1  and  N_2
REMARK    2  A    between atoms: C_6  and  C_7
REMARK    3  A    between atoms: C_11  and  N_12
REMARK    4  A    between atoms: C_13  and  C_15
REMARK    5  A    between atoms: C_15  and  N_16
REMARK                            x       y       z     vdW  Elec       q    Type
REMARK                         _______ _______ _______ _____ _____    ______ ____
ROOT
ATOM      1  N   UNL     1       8.056   9.134  17.419  0.00  0.00    +0.000 N 
ATOM      2  C   UNL     1       7.935   7.786  17.770  0.00  0.00    +0.000 C 
ATOM      3  O   UNL     1       8.369   7.302  18.816  0.00  0.00    +0.000 OA
ATOM      4  H   UNL     1       7.706   9.429  16.514  0.00  0.00    +0.000 HD
ENDROOT
BRANCH   1   9
ATOM      5  C   UNL     1       9.413  12.424  18.564  0.00  0.00    +0.000 A 
ATOM      6  C   UNL     1       9.695  12.121  19.898  0.00  0.00    +0.000 A 
ATOM      7  C   UNL     1       9.550  10.842  20.390  0.00  0.00    +0.000 A 
ATOM      8  C   UNL     1       9.057   9.851  19.557  0.00  0.00    +0.000 A 
ATOM      9  C   UNL     1       8.684  10.116  18.234  0.00  0.00    +0.000 A 
ATOM     10  C   UNL     1       8.892  11.411  17.733  0.00  0.00    +0.000 A 
BRANCH   5  16
ATOM     11  C   UNL     1      11.820  13.618  16.893  0.00  0.00    +0.000 C 
ATOM     12  N   UNL     1      10.672  14.300  17.417  0.00  0.00    +0.000 N 
ATOM     13  N   UNL     1      10.528  15.620  17.231  0.00  0.00    +0.000 NA
ATOM     14  N   UNL     1       9.342  15.914  17.738  0.00  0.00    +0.000 NA
ATOM     15  N   UNL     1       8.731  14.795  18.248  0.00  0.00    +0.000 NA
ATOM     16  C   UNL     1       9.578  13.795  18.084  0.00  0.00    +0.000 A 
ENDBRANCH   5  16
ENDBRANCH   1   9
BRANCH   2  17
ATOM     17  C   UNL     1       7.269   6.863  16.739  0.00  0.00    +0.000 C 
BRANCH  17  18
ATOM     18  N   UNL     1       6.391   5.861  17.325  0.00  0.00    +0.000 N 
ATOM     19  C   UNL     1       6.786   4.701  17.933  0.00  0.00    +0.000 C 
ATOM     20  O   UNL     1       7.895   4.338  18.230  0.00  0.00    +0.000 OA
ATOM     21  N   UNL     1       5.644   3.986  18.257  0.00  0.00    +0.000 N 
ATOM     22  C   UNL     1       4.489   4.842  18.289  0.00  0.00    +0.000 C 
ATOM     23  C   UNL     1       4.096   5.168  19.739  0.00  0.00    +0.000 C 
ATOM     24  C   UNL     1       2.575   5.101  19.754  0.00  0.00    +0.000 C 
ATOM     25  C   UNL     1       2.258   4.010  18.744  0.00  0.00    +0.000 C 
ATOM     26  C   UNL     1       3.254   4.252  17.613  0.00  0.00    +0.000 C 
ATOM     27  C   UNL     1       5.066   6.058  17.550  0.00  0.00    +0.000 C 
ATOM     28  O   UNL     1       4.454   7.103  17.299  0.00  0.00    +0.000 OA
ATOM     29  H   UNL     1       5.741   3.138  18.808  0.00  0.00    +0.000 HD
ENDBRANCH  17  18
ENDBRANCH   2  17
TORSDOF 4
ENDMDL
MODEL 4
REMARK VINA RESULT:      -8.0      1.766      2.346
REMARK  Name = 
REMARK  5 active torsions:
REMARK  status: ('A' for Active; 'I' for Inactive)
REMARK    1  A    between atoms: C_1  and  N_2
REMARK    2  A    between atoms: C_6  and  C_7
REMARK    3  A    between atoms: C_11  and  N_12
REMARK    4  A    between atoms: C_13  and  C_15
REMARK    5  A    between atoms: C_15  and  N_16
REMARK                            x       y       z     vdW  Elec       q    Type
REMARK                         _______ _______ _______ _____ _____    ______ ____
ROOT
ATOM      1  N   UNL     1       2.176   7.883  17.790  0.00  0.00    +0.000 N 
ATOM      2  C   UNL     1       1.803   8.733  18.834  0.00  0.00    +0.000 C 
ATOM      3  O   UNL     1       1.885   8.440  20.028  0.00  0.00    +0.000 OA
ATOM      4  H   UNL     1       2.027   8.197  16.837  0.00  0.00    +0.000 HD
ENDROOT
BRANCH   1   9
ATOM      5  C   UNL     1       4.644   5.093  18.103  0.00  0.00    +0.000 A 
ATOM      6  C   UNL     1       3.808   4.078  18.572  0.00  0.00    +0.000 A 
ATOM      7  C   UNL     1       2.446   4.263  18.682  0.00  0.00    +0.000 A 
ATOM      8  C   UNL     1       1.907   5.502  18.376  0.00  0.00    +0.000 A 
ATOM      9  C   UNL     1       2.709   6.578  17.976  0.00  0.00    +0.000 A 
ATOM     10  C   UNL     1       4.086   6.355  17.815  0.00  0.00    +0.000 A 
BRANCH   5  16
ATOM     11  C   UNL     1       6.319   4.363  15.519  0.00  0.00    +0.000 C 
ATOM     12  N   UNL     1       6.772   4.471  16.875  0.00  0.00    +0.000 N 
ATOM     13  N   UNL     1       8.057   4.236  17.178  0.00  0.00    +0.000 NA
ATOM     14  N   UNL     1       8.166   4.514  18.467  0.00  0.00    +0.000 NA
ATOM     15  N   UNL     1       6.962   4.921  18.988  0.00  0.00    +0.000 NA
ATOM     16  C   UNL     1       6.083   4.855  18.004  0.00  0.00    +0.000 A 
ENDBRANCH   5  16
ENDBRANCH   1   9
BRANCH   2  17
ATOM     17  C   UNL     1       1.197  10.088  18.438  0.00  0.00    +0.000 C 
BRANCH  17  18
ATOM     18  N   UNL     1       0.734  10.879  19.568  0.00  0.00    +0.000 N 
ATOM     19  C   UNL     1       1.306  12.032  20.032  0.00  0.00    +0.000 C 
ATOM     20  O   UNL     1       2.187  12.692  19.547  0.00  0.00    +0.000 OA
ATOM     21  N   UNL     1       0.624  12.407  21.180  0.00  0.00    +0.000 N 
ATOM     22  C   UNL     1      -0.671  11.784  21.239  0.00  0.00    +0.000 C 
ATOM     23  C   UNL     1      -1.772  12.787  20.856  0.00  0.00    +0.000 C 
ATOM     24  C   UNL     1      -2.907  12.510  21.832  0.00  0.00    +0.000 C 
ATOM     25  C   UNL     1      -2.186  12.097  23.105  0.00  0.00    +0.000 C 
ATOM     26  C   UNL     1      -1.035  11.226  22.613  0.00  0.00    +0.000 C 
ATOM     27  C   UNL     1      -0.468  10.698  20.173  0.00  0.00    +0.000 C 
ATOM     28  O   UNL     1      -1.312   9.859  19.833  0.00  0.00    +0.000 OA
ATOM     29  H   UNL     1       0.848  13.300  21.608  0.00  0.00    +0.000 HD
ENDBRANCH  17  18
ENDBRANCH   2  17
TORSDOF 4
ENDMDL
MODEL 5
REMARK VINA RESULT:      -7.9      2.730      8.560
REMARK  Name = 
REMARK  5 active torsions:
REMARK  status: ('A' for Active; 'I' for Inactive)
REMARK    1  A    between atoms: C_1  and  N_2
REMARK    2  A    between atoms: C_6  and  C_7
REMARK    3  A    between atoms: C_11  and  N_12
REMARK    4  A    between atoms: C_13  and  C_15
REMARK    5  A    between atoms: C_15  and  N_16
REMARK                            x       y       z     vdW  Elec       q    Type
REMARK                         _______ _______ _______ _____ _____    ______ ____
ROOT
ATOM      1  N   UNL     1       2.894   6.875  19.547  0.00  0.00    +0.000 N 
ATOM      2  C   UNL     1       2.537   5.574  19.912  0.00  0.00    +0.000 C 
ATOM      3  O   UNL     1       1.382   5.212  20.141  0.00  0.00    +0.000 OA
ATOM      4  H   UNL     1       3.878   7.088  19.424  0.00  0.00    +0.000 HD
ENDROOT
BRANCH   1   9
ATOM      5  C   UNL     1       0.515   9.640  20.367  0.00  0.00    +0.000 A 
ATOM      6  C   UNL     1       0.327  10.186  19.095  0.00  0.00    +0.000 A 
ATOM      7  C   UNL     1       0.876   9.601  17.975  0.00  0.00    +0.000 A 
ATOM      8  C   UNL     1       1.680   8.483  18.123  0.00  0.00    +0.000 A 
ATOM      9  C   UNL     1       1.966   7.940  19.381  0.00  0.00    +0.000 A 
ATOM     10  C   UNL     1       1.352   8.514  20.506  0.00  0.00    +0.000 A 
BRANCH   5  16
ATOM     11  C   UNL     1       0.359  12.740  20.984  0.00  0.00    +0.000 C 
ATOM     12  N   UNL     1      -0.074  11.644  21.802  0.00  0.00    +0.000 N 
ATOM     13  N   UNL     1      -0.616  11.874  23.007  0.00  0.00    +0.000 NA
ATOM     14  N   UNL     1      -0.993  10.686  23.450  0.00  0.00    +0.000 NA
ATOM     15  N   UNL     1      -0.693   9.701  22.540  0.00  0.00    +0.000 NA
ATOM     16  C   UNL     1      -0.083  10.294  21.529  0.00  0.00    +0.000 A 
ENDBRANCH   5  16
ENDBRANCH   1   9
BRANCH   2  17
ATOM     17  C   UNL     1       3.684   4.570  20.092  0.00  0.00    +0.000 C 
BRANCH  17  18
ATOM     18  N   UNL     1       4.304   4.153  18.843  0.00  0.00    +0.000 N 
ATOM     19  C   UNL     1       4.010   3.018  18.138  0.00  0.00    +0.000 C 
ATOM     20  O   UNL     1       3.120   2.226  18.310  0.00  0.00    +0.000 OA
ATOM     21  N   UNL     1       4.893   2.944  17.071  0.00  0.00    +0.000 N 
ATOM     22  C   UNL     1       5.471   4.230  16.789  0.00  0.00    +0.000 C 
ATOM     23  C   UNL     1       4.809   4.862  15.554  0.00  0.00    +0.000 C 
ATOM     24  C   UNL     1       5.955   5.499  14.780  0.00  0.00    +0.000 C 
ATOM     25  C   UNL     1       7.125   4.565  15.049  0.00  0.00    +0.000 C 
ATOM     26  C   UNL     1       6.974   4.196  16.521  0.00  0.00    +0.000 C 
ATOM     27  C   UNL     1       5.099   4.956  18.090  0.00  0.00    +0.000 C 
ATOM     28  O   UNL     1       5.380   6.129  18.364  0.00  0.00    +0.000 OA
ATOM     29  H   UNL     1       4.758   2.215  16.379  0.00  0.00    +0.000 HD
ENDBRANCH  17  18
ENDBRANCH   2  17
TORSDOF 4
ENDMDL
MODEL 6
REMARK VINA RESULT:      -7.9      1.271      1.378
REMARK  Name = 
REMARK  5 active torsions:
REMARK  status: ('A' for Active; 'I' for Inactive)
REMARK    1  A    between atoms: C_1  and  N_2
REMARK    2  A    between atoms: C_6  and  C_7
REMARK    3  A    between atoms: C_11  and  N_12
REMARK    4  A    between atoms: C_13  and  C_15
REMARK    5  A    between atoms: C_15  and  N_16
REMARK                            x       y       z     vdW  Elec       q    Type
REMARK                         _______ _______ _______ _____ _____    ______ ____
ROOT
ATOM      1  N   UNL     1       2.017   7.961  19.201  0.00  0.00    +0.000 N 
ATOM      2  C   UNL     1       1.737   9.147  18.516  0.00  0.00    +0.000 C 
ATOM      3  O   UNL     1       1.870   9.291  17.300  0.00  0.00    +0.000 OA
ATOM      4  H   UNL     1       1.920   7.954  20.211  0.00  0.00    +0.000 HD
ENDROOT
BRANCH   1   9
ATOM      5  C   UNL     1       4.332   5.332  17.896  0.00  0.00    +0.000 A 
ATOM      6  C   UNL     1       3.410   4.333  17.574  0.00  0.00    +0.000 A 
ATOM      7  C   UNL     1       2.053   4.548  17.676  0.00  0.00    +0.000 A 
ATOM      8  C   UNL     1       1.597   5.762  18.166  0.00  0.00    +0.000 A 
ATOM      9  C   UNL     1       2.478   6.770  18.577  0.00  0.00    +0.000 A 
ATOM     10  C   UNL     1       3.856   6.554  18.412  0.00  0.00    +0.000 A 
BRANCH   5  16
ATOM     11  C   UNL     1       6.077   5.254  15.257  0.00  0.00    +0.000 C 
ATOM     12  N   UNL     1       6.480   4.965  16.603  0.00  0.00    +0.000 N 
ATOM     13  N   UNL     1       7.742   4.594  16.865  0.00  0.00    +0.000 NA
ATOM     14  N   UNL     1       7.811   4.504  18.183  0.00  0.00    +0.000 NA
ATOM     15  N   UNL     1       6.604   4.811  18.763  0.00  0.00    +0.000 NA
ATOM     16  C   UNL     1       5.763   5.060  17.776  0.00  0.00    +0.000 A 
ENDBRANCH   5  16
ENDBRANCH   1   9
BRANCH   2  17
ATOM     17  C   UNL     1       1.297  10.347  19.367  0.00  0.00    +0.000 C 
BRANCH  17  18
ATOM     18  N   UNL     1       0.160  11.072  18.818  0.00  0.00    +0.000 N 
ATOM     19  C   UNL     1       0.199  12.308  18.233  0.00  0.00    +0.000 C 
ATOM     20  O   UNL     1       1.154  12.973  17.927  0.00  0.00    +0.000 OA
ATOM     21  N   UNL     1      -1.105  12.678  17.944  0.00  0.00    +0.000 N 
ATOM     22  C   UNL     1      -1.973  11.533  17.911  0.00  0.00    +0.000 C 
ATOM     23  C   UNL     1      -2.291  11.136  16.460  0.00  0.00    +0.000 C 
ATOM     24  C   UNL     1      -3.770  10.773  16.471  0.00  0.00    +0.000 C 
ATOM     25  C   UNL     1      -4.357  11.711  17.513  0.00  0.00    +0.000 C 
ATOM     26  C   UNL     1      -3.309  11.739  18.620  0.00  0.00    +0.000 C 
ATOM     27  C   UNL     1      -1.061  10.515  18.611  0.00  0.00    +0.000 C 
ATOM     28  O   UNL     1      -1.349   9.335  18.846  0.00  0.00    +0.000 OA
ATOM     29  H   UNL     1      -1.262  13.529  17.413  0.00  0.00    +0.000 HD
ENDBRANCH  17  18
ENDBRANCH   2  17
TORSDOF 4
ENDMDL
MODEL 7
REMARK VINA RESULT:      -7.9      0.767      1.292
REMARK  Name = 
REMARK  5 active torsions:
REMARK  status: ('A' for Active; 'I' for Inactive)
REMARK    1  A    between atoms: C_1  and  N_2
REMARK    2  A    between atoms: C_6  and  C_7
REMARK    3  A    between atoms: C_11  and  N_12
REMARK    4  A    between atoms: C_13  and  C_15
REMARK    5  A    between atoms: C_15  and  N_16
REMARK                            x       y       z     vdW  Elec       q    Type
REMARK                         _______ _______ _______ _____ _____    ______ ____
ROOT
ATOM      1  N   UNL     1       2.595   7.588  18.864  0.00  0.00    +0.000 N 
ATOM      2  C   UNL     1       1.937   7.706  20.092  0.00  0.00    +0.000 C 
ATOM      3  O   UNL     1       1.532   6.749  20.754  0.00  0.00    +0.000 OA
ATOM      4  H   UNL     1       2.851   8.437  18.371  0.00  0.00    +0.000 HD
ENDROOT
BRANCH   1   9
ATOM      5  C   UNL     1       4.363   4.998  16.829  0.00  0.00    +0.000 A 
ATOM      6  C   UNL     1       3.623   3.866  17.177  0.00  0.00    +0.000 A 
ATOM      7  C   UNL     1       2.501   3.958  17.973  0.00  0.00    +0.000 A 
ATOM      8  C   UNL     1       2.138   5.193  18.486  0.00  0.00    +0.000 A 
ATOM      9  C   UNL     1       2.889   6.348  18.233  0.00  0.00    +0.000 A 
ATOM     10  C   UNL     1       3.995   6.245  17.374  0.00  0.00    +0.000 A 
BRANCH   5  16
ATOM     11  C   UNL     1       7.382   4.747  17.744  0.00  0.00    +0.000 C 
ATOM     12  N   UNL     1       6.856   4.817  16.412  0.00  0.00    +0.000 N 
ATOM     13  N   UNL     1       7.684   4.791  15.357  0.00  0.00    +0.000 NA
ATOM     14  N   UNL     1       6.894   4.770  14.296  0.00  0.00    +0.000 NA
ATOM     15  N   UNL     1       5.571   4.784  14.665  0.00  0.00    +0.000 NA
ATOM     16  C   UNL     1       5.547   4.855  15.984  0.00  0.00    +0.000 A 
ENDBRANCH   5  16
ENDBRANCH   1   9
BRANCH   2  17
ATOM     17  C   UNL     1       1.661   9.131  20.592  0.00  0.00    +0.000 C 
BRANCH  17  18
ATOM     18  N   UNL     1       0.809   9.911  19.707  0.00  0.00    +0.000 N 
ATOM     19  C   UNL     1       1.206  10.557  18.568  0.00  0.00    +0.000 C 
ATOM     20  O   UNL     1       2.264  10.507  17.998  0.00  0.00    +0.000 OA
ATOM     21  N   UNL     1       0.116  11.263  18.083  0.00  0.00    +0.000 N 
ATOM     22  C   UNL     1      -1.115  10.744  18.615  0.00  0.00    +0.000 C 
ATOM     23  C   UNL     1      -1.837   9.881  17.567  0.00  0.00    +0.000 C 
ATOM     24  C   UNL     1      -3.308  10.245  17.711  0.00  0.00    +0.000 C 
ATOM     25  C   UNL     1      -3.274  11.715  18.095  0.00  0.00    +0.000 C 
ATOM     26  C   UNL     1      -2.102  11.818  19.066  0.00  0.00    +0.000 C 
ATOM     27  C   UNL     1      -0.548   9.910  19.773  0.00  0.00    +0.000 C 
ATOM     28  O   UNL     1      -1.216   9.246  20.574  0.00  0.00    +0.000 OA
ATOM     29  H   UNL     1       0.199  11.725  17.183  0.00  0.00    +0.000 HD
ENDBRANCH  17  18
ENDBRANCH   2  17
TORSDOF 4
ENDMDL
MODEL 8
REMARK VINA RESULT:      -7.9      6.516      8.824
REMARK  Name = 
REMARK  5 active torsions:
REMARK  status: ('A' for Active; 'I' for Inactive)
REMARK    1  A    between atoms: C_1  and  N_2
REMARK    2  A    between atoms: C_6  and  C_7
REMARK    3  A    between atoms: C_11  and  N_12
REMARK    4  A    between atoms: C_13  and  C_15
REMARK    5  A    between atoms: C_15  and  N_16
REMARK                            x       y       z     vdW  Elec       q    Type
REMARK                         _______ _______ _______ _____ _____    ______ ____
ROOT
ATOM      1  N   UNL     1       8.235   9.147  17.501  0.00  0.00    +0.000 N 
ATOM      2  C   UNL     1       7.993   7.806  17.810  0.00  0.00    +0.000 C 
ATOM      3  O   UNL     1       8.370   7.256  18.846  0.00  0.00    +0.000 OA
ATOM      4  H   UNL     1       7.924   9.497  16.601  0.00  0.00    +0.000 HD
ENDROOT
BRANCH   1   9
ATOM      5  C   UNL     1      10.234  12.097  18.631  0.00  0.00    +0.000 A 
ATOM      6  C   UNL     1      10.112  11.958  20.016  0.00  0.00    +0.000 A 
ATOM      7  C   UNL     1       9.485  10.866  20.576  0.00  0.00    +0.000 A 
ATOM      8  C   UNL     1       8.911   9.918  19.744  0.00  0.00    +0.000 A 
ATOM      9  C   UNL     1       8.935  10.047  18.350  0.00  0.00    +0.000 A 
ATOM     10  C   UNL     1       9.628  11.136  17.797  0.00  0.00    +0.000 A 
BRANCH   5  16
ATOM     11  C   UNL     1       9.009  14.970  18.117  0.00  0.00    +0.000 C 
ATOM     12  N   UNL     1      10.324  14.491  17.804  0.00  0.00    +0.000 N 
ATOM     13  N   UNL     1      11.211  15.297  17.202  0.00  0.00    +0.000 NA
ATOM     14  N   UNL     1      12.333  14.599  17.148  0.00  0.00    +0.000 NA
ATOM     15  N   UNL     1      12.170  13.355  17.706  0.00  0.00    +0.000 NA
ATOM     16  C   UNL     1      10.905  13.272  18.080  0.00  0.00    +0.000 A 
ENDBRANCH   5  16
ENDBRANCH   1   9
BRANCH   2  17
ATOM     17  C   UNL     1       7.264   6.973  16.745  0.00  0.00    +0.000 C 
BRANCH  17  18
ATOM     18  N   UNL     1       6.373   5.963  17.296  0.00  0.00    +0.000 N 
ATOM     19  C   UNL     1       6.749   4.756  17.818  0.00  0.00    +0.000 C 
ATOM     20  O   UNL     1       7.853   4.343  18.057  0.00  0.00    +0.000 OA
ATOM     21  N   UNL     1       5.594   4.056  18.134  0.00  0.00    +0.000 N 
ATOM     22  C   UNL     1       4.468   4.942  18.254  0.00  0.00    +0.000 C 
ATOM     23  C   UNL     1       4.129   5.188  19.733  0.00  0.00    +0.000 C 
ATOM     24  C   UNL     1       2.607   5.165  19.792  0.00  0.00    +0.000 C 
ATOM     25  C   UNL     1       2.227   4.150  18.727  0.00  0.00    +0.000 C 
ATOM     26  C   UNL     1       3.196   4.432  17.583  0.00  0.00    +0.000 C 
ATOM     27  C   UNL     1       5.062   6.185  17.574  0.00  0.00    +0.000 C 
ATOM     28  O   UNL     1       4.476   7.261  17.408  0.00  0.00    +0.000 OA
ATOM     29  H   UNL     1       5.681   3.173  18.627  0.00  0.00    +0.000 HD
ENDBRANCH  17  18
ENDBRANCH   2  17
TORSDOF 4
ENDMDL
MODEL 9
REMARK VINA RESULT:      -7.9      1.568      1.718
REMARK  Name = 
REMARK  5 active torsions:
REMARK  status: ('A' for Active; 'I' for Inactive)
REMARK    1  A    between atoms: C_1  and  N_2
REMARK    2  A    between atoms: C_6  and  C_7
REMARK    3  A    between atoms: C_11  and  N_12
REMARK    4  A    between atoms: C_13  and  C_15
REMARK    5  A    between atoms: C_15  and  N_16
REMARK                            x       y       z     vdW  Elec       q    Type
REMARK                         _______ _______ _______ _____ _____    ______ ____
ROOT
ATOM      1  N   UNL     1       1.935   8.105  19.196  0.00  0.00    +0.000 N 
ATOM      2  C   UNL     1       1.472   9.270  18.578  0.00  0.00    +0.000 C 
ATOM      3  O   UNL     1       1.528   9.478  17.365  0.00  0.00    +0.000 OA
ATOM      4  H   UNL     1       1.887   8.046  20.208  0.00  0.00    +0.000 HD
ENDROOT
BRANCH   1   9
ATOM      5  C   UNL     1       4.411   6.048  17.296  0.00  0.00    +0.000 A 
ATOM      6  C   UNL     1       3.778   4.803  17.339  0.00  0.00    +0.000 A 
ATOM      7  C   UNL     1       2.519   4.655  17.879  0.00  0.00    +0.000 A 
ATOM      8  C   UNL     1       1.895   5.756  18.446  0.00  0.00    +0.000 A 
ATOM      9  C   UNL     1       2.516   7.010  18.500  0.00  0.00    +0.000 A 
ATOM     10  C   UNL     1       3.774   7.154  17.893  0.00  0.00    +0.000 A 
BRANCH   5  16
ATOM     11  C   UNL     1       5.576   4.495  14.797  0.00  0.00    +0.000 C 
ATOM     12  N   UNL     1       6.247   5.417  15.667  0.00  0.00    +0.000 N 
ATOM     13  N   UNL     1       7.542   5.706  15.475  0.00  0.00    +0.000 NA
ATOM     14  N   UNL     1       7.824   6.644  16.365  0.00  0.00    +0.000 NA
ATOM     15  N   UNL     1       6.721   6.953  17.123  0.00  0.00    +0.000 NA
ATOM     16  C   UNL     1       5.747   6.159  16.715  0.00  0.00    +0.000 A 
ENDBRANCH   5  16
ENDBRANCH   1   9
BRANCH   2  17
ATOM     17  C   UNL     1       0.922  10.368  19.499  0.00  0.00    +0.000 C 
BRANCH  17  18
ATOM     18  N   UNL     1      -0.197  11.106  18.932  0.00  0.00    +0.000 N 
ATOM     19  C   UNL     1      -0.146  12.369  18.409  0.00  0.00    +0.000 C 
ATOM     20  O   UNL     1       0.813  13.059  18.182  0.00  0.00    +0.000 OA
ATOM     21  N   UNL     1      -1.440  12.739  18.076  0.00  0.00    +0.000 N 
ATOM     22  C   UNL     1      -2.290  11.587  17.945  0.00  0.00    +0.000 C 
ATOM     23  C   UNL     1      -2.533  11.258  16.463  0.00  0.00    +0.000 C 
ATOM     24  C   UNL     1      -4.006  10.879  16.385  0.00  0.00    +0.000 C 
ATOM     25  C   UNL     1      -4.655  11.759  17.441  0.00  0.00    +0.000 C 
ATOM     26  C   UNL     1      -3.662  11.744  18.598  0.00  0.00    +0.000 C 
ATOM     27  C   UNL     1      -1.399  10.546  18.639  0.00  0.00    +0.000 C 
ATOM     28  O   UNL     1      -1.683   9.353  18.803  0.00  0.00    +0.000 OA
ATOM     29  H   UNL     1      -1.583  13.613  17.579  0.00  0.00    +0.000 HD
ENDBRANCH  17  18
ENDBRANCH   2  17
TORSDOF 4
ENDMDL
