MODEL 1
REMARK VINA RESULT:      -8.3      0.000      0.000
REMARK  Name = 
REMARK  5 active torsions:
REMARK  status: ('A' for Active; 'I' for Inactive)
REMARK    1  A    between atoms: C_2  and  C_17
REMARK    2  A    between atoms: N_3  and  C_4
REMARK    3  A    between atoms: C_4  and  C_5
REMARK    4  A    between atoms: C_5  and  C_6
REMARK    5  A    between atoms: C_6  and  C_7
REMARK                            x       y       z     vdW  Elec       q    Type
REMARK                         _______ _______ _______ _____ _____    ______ ____
ROOT
ATOM      1  O   UNL     1       2.508   5.802  20.234  0.00  0.00    +0.000 OA
ATOM      2  C   UNL     1       2.872   6.616  19.393  0.00  0.00    +0.000 C 
ATOM      3  N   UNL     1       3.996   6.500  18.616  0.00  0.00    +0.000 N 
ATOM      4  H   UNL     1       4.329   7.322  18.135  0.00  0.00    +0.000 HD
ENDROOT
BRANCH   2   5
ATOM      5  C   UNL     1       2.098   7.861  19.215  0.00  0.00    +0.000 A 
ATOM      6  C   UNL     1       1.783   8.421  17.977  0.00  0.00    +0.000 A 
ATOM      7  C   UNL     1       1.051   9.604  17.940  0.00  0.00    +0.000 A 
ATOM      8  N   UNL     1       0.604  10.290  19.017  0.00  0.00    +0.000 NA
ATOM      9  C   UNL     1       0.900   9.721  20.207  0.00  0.00    +0.000 A 
ATOM     10  N   UNL     1       0.577  10.184  21.451  0.00  0.00    +0.000 NA
ATOM     11  N   UNL     1       1.059   9.325  22.348  0.00  0.00    +0.000 NA
ATOM     12  N   UNL     1       1.668   8.336  21.670  0.00  0.00    +0.000 N 
ATOM     13  C   UNL     1       1.615   8.543  20.324  0.00  0.00    +0.000 A 
ATOM     14  H   UNL     1       2.090   7.561  22.174  0.00  0.00    +0.000 HD
ENDBRANCH   2   5
BRANCH   3  15
ATOM     15  C   UNL     1       4.895   5.358  18.674  0.00  0.00    +0.000 C 
BRANCH  15  16
ATOM     16  C   UNL     1       5.180   4.769  17.272  0.00  0.00    +0.000 C 
ATOM     17  C   UNL     1       6.699   4.505  17.110  0.00  0.00    +0.000 C 
ATOM     18  C   UNL     1       7.041   4.748  15.640  0.00  0.00    +0.000 C 
ATOM     19  C   UNL     1       5.816   5.401  15.011  0.00  0.00    +0.000 C 
ATOM     20  C   UNL     1       4.949   5.838  16.185  0.00  0.00    +0.000 C 
BRANCH  16  21
ATOM     21  C   UNL     1       4.380   3.450  17.003  0.00  0.00    +0.000 C 
BRANCH  21  22
ATOM     22  C   UNL     1       3.279   3.116  17.991  0.00  0.00    +0.000 A 
ATOM     23  C   UNL     1       1.940   3.388  17.682  0.00  0.00    +0.000 A 
ATOM     24  C   UNL     1       0.925   3.132  18.611  0.00  0.00    +0.000 A 
ATOM     25  C   UNL     1       1.237   2.596  19.858  0.00  0.00    +0.000 A 
ATOM     26  C   UNL     1       2.557   2.287  20.166  0.00  0.00    +0.000 A 
ATOM     27  C   UNL     1       3.568   2.531  19.233  0.00  0.00    +0.000 A 
ENDBRANCH  21  22
ENDBRANCH  16  21
ENDBRANCH  15  16
ENDBRANCH   3  15
TORSDOF 5
ENDMDL
MODEL 2
REMARK VINA RESULT:      -8.2      1.604      4.281
REMARK  Name = 
REMARK  5 active torsions:
REMARK  status: ('A' for Active; 'I' for Inactive)
REMARK    1  A    between atoms: C_2  and  C_17
REMARK    2  A    between atoms: N_3  and  C_4
REMARK    3  A    between atoms: C_4  and  C_5
REMARK    4  A    between atoms: C_5  and  C_6
REMARK    5  A    between atoms: C_6  and  C_7
REMARK                            x       y       z     vdW  Elec       q    Type
REMARK                         _______ _______ _______ _____ _____    ______ ____
ROOT
ATOM      1  O   UNL     1       2.094   8.787  17.941  0.00  0.00    +0.000 OA
ATOM      2  C   UNL     1       1.869   8.371  19.071  0.00  0.00    +0.000 C 
ATOM      3  N   UNL     1       2.274   7.155  19.560  0.00  0.00    +0.000 N 
ATOM      4  H   UNL     1       1.842   6.814  20.406  0.00  0.00    +0.000 HD
ENDROOT
BRANCH   2   5
ATOM      5  C   UNL     1       1.051   9.187  19.989  0.00  0.00    +0.000 A 
ATOM      6  C   UNL     1       1.067   9.064  21.379  0.00  0.00    +0.000 A 
ATOM      7  C   UNL     1       0.244   9.890  22.138  0.00  0.00    +0.000 A 
ATOM      8  N   UNL     1      -0.601  10.827  21.650  0.00  0.00    +0.000 NA
ATOM      9  C   UNL     1      -0.586  10.948  20.303  0.00  0.00    +0.000 A 
ATOM     10  N   UNL     1      -1.325  11.807  19.540  0.00  0.00    +0.000 NA
ATOM     11  N   UNL     1      -1.009  11.599  18.262  0.00  0.00    +0.000 NA
ATOM     12  N   UNL     1      -0.079  10.628  18.233  0.00  0.00    +0.000 N 
ATOM     13  C   UNL     1       0.210  10.171  19.484  0.00  0.00    +0.000 A 
ATOM     14  H   UNL     1       0.315  10.330  17.344  0.00  0.00    +0.000 HD
ENDBRANCH   2   5
BRANCH   3  15
ATOM     15  C   UNL     1       3.062   6.204  18.791  0.00  0.00    +0.000 C 
BRANCH  15  16
ATOM     16  C   UNL     1       2.757   4.740  19.186  0.00  0.00    +0.000 C 
ATOM     17  C   UNL     1       1.683   4.151  18.237  0.00  0.00    +0.000 C 
ATOM     18  C   UNL     1       0.847   3.171  19.061  0.00  0.00    +0.000 C 
ATOM     19  C   UNL     1       1.242   3.381  20.518  0.00  0.00    +0.000 C 
ATOM     20  C   UNL     1       2.014   4.694  20.537  0.00  0.00    +0.000 C 
BRANCH  16  21
ATOM     21  C   UNL     1       4.036   3.836  19.167  0.00  0.00    +0.000 C 
BRANCH  21  22
ATOM     22  C   UNL     1       5.045   4.118  18.071  0.00  0.00    +0.000 A 
ATOM     23  C   UNL     1       4.745   3.823  16.735  0.00  0.00    +0.000 A 
ATOM     24  C   UNL     1       5.691   4.031  15.725  0.00  0.00    +0.000 A 
ATOM     25  C   UNL     1       6.948   4.542  16.040  0.00  0.00    +0.000 A 
ATOM     26  C   UNL     1       7.249   4.873  17.356  0.00  0.00    +0.000 A 
ATOM     27  C   UNL     1       6.299   4.677  18.361  0.00  0.00    +0.000 A 
ENDBRANCH  21  22
ENDBRANCH  16  21
ENDBRANCH  15  16
ENDBRANCH   3  15
TORSDOF 5
ENDMDL
MODEL 3
REMARK VINA RESULT:      -8.2      1.546      4.010
REMARK  Name = 
REMARK  5 active torsions:
REMARK  status: ('A' for Active; 'I' for Inactive)
REMARK    1  A    between atoms: C_2  and  C_17
REMARK    2  A    between atoms: N_3  and  C_4
REMARK    3  A    between atoms: C_4  and  C_5
REMARK    4  A    between atoms: C_5  and  C_6
REMARK    5  A    between atoms: C_6  and  C_7
REMARK                            x       y       z     vdW  Elec       q    Type
REMARK                         _______ _______ _______ _____ _____    ______ ____
ROOT
ATOM      1  O   UNL     1       2.217   8.846  17.449  0.00  0.00    +0.000 OA
ATOM      2  C   UNL     1       1.858   8.554  18.584  0.00  0.00    +0.000 C 
ATOM      3  N   UNL     1       2.222   7.417  19.259  0.00  0.00    +0.000 N 
ATOM      4  H   UNL     1       1.692   7.159  20.078  0.00  0.00    +0.000 HD
ENDROOT
BRANCH   2   5
ATOM      5  C   UNL     1       0.911   9.439  19.290  0.00  0.00    +0.000 A 
ATOM      6  C   UNL     1      -0.057  10.221  18.658  0.00  0.00    +0.000 A 
ATOM      7  C   UNL     1      -0.889  11.021  19.434  0.00  0.00    +0.000 A 
ATOM      8  N   UNL     1      -0.851  11.125  20.782  0.00  0.00    +0.000 NA
ATOM      9  C   UNL     1       0.078  10.344  21.379  0.00  0.00    +0.000 A 
ATOM     10  N   UNL     1       0.339  10.240  22.717  0.00  0.00    +0.000 NA
ATOM     11  N   UNL     1       1.329   9.363  22.876  0.00  0.00    +0.000 NA
ATOM     12  N   UNL     1       1.673   8.921  21.653  0.00  0.00    +0.000 N 
ATOM     13  C   UNL     1       0.933   9.517  20.676  0.00  0.00    +0.000 A 
ATOM     14  H   UNL     1       2.405   8.223  21.555  0.00  0.00    +0.000 HD
ENDBRANCH   2   5
BRANCH   3  15
ATOM     15  C   UNL     1       3.123   6.414  18.712  0.00  0.00    +0.000 C 
BRANCH  15  16
ATOM     16  C   UNL     1       2.821   4.999  19.260  0.00  0.00    +0.000 C 
ATOM     17  C   UNL     1       1.738   4.315  18.388  0.00  0.00    +0.000 C 
ATOM     18  C   UNL     1       0.910   3.427  19.317  0.00  0.00    +0.000 C 
ATOM     19  C   UNL     1       1.318   3.788  20.740  0.00  0.00    +0.000 C 
ATOM     20  C   UNL     1       2.091   5.094  20.615  0.00  0.00    +0.000 C 
BRANCH  16  21
ATOM     21  C   UNL     1       4.100   4.097  19.324  0.00  0.00    +0.000 C 
BRANCH  21  22
ATOM     22  C   UNL     1       5.077   4.230  18.173  0.00  0.00    +0.000 A 
ATOM     23  C   UNL     1       6.335   4.813  18.371  0.00  0.00    +0.000 A 
ATOM     24  C   UNL     1       7.220   4.988  17.301  0.00  0.00    +0.000 A 
ATOM     25  C   UNL     1       6.860   4.575  16.021  0.00  0.00    +0.000 A 
ATOM     26  C   UNL     1       5.629   3.962  15.814  0.00  0.00    +0.000 A 
ATOM     27  C   UNL     1       4.751   3.777  16.885  0.00  0.00    +0.000 A 
ENDBRANCH  21  22
ENDBRANCH  16  21
ENDBRANCH  15  16
ENDBRANCH   3  15
TORSDOF 5
ENDMDL
MODEL 4
REMARK VINA RESULT:      -8.1      1.237      3.654
REMARK  Name = 
REMARK  5 active torsions:
REMARK  status: ('A' for Active; 'I' for Inactive)
REMARK    1  A    between atoms: C_2  and  C_17
REMARK    2  A    between atoms: N_3  and  C_4
REMARK    3  A    between atoms: C_4  and  C_5
REMARK    4  A    between atoms: C_5  and  C_6
REMARK    5  A    between atoms: C_6  and  C_7
REMARK                            x       y       z     vdW  Elec       q    Type
REMARK                         _______ _______ _______ _____ _____    ______ ____
ROOT
ATOM      1  O   UNL     1       1.151   6.398  21.150  0.00  0.00    +0.000 OA
ATOM      2  C   UNL     1       1.851   7.015  20.357  0.00  0.00    +0.000 C 
ATOM      3  N   UNL     1       2.985   6.527  19.757  0.00  0.00    +0.000 N 
ATOM      4  H   UNL     1       3.609   7.184  19.314  0.00  0.00    +0.000 HD
ENDROOT
BRANCH   2   5
ATOM      5  C   UNL     1       1.516   8.418  20.040  0.00  0.00    +0.000 A 
ATOM      6  C   UNL     1       1.625   8.986  18.771  0.00  0.00    +0.000 A 
ATOM      7  C   UNL     1       1.282  10.324  18.600  0.00  0.00    +0.000 A 
ATOM      8  N   UNL     1       0.846  11.157  19.572  0.00  0.00    +0.000 NA
ATOM      9  C   UNL     1       0.726  10.584  20.791  0.00  0.00    +0.000 A 
ATOM     10  N   UNL     1       0.309  11.177  21.949  0.00  0.00    +0.000 NA
ATOM     11  N   UNL     1       0.340  10.259  22.915  0.00  0.00    +0.000 NA
ATOM     12  N   UNL     1       0.763   9.108  22.362  0.00  0.00    +0.000 N 
ATOM     13  C   UNL     1       1.038   9.260  21.036  0.00  0.00    +0.000 A 
ATOM     14  H   UNL     1       0.838   8.270  22.933  0.00  0.00    +0.000 HD
ENDBRANCH   2   5
BRANCH   3  15
ATOM     15  C   UNL     1       3.486   5.178  19.971  0.00  0.00    +0.000 C 
BRANCH  15  16
ATOM     16  C   UNL     1       3.160   4.240  18.785  0.00  0.00    +0.000 C 
ATOM     17  C   UNL     1       1.733   3.659  18.949  0.00  0.00    +0.000 C 
ATOM     18  C   UNL     1       1.753   2.248  18.361  0.00  0.00    +0.000 C 
ATOM     19  C   UNL     1       3.215   1.904  18.107  0.00  0.00    +0.000 C 
ATOM     20  C   UNL     1       4.011   2.956  18.869  0.00  0.00    +0.000 C 
BRANCH  16  21
ATOM     21  C   UNL     1       3.285   4.959  17.400  0.00  0.00    +0.000 C 
BRANCH  21  22
ATOM     22  C   UNL     1       4.669   4.994  16.781  0.00  0.00    +0.000 A 
ATOM     23  C   UNL     1       5.006   4.117  15.741  0.00  0.00    +0.000 A 
ATOM     24  C   UNL     1       6.298   4.107  15.203  0.00  0.00    +0.000 A 
ATOM     25  C   UNL     1       7.267   4.979  15.694  0.00  0.00    +0.000 A 
ATOM     26  C   UNL     1       6.938   5.880  16.701  0.00  0.00    +0.000 A 
ATOM     27  C   UNL     1       5.645   5.897  17.229  0.00  0.00    +0.000 A 
ENDBRANCH  21  22
ENDBRANCH  16  21
ENDBRANCH  15  16
ENDBRANCH   3  15
TORSDOF 5
ENDMDL
MODEL 5
REMARK VINA RESULT:      -8.1      1.551      4.298
REMARK  Name = 
REMARK  5 active torsions:
REMARK  status: ('A' for Active; 'I' for Inactive)
REMARK    1  A    between atoms: C_2  and  C_17
REMARK    2  A    between atoms: N_3  and  C_4
REMARK    3  A    between atoms: C_4  and  C_5
REMARK    4  A    between atoms: C_5  and  C_6
REMARK    5  A    between atoms: C_6  and  C_7
REMARK                            x       y       z     vdW  Elec       q    Type
REMARK                         _______ _______ _______ _____ _____    ______ ____
ROOT
ATOM      1  O   UNL     1       1.799   8.689  17.772  0.00  0.00    +0.000 OA
ATOM      2  C   UNL     1       1.845   8.303  18.934  0.00  0.00    +0.000 C 
ATOM      3  N   UNL     1       2.342   7.092  19.345  0.00  0.00    +0.000 N 
ATOM      4  H   UNL     1       2.119   6.778  20.278  0.00  0.00    +0.000 HD
ENDROOT
BRANCH   2   5
ATOM      5  C   UNL     1       1.276   9.153  19.998  0.00  0.00    +0.000 A 
ATOM      6  C   UNL     1       1.137   8.761  21.329  0.00  0.00    +0.000 A 
ATOM      7  C   UNL     1       0.579   9.654  22.240  0.00  0.00    +0.000 A 
ATOM      8  N   UNL     1       0.140  10.901  21.956  0.00  0.00    +0.000 NA
ATOM      9  C   UNL     1       0.304  11.272  20.665  0.00  0.00    +0.000 A 
ATOM     10  N   UNL     1      -0.041  12.465  20.096  0.00  0.00    +0.000 NA
ATOM     11  N   UNL     1       0.290  12.416  18.806  0.00  0.00    +0.000 NA
ATOM     12  N   UNL     1       0.840  11.210  18.579  0.00  0.00    +0.000 N 
ATOM     13  C   UNL     1       0.857  10.445  19.706  0.00  0.00    +0.000 A 
ATOM     14  H   UNL     1       1.182  10.977  17.650  0.00  0.00    +0.000 HD
ENDBRANCH   2   5
BRANCH   3  15
ATOM     15  C   UNL     1       2.915   6.111  18.437  0.00  0.00    +0.000 C 
BRANCH  15  16
ATOM     16  C   UNL     1       2.657   4.660  18.907  0.00  0.00    +0.000 C 
ATOM     17  C   UNL     1       1.688   3.953  17.926  0.00  0.00    +0.000 C 
ATOM     18  C   UNL     1       0.844   2.983  18.752  0.00  0.00    +0.000 C 
ATOM     19  C   UNL     1       1.117   3.306  20.216  0.00  0.00    +0.000 C 
ATOM     20  C   UNL     1       1.818   4.658  20.202  0.00  0.00    +0.000 C 
BRANCH  16  21
ATOM     21  C   UNL     1       3.978   3.829  19.041  0.00  0.00    +0.000 C 
BRANCH  21  22
ATOM     22  C   UNL     1       5.036   4.072  17.982  0.00  0.00    +0.000 A 
ATOM     23  C   UNL     1       6.260   4.664  18.321  0.00  0.00    +0.000 A 
ATOM     24  C   UNL     1       7.219   4.939  17.340  0.00  0.00    +0.000 A 
ATOM     25  C   UNL     1       6.968   4.620  16.008  0.00  0.00    +0.000 A 
ATOM     26  C   UNL     1       5.773   3.999  15.660  0.00  0.00    +0.000 A 
ATOM     27  C   UNL     1       4.822   3.713  16.642  0.00  0.00    +0.000 A 
ENDBRANCH  21  22
ENDBRANCH  16  21
ENDBRANCH  15  16
ENDBRANCH   3  15
TORSDOF 5
ENDMDL
MODEL 6
REMARK VINA RESULT:      -8.1      1.525      3.916
REMARK  Name = 
REMARK  5 active torsions:
REMARK  status: ('A' for Active; 'I' for Inactive)
REMARK    1  A    between atoms: C_2  and  C_17
REMARK    2  A    between atoms: N_3  and  C_4
REMARK    3  A    between atoms: C_4  and  C_5
REMARK    4  A    between atoms: C_5  and  C_6
REMARK    5  A    between atoms: C_6  and  C_7
REMARK                            x       y       z     vdW  Elec       q    Type
REMARK                         _______ _______ _______ _____ _____    ______ ____
ROOT
ATOM      1  O   UNL     1       2.707   8.939  17.566  0.00  0.00    +0.000 OA
ATOM      2  C   UNL     1       2.003   8.493  18.463  0.00  0.00    +0.000 C 
ATOM      3  N   UNL     1       1.994   7.188  18.887  0.00  0.00    +0.000 N 
ATOM      4  H   UNL     1       1.222   6.878  19.458  0.00  0.00    +0.000 HD
ENDROOT
BRANCH   2   5
ATOM      5  C   UNL     1       1.030   9.385  19.125  0.00  0.00    +0.000 A 
ATOM      6  C   UNL     1       0.081  10.153  18.450  0.00  0.00    +0.000 A 
ATOM      7  C   UNL     1      -0.780  10.961  19.187  0.00  0.00    +0.000 A 
ATOM      8  N   UNL     1      -0.787  11.085  20.534  0.00  0.00    +0.000 NA
ATOM      9  C   UNL     1       0.124  10.316  21.172  0.00  0.00    +0.000 A 
ATOM     10  N   UNL     1       0.341  10.233  22.519  0.00  0.00    +0.000 NA
ATOM     11  N   UNL     1       1.329   9.362  22.724  0.00  0.00    +0.000 NA
ATOM     12  N   UNL     1       1.715   8.903  21.519  0.00  0.00    +0.000 N 
ATOM     13  C   UNL     1       1.006   9.482  20.510  0.00  0.00    +0.000 A 
ATOM     14  H   UNL     1       2.452   8.207  21.456  0.00  0.00    +0.000 HD
ENDBRANCH   2   5
BRANCH   3  15
ATOM     15  C   UNL     1       2.861   6.161  18.333  0.00  0.00    +0.000 C 
BRANCH  15  16
ATOM     16  C   UNL     1       2.648   4.788  19.014  0.00  0.00    +0.000 C 
ATOM     17  C   UNL     1       1.598   3.965  18.224  0.00  0.00    +0.000 C 
ATOM     18  C   UNL     1       0.831   3.122  19.243  0.00  0.00    +0.000 C 
ATOM     19  C   UNL     1       1.230   3.636  20.620  0.00  0.00    +0.000 C 
ATOM     20  C   UNL     1       1.925   4.967  20.364  0.00  0.00    +0.000 C 
BRANCH  16  21
ATOM     21  C   UNL     1       3.977   3.970  19.143  0.00  0.00    +0.000 C 
BRANCH  21  22
ATOM     22  C   UNL     1       5.019   4.203  18.066  0.00  0.00    +0.000 A 
ATOM     23  C   UNL     1       4.775   3.811  16.743  0.00  0.00    +0.000 A 
ATOM     24  C   UNL     1       5.753   3.975  15.756  0.00  0.00    +0.000 A 
ATOM     25  C   UNL     1       6.986   4.537  16.079  0.00  0.00    +0.000 A 
ATOM     26  C   UNL     1       7.230   4.963  17.380  0.00  0.00    +0.000 A 
ATOM     27  C   UNL     1       6.248   4.811  18.362  0.00  0.00    +0.000 A 
ENDBRANCH  21  22
ENDBRANCH  16  21
ENDBRANCH  15  16
ENDBRANCH   3  15
TORSDOF 5
ENDMDL
MODEL 7
REMARK VINA RESULT:      -8.0      2.008      4.588
REMARK  Name = 
REMARK  5 active torsions:
REMARK  status: ('A' for Active; 'I' for Inactive)
REMARK    1  A    between atoms: C_2  and  C_17
REMARK    2  A    between atoms: N_3  and  C_4
REMARK    3  A    between atoms: C_4  and  C_5
REMARK    4  A    between atoms: C_5  and  C_6
REMARK    5  A    between atoms: C_6  and  C_7
REMARK                            x       y       z     vdW  Elec       q    Type
REMARK                         _______ _______ _______ _____ _____    ______ ____
ROOT
ATOM      1  O   UNL     1       2.029   9.697  17.485  0.00  0.00    +0.000 OA
ATOM      2  C   UNL     1       1.631   9.254  18.555  0.00  0.00    +0.000 C 
ATOM      3  N   UNL     1       1.958   8.027  19.074  0.00  0.00    +0.000 N 
ATOM      4  H   UNL     1       1.399   7.665  19.832  0.00  0.00    +0.000 HD
ENDROOT
BRANCH   2   5
ATOM      5  C   UNL     1       0.674  10.048  19.352  0.00  0.00    +0.000 A 
ATOM      6  C   UNL     1       0.812  10.309  20.715  0.00  0.00    +0.000 A 
ATOM      7  C   UNL     1      -0.162  11.069  21.357  0.00  0.00    +0.000 A 
ATOM      8  N   UNL     1      -1.266  11.591  20.776  0.00  0.00    +0.000 NA
ATOM      9  C   UNL     1      -1.371  11.346  19.450  0.00  0.00    +0.000 A 
ATOM     10  N   UNL     1      -2.369  11.750  18.609  0.00  0.00    +0.000 NA
ATOM     11  N   UNL     1      -2.088  11.295  17.389  0.00  0.00    +0.000 NA
ATOM     12  N   UNL     1      -0.925  10.624  17.468  0.00  0.00    +0.000 N 
ATOM     13  C   UNL     1      -0.440  10.609  18.742  0.00  0.00    +0.000 A 
ATOM     14  H   UNL     1      -0.520  10.211  16.633  0.00  0.00    +0.000 HD
ENDBRANCH   2   5
BRANCH   3  15
ATOM     15  C   UNL     1       2.862   7.095  18.416  0.00  0.00    +0.000 C 
BRANCH  15  16
ATOM     16  C   UNL     1       2.803   5.683  19.046  0.00  0.00    +0.000 C 
ATOM     17  C   UNL     1       1.951   4.743  18.155  0.00  0.00    +0.000 C 
ATOM     18  C   UNL     1       1.242   3.763  19.089  0.00  0.00    +0.000 C 
ATOM     19  C   UNL     1       1.452   4.282  20.506  0.00  0.00    +0.000 C 
ATOM     20  C   UNL     1       1.959   5.708  20.338  0.00  0.00    +0.000 C 
BRANCH  16  21
ATOM     21  C   UNL     1       4.224   5.064  19.265  0.00  0.00    +0.000 C 
BRANCH  21  22
ATOM     22  C   UNL     1       5.143   5.045  18.058  0.00  0.00    +0.000 A 
ATOM     23  C   UNL     1       4.909   4.157  17.000  0.00  0.00    +0.000 A 
ATOM     24  C   UNL     1       5.783   4.097  15.909  0.00  0.00    +0.000 A 
ATOM     25  C   UNL     1       6.900   4.927  15.861  0.00  0.00    +0.000 A 
ATOM     26  C   UNL     1       7.127   5.839  16.887  0.00  0.00    +0.000 A 
ATOM     27  C   UNL     1       6.246   5.907  17.969  0.00  0.00    +0.000 A 
ENDBRANCH  21  22
ENDBRANCH  16  21
ENDBRANCH  15  16
ENDBRANCH   3  15
TORSDOF 5
ENDMDL
MODEL 8
REMARK VINA RESULT:      -8.0      1.598      2.559
REMARK  Name = 
REMARK  5 active torsions:
REMARK  status: ('A' for Active; 'I' for Inactive)
REMARK    1  A    between atoms: C_2  and  C_17
REMARK    2  A    between atoms: N_3  and  C_4
REMARK    3  A    between atoms: C_4  and  C_5
REMARK    4  A    between atoms: C_5  and  C_6
REMARK    5  A    between atoms: C_6  and  C_7
REMARK                            x       y       z     vdW  Elec       q    Type
REMARK                         _______ _______ _______ _____ _____    ______ ____
ROOT
ATOM      1  O   UNL     1       2.120   9.127  17.188  0.00  0.00    +0.000 OA
ATOM      2  C   UNL     1       2.196   8.447  18.205  0.00  0.00    +0.000 C 
ATOM      3  N   UNL     1       2.920   7.288  18.328  0.00  0.00    +0.000 N 
ATOM      4  H   UNL     1       2.729   6.688  19.116  0.00  0.00    +0.000 HD
ENDROOT
BRANCH   2   5
ATOM      5  C   UNL     1       1.415   8.840  19.394  0.00  0.00    +0.000 A 
ATOM      6  C   UNL     1       1.503   8.212  20.636  0.00  0.00    +0.000 A 
ATOM      7  C   UNL     1       0.708   8.673  21.682  0.00  0.00    +0.000 A 
ATOM      8  N   UNL     1      -0.173   9.696  21.612  0.00  0.00    +0.000 NA
ATOM      9  C   UNL     1      -0.229  10.306  20.406  0.00  0.00    +0.000 A 
ATOM     10  N   UNL     1      -1.019  11.362  20.047  0.00  0.00    +0.000 NA
ATOM     11  N   UNL     1      -0.766  11.651  18.771  0.00  0.00    +0.000 NA
ATOM     12  N   UNL     1       0.176  10.790  18.345  0.00  0.00    +0.000 N 
ATOM     13  C   UNL     1       0.535   9.913  19.324  0.00  0.00    +0.000 A 
ATOM     14  H   UNL     1       0.527  10.854  17.393  0.00  0.00    +0.000 HD
ENDBRANCH   2   5
BRANCH   3  15
ATOM     15  C   UNL     1       3.727   6.730  17.254  0.00  0.00    +0.000 C 
BRANCH  15  16
ATOM     16  C   UNL     1       4.568   5.520  17.725  0.00  0.00    +0.000 C 
ATOM     17  C   UNL     1       5.062   5.754  19.175  0.00  0.00    +0.000 C 
ATOM     18  C   UNL     1       6.433   5.087  19.294  0.00  0.00    +0.000 C 
ATOM     19  C   UNL     1       6.857   4.710  17.880  0.00  0.00    +0.000 C 
ATOM     20  C   UNL     1       5.909   5.471  16.962  0.00  0.00    +0.000 C 
BRANCH  16  21
ATOM     21  C   UNL     1       3.776   4.172  17.643  0.00  0.00    +0.000 C 
BRANCH  21  22
ATOM     22  C   UNL     1       2.969   3.790  18.868  0.00  0.00    +0.000 A 
ATOM     23  C   UNL     1       1.663   4.270  19.039  0.00  0.00    +0.000 A 
ATOM     24  C   UNL     1       0.933   3.964  20.192  0.00  0.00    +0.000 A 
ATOM     25  C   UNL     1       1.497   3.170  21.188  0.00  0.00    +0.000 A 
ATOM     26  C   UNL     1       2.778   2.657  21.018  0.00  0.00    +0.000 A 
ATOM     27  C   UNL     1       3.502   2.952  19.860  0.00  0.00    +0.000 A 
ENDBRANCH  21  22
ENDBRANCH  16  21
ENDBRANCH  15  16
ENDBRANCH   3  15
TORSDOF 5
ENDMDL
MODEL 9
REMARK VINA RESULT:      -8.0      3.196      6.333
REMARK  Name = 
REMARK  5 active torsions:
REMARK  status: ('A' for Active; 'I' for Inactive)
REMARK    1  A    between atoms: C_2  and  C_17
REMARK    2  A    between atoms: N_3  and  C_4
REMARK    3  A    between atoms: C_4  and  C_5
REMARK    4  A    between atoms: C_5  and  C_6
REMARK    5  A    between atoms: C_6  and  C_7
REMARK                            x       y       z     vdW  Elec       q    Type
REMARK                         _______ _______ _______ _____ _____    ______ ____
ROOT
ATOM      1  O   UNL     1       4.346   2.314  17.035  0.00  0.00    +0.000 OA
ATOM      2  C   UNL     1       4.314   3.524  16.847  0.00  0.00    +0.000 C 
ATOM      3  N   UNL     1       3.307   4.362  17.254  0.00  0.00    +0.000 N 
ATOM      4  H   UNL     1       3.262   5.285  16.849  0.00  0.00    +0.000 HD
ENDROOT
BRANCH   2   5
ATOM      5  C   UNL     1       5.399   4.161  16.073  0.00  0.00    +0.000 A 
ATOM      6  C   UNL     1       5.769   3.786  14.781  0.00  0.00    +0.000 A 
ATOM      7  C   UNL     1       6.814   4.461  14.157  0.00  0.00    +0.000 A 
ATOM      8  N   UNL     1       7.534   5.471  14.695  0.00  0.00    +0.000 NA
ATOM      9  C   UNL     1       7.148   5.835  15.939  0.00  0.00    +0.000 A 
ATOM     10  N   UNL     1       7.686   6.819  16.720  0.00  0.00    +0.000 NA
ATOM     11  N   UNL     1       7.013   6.846  17.870  0.00  0.00    +0.000 NA
ATOM     12  N   UNL     1       6.062   5.897  17.801  0.00  0.00    +0.000 N 
ATOM     13  C   UNL     1       6.114   5.219  16.619  0.00  0.00    +0.000 A 
ATOM     14  H   UNL     1       5.420   5.766  18.577  0.00  0.00    +0.000 HD
ENDBRANCH   2   5
BRANCH   3  15
ATOM     15  C   UNL     1       2.143   3.910  18.001  0.00  0.00    +0.000 C 
BRANCH  15  16
ATOM     16  C   UNL     1       2.339   4.056  19.529  0.00  0.00    +0.000 C 
ATOM     17  C   UNL     1       3.052   2.801  20.092  0.00  0.00    +0.000 C 
ATOM     18  C   UNL     1       2.509   2.572  21.502  0.00  0.00    +0.000 C 
ATOM     19  C   UNL     1       1.311   3.500  21.662  0.00  0.00    +0.000 C 
ATOM     20  C   UNL     1       0.979   3.971  20.253  0.00  0.00    +0.000 C 
BRANCH  16  21
ATOM     21  C   UNL     1       3.146   5.342  19.910  0.00  0.00    +0.000 C 
BRANCH  21  22
ATOM     22  C   UNL     1       2.428   6.666  19.732  0.00  0.00    +0.000 A 
ATOM     23  C   UNL     1       2.502   7.359  18.516  0.00  0.00    +0.000 A 
ATOM     24  C   UNL     1       1.887   8.606  18.364  0.00  0.00    +0.000 A 
ATOM     25  C   UNL     1       1.185   9.174  19.424  0.00  0.00    +0.000 A 
ATOM     26  C   UNL     1       1.072   8.483  20.626  0.00  0.00    +0.000 A 
ATOM     27  C   UNL     1       1.676   7.232  20.773  0.00  0.00    +0.000 A 
ENDBRANCH  21  22
ENDBRANCH  16  21
ENDBRANCH  15  16
ENDBRANCH   3  15
TORSDOF 5
ENDMDL
