MODEL 1
REMARK VINA RESULT:      -8.5      0.000      0.000
REMARK  Name = 
REMARK  3 active torsions:
REMARK  status: ('A' for Active; 'I' for Inactive)
REMARK    1  A    between atoms: C_2  and  C_3
REMARK    2  A    between atoms: C_3  and  N_4
REMARK    3  A    between atoms: N_11  and  C_12
REMARK                            x       y       z     vdW  Elec       q    Type
REMARK                         _______ _______ _______ _____ _____    ______ ____
ROOT
ATOM      1  N   UNL     1       1.060   9.525  19.225  0.00  0.00    +0.000 N 
ATOM      2  C   UNL     1       1.822   9.436  18.070  0.00  0.00    +0.000 A 
ATOM      3  N   UNL     1       2.584   8.438  17.741  0.00  0.00    +0.000 NA
ATOM      4  C   UNL     1       2.597   7.431  18.654  0.00  0.00    +0.000 A 
ATOM      5  C   UNL     1       1.910   7.417  19.844  0.00  0.00    +0.000 A 
ATOM      6  C   UNL     1       2.209   6.198  20.446  0.00  0.00    +0.000 A 
ATOM      7  N   UNL     1       3.012   5.448  19.689  0.00  0.00    +0.000 NA
ATOM      8  N   UNL     1       3.252   6.204  18.566  0.00  0.00    +0.000 N 
ATOM      9  C   UNL     1       1.063   8.520  20.195  0.00  0.00    +0.000 A 
ATOM     10  O   UNL     1       0.368   8.522  21.205  0.00  0.00    +0.000 OA
ENDROOT
BRANCH   8  11
ATOM     11  C   UNL     1       4.054   5.681  17.506  0.00  0.00    +0.000 A 
ATOM     12  C   UNL     1       4.069   4.296  17.272  0.00  0.00    +0.000 A 
ATOM     13  C   UNL     1       4.833   3.763  16.229  0.00  0.00    +0.000 A 
ATOM     14  C   UNL     1       5.590   4.603  15.416  0.00  0.00    +0.000 A 
ATOM     15  C   UNL     1       5.583   5.976  15.642  0.00  0.00    +0.000 A 
ATOM     16  C   UNL     1       4.818   6.514  16.679  0.00  0.00    +0.000 A 
ENDBRANCH   8  11
BRANCH   1  17
ATOM     17  C   UNL     1       0.093  10.597  19.349  0.00  0.00    +0.000 C 
BRANCH  17  19
ATOM     18  O   UNL     1      -1.114   9.692  17.457  0.00  0.00    +0.000 OA
ATOM     19  C   UNL     1      -1.045  10.570  18.312  0.00  0.00    +0.000 C 
ATOM     20  N   UNL     1      -2.027  11.542  18.484  0.00  0.00    +0.000 N 
ATOM     21  C   UNL     1      -3.266  11.505  17.710  0.00  0.00    +0.000 C 
ATOM     22  C   UNL     1      -4.529  11.715  18.575  0.00  0.00    +0.000 C 
ATOM     23  C   UNL     1      -4.303  12.366  19.924  0.00  0.00    +0.000 A 
ATOM     24  C   UNL     1      -5.359  12.483  20.839  0.00  0.00    +0.000 A 
ATOM     25  C   UNL     1      -5.137  13.006  22.116  0.00  0.00    +0.000 A 
ATOM     26  C   UNL     1      -3.865  13.431  22.487  0.00  0.00    +0.000 A 
ATOM     27  C   UNL     1      -2.814  13.347  21.579  0.00  0.00    +0.000 A 
ATOM     28  C   UNL     1      -3.025  12.808  20.301  0.00  0.00    +0.000 A 
ATOM     29  C   UNL     1      -1.889  12.724  19.326  0.00  0.00    +0.000 C 
ENDBRANCH  17  19
ENDBRANCH   1  17
TORSDOF 3
ENDMDL
MODEL 2
REMARK VINA RESULT:      -8.5      2.068      9.333
REMARK  Name = 
REMARK  3 active torsions:
REMARK  status: ('A' for Active; 'I' for Inactive)
REMARK    1  A    between atoms: C_2  and  C_3
REMARK    2  A    between atoms: C_3  and  N_4
REMARK    3  A    between atoms: N_11  and  C_12
REMARK                            x       y       z     vdW  Elec       q    Type
REMARK                         _______ _______ _______ _____ _____    ______ ____
ROOT
ATOM      1  N   UNL     1       2.048   6.838  20.466  0.00  0.00    +0.000 N 
ATOM      2  C   UNL     1       1.130   7.469  21.293  0.00  0.00    +0.000 A 
ATOM      3  N   UNL     1       0.528   8.590  21.039  0.00  0.00    +0.000 NA
ATOM      4  C   UNL     1       0.878   9.145  19.849  0.00  0.00    +0.000 A 
ATOM      5  C   UNL     1       1.793   8.633  18.962  0.00  0.00    +0.000 A 
ATOM      6  C   UNL     1       1.827   9.518  17.888  0.00  0.00    +0.000 A 
ATOM      7  N   UNL     1       0.968  10.528  18.045  0.00  0.00    +0.000 NA
ATOM      8  N   UNL     1       0.366  10.300  19.259  0.00  0.00    +0.000 N 
ATOM      9  C   UNL     1       2.447   7.387  19.247  0.00  0.00    +0.000 A 
ATOM     10  O   UNL     1       3.210   6.848  18.453  0.00  0.00    +0.000 OA
ENDROOT
BRANCH   8  11
ATOM     11  C   UNL     1      -0.656  11.179  19.731  0.00  0.00    +0.000 A 
ATOM     12  C   UNL     1      -1.843  11.314  18.993  0.00  0.00    +0.000 A 
ATOM     13  C   UNL     1      -2.865  12.156  19.445  0.00  0.00    +0.000 A 
ATOM     14  C   UNL     1      -2.710  12.872  20.629  0.00  0.00    +0.000 A 
ATOM     15  C   UNL     1      -1.536  12.747  21.364  0.00  0.00    +0.000 A 
ATOM     16  C   UNL     1      -0.515  11.904  20.921  0.00  0.00    +0.000 A 
ENDBRANCH   8  11
BRANCH   1  17
ATOM     17  C   UNL     1       2.467   5.488  20.782  0.00  0.00    +0.000 C 
BRANCH  17  19
ATOM     18  O   UNL     1       0.708   4.235  19.691  0.00  0.00    +0.000 OA
ATOM     19  C   UNL     1       1.915   4.398  19.845  0.00  0.00    +0.000 C 
ATOM     20  N   UNL     1       2.875   3.696  19.120  0.00  0.00    +0.000 N 
ATOM     21  C   UNL     1       2.489   2.787  18.044  0.00  0.00    +0.000 C 
ATOM     22  C   UNL     1       3.320   2.981  16.757  0.00  0.00    +0.000 C 
ATOM     23  C   UNL     1       4.644   3.699  16.929  0.00  0.00    +0.000 A 
ATOM     24  C   UNL     1       5.413   4.044  15.809  0.00  0.00    +0.000 A 
ATOM     25  C   UNL     1       6.592   4.779  15.956  0.00  0.00    +0.000 A 
ATOM     26  C   UNL     1       7.024   5.164  17.222  0.00  0.00    +0.000 A 
ATOM     27  C   UNL     1       6.285   4.803  18.345  0.00  0.00    +0.000 A 
ATOM     28  C   UNL     1       5.092   4.080  18.203  0.00  0.00    +0.000 A 
ATOM     29  C   UNL     1       4.302   3.692  19.418  0.00  0.00    +0.000 C 
ENDBRANCH  17  19
ENDBRANCH   1  17
TORSDOF 3
ENDMDL
MODEL 3
REMARK VINA RESULT:      -8.3      2.038      2.421
REMARK  Name = 
REMARK  3 active torsions:
REMARK  status: ('A' for Active; 'I' for Inactive)
REMARK    1  A    between atoms: C_2  and  C_3
REMARK    2  A    between atoms: C_3  and  N_4
REMARK    3  A    between atoms: N_11  and  C_12
REMARK                            x       y       z     vdW  Elec       q    Type
REMARK                         _______ _______ _______ _____ _____    ______ ____
ROOT
ATOM      1  N   UNL     1       1.054   9.522  19.252  0.00  0.00    +0.000 N 
ATOM      2  C   UNL     1       1.754   9.418  18.059  0.00  0.00    +0.000 A 
ATOM      3  N   UNL     1       2.522   8.430  17.716  0.00  0.00    +0.000 NA
ATOM      4  C   UNL     1       2.610   7.450  18.653  0.00  0.00    +0.000 A 
ATOM      5  C   UNL     1       1.989   7.453  19.879  0.00  0.00    +0.000 A 
ATOM      6  C   UNL     1       2.350   6.259  20.497  0.00  0.00    +0.000 A 
ATOM      7  N   UNL     1       3.130   5.507  19.716  0.00  0.00    +0.000 NA
ATOM      8  N   UNL     1       3.290   6.237  18.562  0.00  0.00    +0.000 N 
ATOM      9  C   UNL     1       1.135   8.545  20.246  0.00  0.00    +0.000 A 
ATOM     10  O   UNL     1       0.496   8.559  21.292  0.00  0.00    +0.000 OA
ENDROOT
BRANCH   8  11
ATOM     11  C   UNL     1       4.046   5.703  17.475  0.00  0.00    +0.000 A 
ATOM     12  C   UNL     1       4.073   4.314  17.270  0.00  0.00    +0.000 A 
ATOM     13  C   UNL     1       4.792   3.770  16.200  0.00  0.00    +0.000 A 
ATOM     14  C   UNL     1       5.493   4.604  15.332  0.00  0.00    +0.000 A 
ATOM     15  C   UNL     1       5.475   5.981  15.529  0.00  0.00    +0.000 A 
ATOM     16  C   UNL     1       4.754   6.529  16.592  0.00  0.00    +0.000 A 
ENDBRANCH   8  11
BRANCH   1  17
ATOM     17  C   UNL     1       0.069  10.574  19.399  0.00  0.00    +0.000 C 
BRANCH  17  19
ATOM     18  O   UNL     1       1.198  12.571  18.629  0.00  0.00    +0.000 OA
ATOM     19  C   UNL     1       0.649  11.991  19.562  0.00  0.00    +0.000 C 
ATOM     20  N   UNL     1       0.414  12.591  20.796  0.00  0.00    +0.000 N 
ATOM     21  C   UNL     1       0.718  14.003  21.017  0.00  0.00    +0.000 C 
ATOM     22  C   UNL     1      -0.425  14.769  21.718  0.00  0.00    +0.000 C 
ATOM     23  C   UNL     1      -1.432  13.915  22.461  0.00  0.00    +0.000 A 
ATOM     24  C   UNL     1      -2.579  14.497  23.019  0.00  0.00    +0.000 A 
ATOM     25  C   UNL     1      -3.551  13.702  23.633  0.00  0.00    +0.000 A 
ATOM     26  C   UNL     1      -3.382  12.323  23.710  0.00  0.00    +0.000 A 
ATOM     27  C   UNL     1      -2.235  11.735  23.185  0.00  0.00    +0.000 A 
ATOM     28  C   UNL     1      -1.263  12.524  22.553  0.00  0.00    +0.000 A 
ATOM     29  C   UNL     1      -0.027  11.885  21.993  0.00  0.00    +0.000 C 
ENDBRANCH  17  19
ENDBRANCH   1  17
TORSDOF 3
ENDMDL
MODEL 4
REMARK VINA RESULT:      -8.2      1.738      2.535
REMARK  Name = 
REMARK  3 active torsions:
REMARK  status: ('A' for Active; 'I' for Inactive)
REMARK    1  A    between atoms: C_2  and  C_3
REMARK    2  A    between atoms: C_3  and  N_4
REMARK    3  A    between atoms: N_11  and  C_12
REMARK                            x       y       z     vdW  Elec       q    Type
REMARK                         _______ _______ _______ _____ _____    ______ ____
ROOT
ATOM      1  N   UNL     1       2.233   7.688  19.347  0.00  0.00    +0.000 N 
ATOM      2  C   UNL     1       2.998   8.025  18.240  0.00  0.00    +0.000 A 
ATOM      3  N   UNL     1       3.789   7.223  17.594  0.00  0.00    +0.000 NA
ATOM      4  C   UNL     1       3.830   5.964  18.103  0.00  0.00    +0.000 A 
ATOM      5  C   UNL     1       3.144   5.520  19.208  0.00  0.00    +0.000 A 
ATOM      6  C   UNL     1       3.477   4.177  19.355  0.00  0.00    +0.000 A 
ATOM      7  N   UNL     1       4.303   3.757  18.393  0.00  0.00    +0.000 NA
ATOM      8  N   UNL     1       4.521   4.861  17.603  0.00  0.00    +0.000 N 
ATOM      9  C   UNL     1       2.265   6.411  19.909  0.00  0.00    +0.000 A 
ATOM     10  O   UNL     1       1.570   6.045  20.851  0.00  0.00    +0.000 OA
ENDROOT
BRANCH   8  11
ATOM     11  C   UNL     1       5.338   4.758  16.437  0.00  0.00    +0.000 A 
ATOM     12  C   UNL     1       6.662   5.225  16.479  0.00  0.00    +0.000 A 
ATOM     13  C   UNL     1       7.486   5.118  15.354  0.00  0.00    +0.000 A 
ATOM     14  C   UNL     1       6.997   4.552  14.179  0.00  0.00    +0.000 A 
ATOM     15  C   UNL     1       5.686   4.089  14.127  0.00  0.00    +0.000 A 
ATOM     16  C   UNL     1       4.861   4.188  15.249  0.00  0.00    +0.000 A 
ENDBRANCH   8  11
BRANCH   1  17
ATOM     17  C   UNL     1       1.236   8.625  19.823  0.00  0.00    +0.000 C 
BRANCH  17  19
ATOM     18  O   UNL     1       0.861   9.549  17.618  0.00  0.00    +0.000 OA
ATOM     19  C   UNL     1       0.866   9.743  18.831  0.00  0.00    +0.000 C 
ATOM     20  N   UNL     1       0.444  10.936  19.410  0.00  0.00    +0.000 N 
ATOM     21  C   UNL     1      -0.136  12.003  18.599  0.00  0.00    +0.000 C 
ATOM     22  C   UNL     1      -1.433  12.588  19.201  0.00  0.00    +0.000 C 
ATOM     23  C   UNL     1      -1.647  12.332  20.679  0.00  0.00    +0.000 A 
ATOM     24  C   UNL     1      -2.851  12.704  21.294  0.00  0.00    +0.000 A 
ATOM     25  C   UNL     1      -3.088  12.395  22.636  0.00  0.00    +0.000 A 
ATOM     26  C   UNL     1      -2.120  11.727  23.382  0.00  0.00    +0.000 A 
ATOM     27  C   UNL     1      -0.909  11.378  22.791  0.00  0.00    +0.000 A 
ATOM     28  C   UNL     1      -0.672  11.670  21.440  0.00  0.00    +0.000 A 
ATOM     29  C   UNL     1       0.636  11.293  20.811  0.00  0.00    +0.000 C 
ENDBRANCH  17  19
ENDBRANCH   1  17
TORSDOF 3
ENDMDL
MODEL 5
REMARK VINA RESULT:      -8.2      2.313      2.692
REMARK  Name = 
REMARK  3 active torsions:
REMARK  status: ('A' for Active; 'I' for Inactive)
REMARK    1  A    between atoms: C_2  and  C_3
REMARK    2  A    between atoms: C_3  and  N_4
REMARK    3  A    between atoms: N_11  and  C_12
REMARK                            x       y       z     vdW  Elec       q    Type
REMARK                         _______ _______ _______ _____ _____    ______ ____
ROOT
ATOM      1  N   UNL     1       1.696   8.825  19.051  0.00  0.00    +0.000 N 
ATOM      2  C   UNL     1       2.566   8.750  17.974  0.00  0.00    +0.000 A 
ATOM      3  N   UNL     1       3.368   7.762  17.715  0.00  0.00    +0.000 NA
ATOM      4  C   UNL     1       3.305   6.752  18.622  0.00  0.00    +0.000 A 
ATOM      5  C   UNL     1       2.509   6.724  19.741  0.00  0.00    +0.000 A 
ATOM      6  C   UNL     1       2.762   5.506  20.365  0.00  0.00    +0.000 A 
ATOM      7  N   UNL     1       3.644   4.769  19.685  0.00  0.00    +0.000 NA
ATOM      8  N   UNL     1       3.980   5.532  18.593  0.00  0.00    +0.000 N 
ATOM      9  C   UNL     1       1.619   7.816  20.013  0.00  0.00    +0.000 A 
ATOM     10  O   UNL     1       0.831   7.806  20.952  0.00  0.00    +0.000 OA
ENDROOT
BRANCH   8  11
ATOM     11  C   UNL     1       4.886   5.023  17.613  0.00  0.00    +0.000 A 
ATOM     12  C   UNL     1       4.378   4.483  16.419  0.00  0.00    +0.000 A 
ATOM     13  C   UNL     1       5.247   3.995  15.438  0.00  0.00    +0.000 A 
ATOM     14  C   UNL     1       6.624   4.036  15.639  0.00  0.00    +0.000 A 
ATOM     15  C   UNL     1       7.136   4.565  16.819  0.00  0.00    +0.000 A 
ATOM     16  C   UNL     1       6.274   5.059  17.800  0.00  0.00    +0.000 A 
ENDBRANCH   8  11
BRANCH   1  17
ATOM     17  C   UNL     1       0.710   9.886  19.085  0.00  0.00    +0.000 C 
BRANCH  17  19
ATOM     18  O   UNL     1       1.803  11.852  18.195  0.00  0.00    +0.000 OA
ATOM     19  C   UNL     1       1.288  11.310  19.169  0.00  0.00    +0.000 C 
ATOM     20  N   UNL     1       1.092  11.961  20.384  0.00  0.00    +0.000 N 
ATOM     21  C   UNL     1       1.396  13.381  20.536  0.00  0.00    +0.000 C 
ATOM     22  C   UNL     1       0.273  14.172  21.242  0.00  0.00    +0.000 C 
ATOM     23  C   UNL     1      -0.704  13.346  22.054  0.00  0.00    +0.000 A 
ATOM     24  C   UNL     1      -1.834  13.947  22.626  0.00  0.00    +0.000 A 
ATOM     25  C   UNL     1      -2.782  13.175  23.304  0.00  0.00    +0.000 A 
ATOM     26  C   UNL     1      -2.604  11.801  23.433  0.00  0.00    +0.000 A 
ATOM     27  C   UNL     1      -1.471  11.196  22.895  0.00  0.00    +0.000 A 
ATOM     28  C   UNL     1      -0.525  11.961  22.198  0.00  0.00    +0.000 A 
ATOM     29  C   UNL     1       0.694  11.303  21.624  0.00  0.00    +0.000 C 
ENDBRANCH  17  19
ENDBRANCH   1  17
TORSDOF 3
ENDMDL
MODEL 6
REMARK VINA RESULT:      -8.2      1.264      1.725
REMARK  Name = 
REMARK  3 active torsions:
REMARK  status: ('A' for Active; 'I' for Inactive)
REMARK    1  A    between atoms: C_2  and  C_3
REMARK    2  A    between atoms: C_3  and  N_4
REMARK    3  A    between atoms: N_11  and  C_12
REMARK                            x       y       z     vdW  Elec       q    Type
REMARK                         _______ _______ _______ _____ _____    ______ ____
ROOT
ATOM      1  N   UNL     1       1.146  10.378  19.022  0.00  0.00    +0.000 N 
ATOM      2  C   UNL     1       1.856   9.814  17.974  0.00  0.00    +0.000 A 
ATOM      3  N   UNL     1       2.331   8.606  17.944  0.00  0.00    +0.000 NA
ATOM      4  C   UNL     1       2.082   7.889  19.071  0.00  0.00    +0.000 A 
ATOM      5  C   UNL     1       1.417   8.346  20.184  0.00  0.00    +0.000 A 
ATOM      6  C   UNL     1       1.388   7.282  21.080  0.00  0.00    +0.000 A 
ATOM      7  N   UNL     1       1.967   6.189  20.577  0.00  0.00    +0.000 NA
ATOM      8  N   UNL     1       2.394   6.554  19.323  0.00  0.00    +0.000 N 
ATOM      9  C   UNL     1       0.888   9.680  20.203  0.00  0.00    +0.000 A 
ATOM     10  O   UNL     1       0.220  10.109  21.137  0.00  0.00    +0.000 OA
ENDROOT
BRANCH   8  11
ATOM     11  C   UNL     1       3.029   5.598  18.474  0.00  0.00    +0.000 A 
ATOM     12  C   UNL     1       2.288   4.509  17.986  0.00  0.00    +0.000 A 
ATOM     13  C   UNL     1       2.885   3.571  17.138  0.00  0.00    +0.000 A 
ATOM     14  C   UNL     1       4.223   3.705  16.776  0.00  0.00    +0.000 A 
ATOM     15  C   UNL     1       4.965   4.779  17.257  0.00  0.00    +0.000 A 
ATOM     16  C   UNL     1       4.373   5.722  18.099  0.00  0.00    +0.000 A 
ENDBRANCH   8  11
BRANCH   1  17
ATOM     17  C   UNL     1       0.493  11.656  18.822  0.00  0.00    +0.000 C 
BRANCH  17  19
ATOM     18  O   UNL     1      -1.450  10.726  17.720  0.00  0.00    +0.000 OA
ATOM     19  C   UNL     1      -1.008  11.576  18.489  0.00  0.00    +0.000 C 
ATOM     20  N   UNL     1      -1.821  12.458  19.195  0.00  0.00    +0.000 N 
ATOM     21  C   UNL     1      -3.277  12.350  19.138  0.00  0.00    +0.000 C 
ATOM     22  C   UNL     1      -3.946  12.427  20.528  0.00  0.00    +0.000 C 
ATOM     23  C   UNL     1      -3.109  13.044  21.630  0.00  0.00    +0.000 A 
ATOM     24  C   UNL     1      -3.570  13.042  22.954  0.00  0.00    +0.000 A 
ATOM     25  C   UNL     1      -2.766  13.534  23.986  0.00  0.00    +0.000 A 
ATOM     26  C   UNL     1      -1.503  14.046  23.706  0.00  0.00    +0.000 A 
ATOM     27  C   UNL     1      -1.045  14.081  22.392  0.00  0.00    +0.000 A 
ATOM     28  C   UNL     1      -1.839  13.573  21.354  0.00  0.00    +0.000 A 
ATOM     29  C   UNL     1      -1.341  13.616  19.940  0.00  0.00    +0.000 C 
ENDBRANCH  17  19
ENDBRANCH   1  17
TORSDOF 3
ENDMDL
MODEL 7
REMARK VINA RESULT:      -7.9      1.968      3.308
REMARK  Name = 
REMARK  3 active torsions:
REMARK  status: ('A' for Active; 'I' for Inactive)
REMARK    1  A    between atoms: C_2  and  C_3
REMARK    2  A    between atoms: C_3  and  N_4
REMARK    3  A    between atoms: N_11  and  C_12
REMARK                            x       y       z     vdW  Elec       q    Type
REMARK                         _______ _______ _______ _____ _____    ______ ____
ROOT
ATOM      1  N   UNL     1      -1.386  11.402  19.473  0.00  0.00    +0.000 N 
ATOM      2  C   UNL     1      -0.779  10.790  18.387  0.00  0.00    +0.000 A 
ATOM      3  N   UNL     1       0.148   9.884  18.448  0.00  0.00    +0.000 NA
ATOM      4  C   UNL     1       0.513   9.557  19.716  0.00  0.00    +0.000 A 
ATOM      5  C   UNL     1       0.008  10.111  20.867  0.00  0.00    +0.000 A 
ATOM      6  C   UNL     1       0.659   9.476  21.919  0.00  0.00    +0.000 A 
ATOM      7  N   UNL     1       1.513   8.543  21.490  0.00  0.00    +0.000 NA
ATOM      8  N   UNL     1       1.422   8.580  20.119  0.00  0.00    +0.000 N 
ATOM      9  C   UNL     1      -1.023  11.106  20.788  0.00  0.00    +0.000 A 
ATOM     10  O   UNL     1      -1.563  11.575  21.784  0.00  0.00    +0.000 OA
ENDROOT
BRANCH   8  11
ATOM     11  C   UNL     1       2.182   7.668  19.325  0.00  0.00    +0.000 A 
ATOM     12  C   UNL     1       2.775   8.119  18.135  0.00  0.00    +0.000 A 
ATOM     13  C   UNL     1       3.538   7.248  17.350  0.00  0.00    +0.000 A 
ATOM     14  C   UNL     1       3.712   5.924  17.742  0.00  0.00    +0.000 A 
ATOM     15  C   UNL     1       3.126   5.467  18.918  0.00  0.00    +0.000 A 
ATOM     16  C   UNL     1       2.367   6.333  19.708  0.00  0.00    +0.000 A 
ENDBRANCH   8  11
BRANCH   1  17
ATOM     17  C   UNL     1      -2.554  12.230  19.251  0.00  0.00    +0.000 C 
BRANCH  17  19
ATOM     18  O   UNL     1      -3.502  10.641  17.692  0.00  0.00    +0.000 OA
ATOM     19  C   UNL     1      -3.709  11.541  18.502  0.00  0.00    +0.000 C 
ATOM     20  N   UNL     1      -4.987  11.940  18.883  0.00  0.00    +0.000 N 
ATOM     21  C   UNL     1      -6.170  11.226  18.412  0.00  0.00    +0.000 C 
ATOM     22  C   UNL     1      -7.179  10.911  19.540  0.00  0.00    +0.000 C 
ATOM     23  C   UNL     1      -7.044  11.747  20.796  0.00  0.00    +0.000 A 
ATOM     24  C   UNL     1      -7.821  11.454  21.927  0.00  0.00    +0.000 A 
ATOM     25  C   UNL     1      -7.642  12.168  23.115  0.00  0.00    +0.000 A 
ATOM     26  C   UNL     1      -6.698  13.188  23.183  0.00  0.00    +0.000 A 
ATOM     27  C   UNL     1      -5.940  13.508  22.060  0.00  0.00    +0.000 A 
ATOM     28  C   UNL     1      -6.103  12.785  20.869  0.00  0.00    +0.000 A 
ATOM     29  C   UNL     1      -5.286  13.137  19.662  0.00  0.00    +0.000 C 
ENDBRANCH  17  19
ENDBRANCH   1  17
TORSDOF 3
ENDMDL
MODEL 8
REMARK VINA RESULT:      -7.9      3.192      5.251
REMARK  Name = 
REMARK  3 active torsions:
REMARK  status: ('A' for Active; 'I' for Inactive)
REMARK    1  A    between atoms: C_2  and  C_3
REMARK    2  A    between atoms: C_3  and  N_4
REMARK    3  A    between atoms: N_11  and  C_12
REMARK                            x       y       z     vdW  Elec       q    Type
REMARK                         _______ _______ _______ _____ _____    ______ ____
ROOT
ATOM      1  N   UNL     1      -4.045  11.135  18.162  0.00  0.00    +0.000 N 
ATOM      2  C   UNL     1      -3.344  10.072  17.612  0.00  0.00    +0.000 A 
ATOM      3  N   UNL     1      -2.112   9.762  17.873  0.00  0.00    +0.000 NA
ATOM      4  C   UNL     1      -1.511  10.595  18.763  0.00  0.00    +0.000 A 
ATOM      5  C   UNL     1      -2.089  11.693  19.352  0.00  0.00    +0.000 A 
ATOM      6  C   UNL     1      -1.120  12.236  20.190  0.00  0.00    +0.000 A 
ATOM      7  N   UNL     1       0.009  11.524  20.178  0.00  0.00    +0.000 NA
ATOM      8  N   UNL     1      -0.228  10.494  19.299  0.00  0.00    +0.000 N 
ATOM      9  C   UNL     1      -3.456  12.023  19.064  0.00  0.00    +0.000 A 
ATOM     10  O   UNL     1      -4.043  12.944  19.622  0.00  0.00    +0.000 OA
ENDROOT
BRANCH   8  11
ATOM     11  C   UNL     1       0.771   9.499  19.073  0.00  0.00    +0.000 A 
ATOM     12  C   UNL     1       1.072   8.580  20.092  0.00  0.00    +0.000 A 
ATOM     13  C   UNL     1       2.034   7.586  19.887  0.00  0.00    +0.000 A 
ATOM     14  C   UNL     1       2.705   7.502  18.670  0.00  0.00    +0.000 A 
ATOM     15  C   UNL     1       2.416   8.409  17.656  0.00  0.00    +0.000 A 
ATOM     16  C   UNL     1       1.452   9.400  17.853  0.00  0.00    +0.000 A 
ENDBRANCH   8  11
BRANCH   1  17
ATOM     17  C   UNL     1      -5.474  11.224  17.943  0.00  0.00    +0.000 C 
BRANCH  17  19
ATOM     18  O   UNL     1      -6.190   9.182  19.025  0.00  0.00    +0.000 OA
ATOM     19  C   UNL     1      -6.335  10.396  18.915  0.00  0.00    +0.000 C 
ATOM     20  N   UNL     1      -7.199  11.134  19.719  0.00  0.00    +0.000 N 
ATOM     21  C   UNL     1      -7.917  10.507  20.826  0.00  0.00    +0.000 C 
ATOM     22  C   UNL     1      -7.846  11.324  22.136  0.00  0.00    +0.000 C 
ATOM     23  C   UNL     1      -7.483  12.787  21.981  0.00  0.00    +0.000 A 
ATOM     24  C   UNL     1      -7.263  13.584  23.113  0.00  0.00    +0.000 A 
ATOM     25  C   UNL     1      -6.846  14.912  22.977  0.00  0.00    +0.000 A 
ATOM     26  C   UNL     1      -6.661  15.460  21.711  0.00  0.00    +0.000 A 
ATOM     27  C   UNL     1      -6.903  14.688  20.579  0.00  0.00    +0.000 A 
ATOM     28  C   UNL     1      -7.305  13.350  20.709  0.00  0.00    +0.000 A 
ATOM     29  C   UNL     1      -7.568  12.525  19.484  0.00  0.00    +0.000 C 
ENDBRANCH  17  19
ENDBRANCH   1  17
TORSDOF 3
ENDMDL
MODEL 9
REMARK VINA RESULT:      -7.9      2.130      3.421
REMARK  Name = 
REMARK  3 active torsions:
REMARK  status: ('A' for Active; 'I' for Inactive)
REMARK    1  A    between atoms: C_2  and  C_3
REMARK    2  A    between atoms: C_3  and  N_4
REMARK    3  A    between atoms: N_11  and  C_12
REMARK                            x       y       z     vdW  Elec       q    Type
REMARK                         _______ _______ _______ _____ _____    ______ ____
ROOT
ATOM      1  N   UNL     1      -1.716  11.390  18.976  0.00  0.00    +0.000 N 
ATOM      2  C   UNL     1      -1.069  10.679  17.976  0.00  0.00    +0.000 A 
ATOM      3  N   UNL     1      -0.081   9.855  18.151  0.00  0.00    +0.000 NA
ATOM      4  C   UNL     1       0.309   9.732  19.447  0.00  0.00    +0.000 A 
ATOM      5  C   UNL     1      -0.232  10.403  20.517  0.00  0.00    +0.000 A 
ATOM      6  C   UNL     1       0.465   9.965  21.639  0.00  0.00    +0.000 A 
ATOM      7  N   UNL     1       1.381   9.044  21.332  0.00  0.00    +0.000 NA
ATOM      8  N   UNL     1       1.285   8.885  19.970  0.00  0.00    +0.000 N 
ATOM      9  C   UNL     1      -1.330  11.304  20.315  0.00  0.00    +0.000 A 
ATOM     10  O   UNL     1      -1.900  11.866  21.243  0.00  0.00    +0.000 OA
ENDROOT
BRANCH   8  11
ATOM     11  C   UNL     1       2.106   7.928  19.299  0.00  0.00    +0.000 A 
ATOM     12  C   UNL     1       2.274   6.651  19.860  0.00  0.00    +0.000 A 
ATOM     13  C   UNL     1       3.059   5.692  19.212  0.00  0.00    +0.000 A 
ATOM     14  C   UNL     1       3.684   5.997  18.006  0.00  0.00    +0.000 A 
ATOM     15  C   UNL     1       3.526   7.260  17.444  0.00  0.00    +0.000 A 
ATOM     16  C   UNL     1       2.739   8.220  18.084  0.00  0.00    +0.000 A 
ENDBRANCH   8  11
BRANCH   1  17
ATOM     17  C   UNL     1      -2.939  12.097  18.656  0.00  0.00    +0.000 C 
BRANCH  17  19
ATOM     18  O   UNL     1      -3.982  10.138  17.694  0.00  0.00    +0.000 OA
ATOM     19  C   UNL     1      -4.135  11.199  18.293  0.00  0.00    +0.000 C 
ATOM     20  N   UNL     1      -5.368  11.625  18.779  0.00  0.00    +0.000 N 
ATOM     21  C   UNL     1      -6.548  10.769  18.693  0.00  0.00    +0.000 C 
ATOM     22  C   UNL     1      -7.345  10.697  20.015  0.00  0.00    +0.000 C 
ATOM     23  C   UNL     1      -7.088  11.819  21.001  0.00  0.00    +0.000 A 
ATOM     24  C   UNL     1      -7.657  11.780  22.281  0.00  0.00    +0.000 A 
ATOM     25  C   UNL     1      -7.357  12.768  23.222  0.00  0.00    +0.000 A 
ATOM     26  C   UNL     1      -6.499  13.813  22.891  0.00  0.00    +0.000 A 
ATOM     27  C   UNL     1      -5.950  13.880  21.613  0.00  0.00    +0.000 A 
ATOM     28  C   UNL     1      -6.234  12.882  20.670  0.00  0.00    +0.000 A 
ATOM     29  C   UNL     1      -5.641  12.962  19.294  0.00  0.00    +0.000 C 
ENDBRANCH  17  19
ENDBRANCH   1  17
TORSDOF 3
ENDMDL
