MODEL 1
REMARK VINA RESULT:      -8.5      0.000      0.000
REMARK  Name = 
REMARK  6 active torsions:
REMARK  status: ('A' for Active; 'I' for Inactive)
REMARK    1  A    between atoms: C_2  and  C_3
REMARK    2  A    between atoms: C_3  and  C_4
REMARK    3  A    between atoms: N_11  and  C_12
REMARK    4  A    between atoms: C_17  and  C_18
REMARK    5  A    between atoms: N_20  and  C_21
REMARK    6  A    between atoms: C_21  and  C_22
REMARK                            x       y       z     vdW  Elec       q    Type
REMARK                         _______ _______ _______ _____ _____    ______ ____
ROOT
ATOM      1  C   UNL     1       5.503   3.946  16.503  0.00  0.00    +0.000 A 
ATOM      2  C   UNL     1       6.153   3.737  15.278  0.00  0.00    +0.000 A 
ATOM      3  C   UNL     1       6.980   4.708  14.707  0.00  0.00    +0.000 A 
ATOM      4  C   UNL     1       7.166   5.926  15.344  0.00  0.00    +0.000 A 
ATOM      5  C   UNL     1       6.513   6.177  16.550  0.00  0.00    +0.000 A 
ATOM      6  C   UNL     1       5.671   5.208  17.134  0.00  0.00    +0.000 A 
ENDROOT
BRANCH   1   9
ATOM      7  O   UNL     1       2.562   3.661  16.367  0.00  0.00    +0.000 OA
ATOM      8  C   UNL     1       3.282   2.902  17.017  0.00  0.00    +0.000 C 
ATOM      9  N   UNL     1       4.666   2.943  17.073  0.00  0.00    +0.000 N 
ATOM     10  H   UNL     1       5.145   2.094  17.385  0.00  0.00    +0.000 HD
BRANCH   8  11
ATOM     11  C   UNL     1       2.645   1.814  17.868  0.00  0.00    +0.000 C 
BRANCH  11  12
ATOM     12  C   UNL     1       2.254   2.280  19.240  0.00  0.00    +0.000 A 
ATOM     13  C   UNL     1       0.960   2.756  19.514  0.00  0.00    +0.000 A 
ATOM     14  C   UNL     1       0.628   3.202  20.797  0.00  0.00    +0.000 A 
ATOM     15  C   UNL     1       1.578   3.167  21.820  0.00  0.00    +0.000 A 
ATOM     16  C   UNL     1       2.859   2.685  21.560  0.00  0.00    +0.000 A 
ATOM     17  C   UNL     1       3.183   2.245  20.280  0.00  0.00    +0.000 A 
ATOM     18  F   UNL     1       4.425   1.802  20.040  0.00  0.00    +0.000 F 
ENDBRANCH  11  12
ENDBRANCH   8  11
ENDBRANCH   1   9
BRANCH   6  19
ATOM     19  C   UNL     1       5.049   5.521  18.460  0.00  0.00    +0.000 C 
ATOM     20  O   UNL     1       5.718   5.466  19.485  0.00  0.00    +0.000 OA
ATOM     21  N   UNL     1       3.706   5.854  18.449  0.00  0.00    +0.000 N 
ATOM     22  H   UNL     1       3.146   5.589  17.650  0.00  0.00    +0.000 HD
BRANCH  21  23
ATOM     23  C   UNL     1       2.992   6.198  19.664  0.00  0.00    +0.000 C 
BRANCH  23  24
ATOM     24  C   UNL     1       2.220   7.488  19.504  0.00  0.00    +0.000 A 
ATOM     25  C   UNL     1       2.186   8.154  18.252  0.00  0.00    +0.000 A 
ATOM     26  C   UNL     1       1.449   9.333  18.076  0.00  0.00    +0.000 A 
ATOM     27  C   UNL     1       0.756   9.823  19.160  0.00  0.00    +0.000 A 
ATOM     28  C   UNL     1       0.805   9.204  20.387  0.00  0.00    +0.000 A 
ATOM     29  C   UNL     1       1.534   8.050  20.594  0.00  0.00    +0.000 A 
ATOM     30  O   UNL     1       0.056   9.849  21.323  0.00  0.00    +0.000 OA
ATOM     31  C   UNL     1      -0.554  10.879  20.515  0.00  0.00    +0.000 C 
ATOM     32  O   UNL     1      -0.037  10.928  19.170  0.00  0.00    +0.000 OA
ENDBRANCH  23  24
ENDBRANCH  21  23
ENDBRANCH   6  19
TORSDOF 6
ENDMDL
MODEL 2
REMARK VINA RESULT:      -8.5      0.844      1.218
REMARK  Name = 
REMARK  6 active torsions:
REMARK  status: ('A' for Active; 'I' for Inactive)
REMARK    1  A    between atoms: C_2  and  C_3
REMARK    2  A    between atoms: C_3  and  C_4
REMARK    3  A    between atoms: N_11  and  C_12
REMARK    4  A    between atoms: C_17  and  C_18
REMARK    5  A    between atoms: N_20  and  C_21
REMARK    6  A    between atoms: C_21  and  C_22
REMARK                            x       y       z     vdW  Elec       q    Type
REMARK                         _______ _______ _______ _____ _____    ______ ____
ROOT
ATOM      1  C   UNL     1       5.575   3.965  16.565  0.00  0.00    +0.000 A 
ATOM      2  C   UNL     1       6.242   3.767  15.347  0.00  0.00    +0.000 A 
ATOM      3  C   UNL     1       7.042   4.760  14.776  0.00  0.00    +0.000 A 
ATOM      4  C   UNL     1       7.182   5.989  15.404  0.00  0.00    +0.000 A 
ATOM      5  C   UNL     1       6.511   6.228  16.603  0.00  0.00    +0.000 A 
ATOM      6  C   UNL     1       5.696   5.236  17.187  0.00  0.00    +0.000 A 
ENDROOT
BRANCH   1   9
ATOM      7  O   UNL     1       2.647   3.576  16.397  0.00  0.00    +0.000 OA
ATOM      8  C   UNL     1       3.386   2.849  17.063  0.00  0.00    +0.000 C 
ATOM      9  N   UNL     1       4.767   2.938  17.136  0.00  0.00    +0.000 N 
ATOM     10  H   UNL     1       5.271   2.111  17.462  0.00  0.00    +0.000 HD
BRANCH   8  11
ATOM     11  C   UNL     1       2.776   1.748  17.918  0.00  0.00    +0.000 C 
BRANCH  11  12
ATOM     12  C   UNL     1       2.365   2.211  19.286  0.00  0.00    +0.000 A 
ATOM     13  C   UNL     1       3.290   2.298  20.341  0.00  0.00    +0.000 A 
ATOM     14  C   UNL     1       2.876   2.715  21.610  0.00  0.00    +0.000 A 
ATOM     15  C   UNL     1       1.542   3.059  21.836  0.00  0.00    +0.000 A 
ATOM     16  C   UNL     1       0.622   2.988  20.792  0.00  0.00    +0.000 A 
ATOM     17  C   UNL     1       1.040   2.570  19.532  0.00  0.00    +0.000 A 
ATOM     18  F   UNL     1       0.140   2.488  18.543  0.00  0.00    +0.000 F 
ENDBRANCH  11  12
ENDBRANCH   8  11
ENDBRANCH   1   9
BRANCH   6  19
ATOM     19  C   UNL     1       5.052   5.539  18.504  0.00  0.00    +0.000 C 
ATOM     20  O   UNL     1       5.711   5.504  19.537  0.00  0.00    +0.000 OA
ATOM     21  N   UNL     1       3.701   5.839  18.478  0.00  0.00    +0.000 N 
ATOM     22  H   UNL     1       3.157   5.558  17.674  0.00  0.00    +0.000 HD
BRANCH  21  23
ATOM     23  C   UNL     1       2.966   6.170  19.684  0.00  0.00    +0.000 C 
BRANCH  23  24
ATOM     24  C   UNL     1       2.214   7.473  19.531  0.00  0.00    +0.000 A 
ATOM     25  C   UNL     1       2.204   8.155  18.288  0.00  0.00    +0.000 A 
ATOM     26  C   UNL     1       1.486   9.346  18.118  0.00  0.00    +0.000 A 
ATOM     27  C   UNL     1       0.785   9.831  19.200  0.00  0.00    +0.000 A 
ATOM     28  C   UNL     1       0.810   9.196  20.419  0.00  0.00    +0.000 A 
ATOM     29  C   UNL     1       1.521   8.029  20.620  0.00  0.00    +0.000 A 
ATOM     30  O   UNL     1       0.057   9.837  21.354  0.00  0.00    +0.000 OA
ATOM     31  C   UNL     1      -0.528  10.886  20.552  0.00  0.00    +0.000 C 
ATOM     32  O   UNL     1       0.007  10.947  19.214  0.00  0.00    +0.000 OA
ENDBRANCH  23  24
ENDBRANCH  21  23
ENDBRANCH   6  19
TORSDOF 6
ENDMDL
MODEL 3
REMARK VINA RESULT:      -8.4      2.047      4.979
REMARK  Name = 
REMARK  6 active torsions:
REMARK  status: ('A' for Active; 'I' for Inactive)
REMARK    1  A    between atoms: C_2  and  C_3
REMARK    2  A    between atoms: C_3  and  C_4
REMARK    3  A    between atoms: N_11  and  C_12
REMARK    4  A    between atoms: C_17  and  C_18
REMARK    5  A    between atoms: N_20  and  C_21
REMARK    6  A    between atoms: C_21  and  C_22
REMARK                            x       y       z     vdW  Elec       q    Type
REMARK                         _______ _______ _______ _____ _____    ______ ____
ROOT
ATOM      1  C   UNL     1       3.510   3.739  19.711  0.00  0.00    +0.000 A 
ATOM      2  C   UNL     1       3.624   2.613  20.541  0.00  0.00    +0.000 A 
ATOM      3  C   UNL     1       2.640   2.287  21.478  0.00  0.00    +0.000 A 
ATOM      4  C   UNL     1       1.519   3.092  21.620  0.00  0.00    +0.000 A 
ATOM      5  C   UNL     1       1.388   4.233  20.830  0.00  0.00    +0.000 A 
ATOM      6  C   UNL     1       2.377   4.578  19.885  0.00  0.00    +0.000 A 
ENDROOT
BRANCH   1   9
ATOM      7  O   UNL     1       3.588   3.173  16.809  0.00  0.00    +0.000 OA
ATOM      8  C   UNL     1       4.518   3.706  17.416  0.00  0.00    +0.000 C 
ATOM      9  N   UNL     1       4.522   4.054  18.758  0.00  0.00    +0.000 N 
ATOM     10  H   UNL     1       5.208   4.750  19.057  0.00  0.00    +0.000 HD
BRANCH   8  11
ATOM     11  C   UNL     1       5.811   4.016  16.678  0.00  0.00    +0.000 C 
BRANCH  11  12
ATOM     12  C   UNL     1       6.561   5.185  17.248  0.00  0.00    +0.000 A 
ATOM     13  C   UNL     1       7.496   5.023  18.285  0.00  0.00    +0.000 A 
ATOM     14  C   UNL     1       8.166   6.131  18.811  0.00  0.00    +0.000 A 
ATOM     15  C   UNL     1       7.920   7.407  18.302  0.00  0.00    +0.000 A 
ATOM     16  C   UNL     1       7.003   7.575  17.266  0.00  0.00    +0.000 A 
ATOM     17  C   UNL     1       6.338   6.468  16.749  0.00  0.00    +0.000 A 
ATOM     18  F   UNL     1       5.445   6.647  15.766  0.00  0.00    +0.000 F 
ENDBRANCH  11  12
ENDBRANCH   8  11
ENDBRANCH   1   9
BRANCH   6  19
ATOM     19  C   UNL     1       2.144   5.784  19.028  0.00  0.00    +0.000 C 
ATOM     20  O   UNL     1       1.857   5.654  17.844  0.00  0.00    +0.000 OA
ATOM     21  N   UNL     1       2.282   7.015  19.644  0.00  0.00    +0.000 N 
ATOM     22  H   UNL     1       2.806   7.070  20.507  0.00  0.00    +0.000 HD
BRANCH  21  23
ATOM     23  C   UNL     1       2.064   8.258  18.929  0.00  0.00    +0.000 C 
BRANCH  23  24
ATOM     24  C   UNL     1       1.232   9.223  19.743  0.00  0.00    +0.000 A 
ATOM     25  C   UNL     1       0.805  10.453  19.182  0.00  0.00    +0.000 A 
ATOM     26  C   UNL     1       0.006  11.346  19.911  0.00  0.00    +0.000 A 
ATOM     27  C   UNL     1      -0.353  10.986  21.191  0.00  0.00    +0.000 A 
ATOM     28  C   UNL     1       0.080   9.810  21.757  0.00  0.00    +0.000 A 
ATOM     29  C   UNL     1       0.880   8.919  21.069  0.00  0.00    +0.000 A 
ATOM     30  O   UNL     1      -0.382   9.646  23.027  0.00  0.00    +0.000 OA
ATOM     31  C   UNL     1      -1.241  10.800  23.151  0.00  0.00    +0.000 C 
ATOM     32  O   UNL     1      -1.148  11.703  22.030  0.00  0.00    +0.000 OA
ENDBRANCH  23  24
ENDBRANCH  21  23
ENDBRANCH   6  19
TORSDOF 6
ENDMDL
MODEL 4
REMARK VINA RESULT:      -8.4      1.992      5.034
REMARK  Name = 
REMARK  6 active torsions:
REMARK  status: ('A' for Active; 'I' for Inactive)
REMARK    1  A    between atoms: C_2  and  C_3
REMARK    2  A    between atoms: C_3  and  C_4
REMARK    3  A    between atoms: N_11  and  C_12
REMARK    4  A    between atoms: C_17  and  C_18
REMARK    5  A    between atoms: N_20  and  C_21
REMARK    6  A    between atoms: C_21  and  C_22
REMARK                            x       y       z     vdW  Elec       q    Type
REMARK                         _______ _______ _______ _____ _____    ______ ____
ROOT
ATOM      1  C   UNL     1       3.457   3.743  19.680  0.00  0.00    +0.000 A 
ATOM      2  C   UNL     1       3.538   2.660  20.568  0.00  0.00    +0.000 A 
ATOM      3  C   UNL     1       2.507   2.363  21.464  0.00  0.00    +0.000 A 
ATOM      4  C   UNL     1       1.370   3.157  21.504  0.00  0.00    +0.000 A 
ATOM      5  C   UNL     1       1.269   4.256  20.653  0.00  0.00    +0.000 A 
ATOM      6  C   UNL     1       2.304   4.571  19.749  0.00  0.00    +0.000 A 
ENDROOT
BRANCH   1   9
ATOM      7  O   UNL     1       3.624   3.211  16.775  0.00  0.00    +0.000 OA
ATOM      8  C   UNL     1       4.550   3.697  17.425  0.00  0.00    +0.000 C 
ATOM      9  N   UNL     1       4.516   4.028  18.770  0.00  0.00    +0.000 N 
ATOM     10  H   UNL     1       5.219   4.692  19.105  0.00  0.00    +0.000 HD
BRANCH   8  11
ATOM     11  C   UNL     1       5.883   3.963  16.740  0.00  0.00    +0.000 C 
BRANCH  11  12
ATOM     12  C   UNL     1       6.603   5.165  17.279  0.00  0.00    +0.000 A 
ATOM     13  C   UNL     1       7.550   5.053  18.312  0.00  0.00    +0.000 A 
ATOM     14  C   UNL     1       8.191   6.191  18.808  0.00  0.00    +0.000 A 
ATOM     15  C   UNL     1       7.905   7.448  18.272  0.00  0.00    +0.000 A 
ATOM     16  C   UNL     1       6.978   7.567  17.240  0.00  0.00    +0.000 A 
ATOM     17  C   UNL     1       6.340   6.430  16.753  0.00  0.00    +0.000 A 
ATOM     18  F   UNL     1       5.436   6.561  15.772  0.00  0.00    +0.000 F 
ENDBRANCH  11  12
ENDBRANCH   8  11
ENDBRANCH   1   9
BRANCH   6  19
ATOM     19  C   UNL     1       2.105   5.731  18.824  0.00  0.00    +0.000 C 
ATOM     20  O   UNL     1       1.621   5.557  17.711  0.00  0.00    +0.000 OA
ATOM     21  N   UNL     1       2.503   6.970  19.292  0.00  0.00    +0.000 N 
ATOM     22  H   UNL     1       3.158   7.012  20.060  0.00  0.00    +0.000 HD
BRANCH  21  23
ATOM     23  C   UNL     1       2.344   8.176  18.499  0.00  0.00    +0.000 C 
BRANCH  23  24
ATOM     24  C   UNL     1       1.271   9.074  19.072  0.00  0.00    +0.000 A 
ATOM     25  C   UNL     1       0.991   9.063  20.462  0.00  0.00    +0.000 A 
ATOM     26  C   UNL     1       0.023   9.913  21.015  0.00  0.00    +0.000 A 
ATOM     27  C   UNL     1      -0.647  10.762  20.162  0.00  0.00    +0.000 A 
ATOM     28  C   UNL     1      -0.407  10.761  18.808  0.00  0.00    +0.000 A 
ATOM     29  C   UNL     1       0.530   9.925  18.233  0.00  0.00    +0.000 A 
ATOM     30  O   UNL     1      -1.174  11.668  18.145  0.00  0.00    +0.000 OA
ATOM     31  C   UNL     1      -1.842  12.313  19.251  0.00  0.00    +0.000 C 
ATOM     32  O   UNL     1      -1.588  11.676  20.520  0.00  0.00    +0.000 OA
ENDBRANCH  23  24
ENDBRANCH  21  23
ENDBRANCH   6  19
TORSDOF 6
ENDMDL
MODEL 5
REMARK VINA RESULT:      -8.3      1.797      4.944
REMARK  Name = 
REMARK  6 active torsions:
REMARK  status: ('A' for Active; 'I' for Inactive)
REMARK    1  A    between atoms: C_2  and  C_3
REMARK    2  A    between atoms: C_3  and  C_4
REMARK    3  A    between atoms: N_11  and  C_12
REMARK    4  A    between atoms: C_17  and  C_18
REMARK    5  A    between atoms: N_20  and  C_21
REMARK    6  A    between atoms: C_21  and  C_22
REMARK                            x       y       z     vdW  Elec       q    Type
REMARK                         _______ _______ _______ _____ _____    ______ ____
ROOT
ATOM      1  C   UNL     1       4.183   3.360  19.711  0.00  0.00    +0.000 A 
ATOM      2  C   UNL     1       4.192   2.337  20.672  0.00  0.00    +0.000 A 
ATOM      3  C   UNL     1       3.091   2.093  21.497  0.00  0.00    +0.000 A 
ATOM      4  C   UNL     1       1.953   2.879  21.392  0.00  0.00    +0.000 A 
ATOM      5  C   UNL     1       1.921   3.921  20.466  0.00  0.00    +0.000 A 
ATOM      6  C   UNL     1       3.027   4.183  19.632  0.00  0.00    +0.000 A 
ENDROOT
BRANCH   1   9
ATOM      7  O   UNL     1       6.400   5.288  20.053  0.00  0.00    +0.000 OA
ATOM      8  C   UNL     1       6.289   4.557  19.068  0.00  0.00    +0.000 C 
ATOM      9  N   UNL     1       5.313   3.593  18.875  0.00  0.00    +0.000 N 
ATOM     10  H   UNL     1       5.508   2.864  18.185  0.00  0.00    +0.000 HD
BRANCH   8  11
ATOM     11  C   UNL     1       7.277   4.698  17.920  0.00  0.00    +0.000 C 
BRANCH  11  12
ATOM     12  C   UNL     1       6.619   4.833  16.577  0.00  0.00    +0.000 A 
ATOM     13  C   UNL     1       6.728   3.828  15.600  0.00  0.00    +0.000 A 
ATOM     14  C   UNL     1       6.121   3.988  14.352  0.00  0.00    +0.000 A 
ATOM     15  C   UNL     1       5.391   5.144  14.069  0.00  0.00    +0.000 A 
ATOM     16  C   UNL     1       5.267   6.140  15.036  0.00  0.00    +0.000 A 
ATOM     17  C   UNL     1       5.877   5.975  16.276  0.00  0.00    +0.000 A 
ATOM     18  F   UNL     1       5.766   6.949  17.190  0.00  0.00    +0.000 F 
ENDBRANCH  11  12
ENDBRANCH   8  11
ENDBRANCH   1   9
BRANCH   6  19
ATOM     19  C   UNL     1       2.903   5.279  18.619  0.00  0.00    +0.000 C 
ATOM     20  O   UNL     1       2.920   5.019  17.422  0.00  0.00    +0.000 OA
ATOM     21  N   UNL     1       2.784   6.566  19.114  0.00  0.00    +0.000 N 
ATOM     22  H   UNL     1       3.080   6.752  20.062  0.00  0.00    +0.000 HD
BRANCH  21  23
ATOM     23  C   UNL     1       2.637   7.713  18.237  0.00  0.00    +0.000 C 
BRANCH  23  24
ATOM     24  C   UNL     1       1.670   8.724  18.810  0.00  0.00    +0.000 A 
ATOM     25  C   UNL     1       0.930   9.577  17.953  0.00  0.00    +0.000 A 
ATOM     26  C   UNL     1       0.005  10.498  18.465  0.00  0.00    +0.000 A 
ATOM     27  C   UNL     1      -0.162  10.545  19.831  0.00  0.00    +0.000 A 
ATOM     28  C   UNL     1       0.571   9.745  20.676  0.00  0.00    +0.000 A 
ATOM     29  C   UNL     1       1.500   8.839  20.201  0.00  0.00    +0.000 A 
ATOM     30  O   UNL     1       0.258   9.948  21.984  0.00  0.00    +0.000 OA
ATOM     31  C   UNL     1      -0.831  10.887  21.856  0.00  0.00    +0.000 C 
ATOM     32  O   UNL     1      -1.034  11.344  20.503  0.00  0.00    +0.000 OA
ENDBRANCH  23  24
ENDBRANCH  21  23
ENDBRANCH   6  19
TORSDOF 6
ENDMDL
MODEL 6
REMARK VINA RESULT:      -8.2      1.937      2.515
REMARK  Name = 
REMARK  6 active torsions:
REMARK  status: ('A' for Active; 'I' for Inactive)
REMARK    1  A    between atoms: C_2  and  C_3
REMARK    2  A    between atoms: C_3  and  C_4
REMARK    3  A    between atoms: N_11  and  C_12
REMARK    4  A    between atoms: C_17  and  C_18
REMARK    5  A    between atoms: N_20  and  C_21
REMARK    6  A    between atoms: C_21  and  C_22
REMARK                            x       y       z     vdW  Elec       q    Type
REMARK                         _______ _______ _______ _____ _____    ______ ____
ROOT
ATOM      1  C   UNL     1       6.004   5.396  18.311  0.00  0.00    +0.000 A 
ATOM      2  C   UNL     1       7.245   5.083  18.888  0.00  0.00    +0.000 A 
ATOM      3  C   UNL     1       8.295   6.004  18.918  0.00  0.00    +0.000 A 
ATOM      4  C   UNL     1       8.136   7.262  18.355  0.00  0.00    +0.000 A 
ATOM      5  C   UNL     1       6.924   7.595  17.751  0.00  0.00    +0.000 A 
ATOM      6  C   UNL     1       5.858   6.673  17.708  0.00  0.00    +0.000 A 
ENDROOT
BRANCH   1   9
ATOM      7  O   UNL     1       5.159   3.573  16.140  0.00  0.00    +0.000 OA
ATOM      8  C   UNL     1       4.565   3.661  17.216  0.00  0.00    +0.000 C 
ATOM      9  N   UNL     1       4.942   4.445  18.294  0.00  0.00    +0.000 N 
ATOM     10  H   UNL     1       4.556   4.199  19.208  0.00  0.00    +0.000 HD
BRANCH   8  11
ATOM     11  C   UNL     1       3.282   2.869  17.426  0.00  0.00    +0.000 C 
BRANCH  11  12
ATOM     12  C   UNL     1       2.647   3.105  18.766  0.00  0.00    +0.000 A 
ATOM     13  C   UNL     1       3.052   2.390  19.907  0.00  0.00    +0.000 A 
ATOM     14  C   UNL     1       2.431   2.616  21.138  0.00  0.00    +0.000 A 
ATOM     15  C   UNL     1       1.410   3.562  21.247  0.00  0.00    +0.000 A 
ATOM     16  C   UNL     1       1.011   4.283  20.125  0.00  0.00    +0.000 A 
ATOM     17  C   UNL     1       1.632   4.052  18.901  0.00  0.00    +0.000 A 
ATOM     18  F   UNL     1       1.225   4.740  17.825  0.00  0.00    +0.000 F 
ENDBRANCH  11  12
ENDBRANCH   8  11
ENDBRANCH   1   9
BRANCH   6  19
ATOM     19  C   UNL     1       4.566   7.118  17.096  0.00  0.00    +0.000 C 
ATOM     20  O   UNL     1       4.418   7.095  15.879  0.00  0.00    +0.000 OA
ATOM     21  N   UNL     1       3.586   7.554  17.969  0.00  0.00    +0.000 N 
ATOM     22  H   UNL     1       3.857   7.839  18.901  0.00  0.00    +0.000 HD
BRANCH  21  23
ATOM     23  C   UNL     1       2.283   7.992  17.503  0.00  0.00    +0.000 C 
BRANCH  23  24
ATOM     24  C   UNL     1       1.530   8.730  18.587  0.00  0.00    +0.000 A 
ATOM     25  C   UNL     1       0.687   9.822  18.259  0.00  0.00    +0.000 A 
ATOM     26  C   UNL     1      -0.044  10.497  19.247  0.00  0.00    +0.000 A 
ATOM     27  C   UNL     1       0.081  10.061  20.547  0.00  0.00    +0.000 A 
ATOM     28  C   UNL     1       0.917   9.023  20.882  0.00  0.00    +0.000 A 
ATOM     29  C   UNL     1       1.662   8.349  19.933  0.00  0.00    +0.000 A 
ATOM     30  O   UNL     1       0.899   8.752  22.215  0.00  0.00    +0.000 OA
ATOM     31  C   UNL     1      -0.126   9.667  22.661  0.00  0.00    +0.000 C 
ATOM     32  O   UNL     1      -0.575  10.567  21.626  0.00  0.00    +0.000 OA
ENDBRANCH  23  24
ENDBRANCH  21  23
ENDBRANCH   6  19
TORSDOF 6
ENDMDL
MODEL 7
REMARK VINA RESULT:      -8.2      1.729      2.226
REMARK  Name = 
REMARK  6 active torsions:
REMARK  status: ('A' for Active; 'I' for Inactive)
REMARK    1  A    between atoms: C_2  and  C_3
REMARK    2  A    between atoms: C_3  and  C_4
REMARK    3  A    between atoms: N_11  and  C_12
REMARK    4  A    between atoms: C_17  and  C_18
REMARK    5  A    between atoms: N_20  and  C_21
REMARK    6  A    between atoms: C_21  and  C_22
REMARK                            x       y       z     vdW  Elec       q    Type
REMARK                         _______ _______ _______ _____ _____    ______ ____
ROOT
ATOM      1  C   UNL     1       5.937   5.445  18.303  0.00  0.00    +0.000 A 
ATOM      2  C   UNL     1       7.172   5.114  18.882  0.00  0.00    +0.000 A 
ATOM      3  C   UNL     1       8.240   6.014  18.901  0.00  0.00    +0.000 A 
ATOM      4  C   UNL     1       8.105   7.268  18.324  0.00  0.00    +0.000 A 
ATOM      5  C   UNL     1       6.900   7.619  17.716  0.00  0.00    +0.000 A 
ATOM      6  C   UNL     1       5.816   6.718  17.684  0.00  0.00    +0.000 A 
ENDROOT
BRANCH   1   9
ATOM      7  O   UNL     1       5.075   3.590  16.166  0.00  0.00    +0.000 OA
ATOM      8  C   UNL     1       4.472   3.714  17.233  0.00  0.00    +0.000 C 
ATOM      9  N   UNL     1       4.856   4.516  18.297  0.00  0.00    +0.000 N 
ATOM     10  H   UNL     1       4.456   4.299  19.213  0.00  0.00    +0.000 HD
BRANCH   8  11
ATOM     11  C   UNL     1       3.172   2.954  17.450  0.00  0.00    +0.000 C 
BRANCH  11  12
ATOM     12  C   UNL     1       2.593   3.138  18.823  0.00  0.00    +0.000 A 
ATOM     13  C   UNL     1       1.489   3.979  19.048  0.00  0.00    +0.000 A 
ATOM     14  C   UNL     1       0.981   4.147  20.339  0.00  0.00    +0.000 A 
ATOM     15  C   UNL     1       1.560   3.472  21.415  0.00  0.00    +0.000 A 
ATOM     16  C   UNL     1       2.647   2.627  21.199  0.00  0.00    +0.000 A 
ATOM     17  C   UNL     1       3.149   2.466  19.911  0.00  0.00    +0.000 A 
ATOM     18  F   UNL     1       4.207   1.666  19.721  0.00  0.00    +0.000 F 
ENDBRANCH  11  12
ENDBRANCH   8  11
ENDBRANCH   1   9
BRANCH   6  19
ATOM     19  C   UNL     1       4.532   7.181  17.068  0.00  0.00    +0.000 C 
ATOM     20  O   UNL     1       4.376   7.129  15.853  0.00  0.00    +0.000 OA
ATOM     21  N   UNL     1       3.570   7.668  17.935  0.00  0.00    +0.000 N 
ATOM     22  H   UNL     1       3.855   7.971  18.857  0.00  0.00    +0.000 HD
BRANCH  21  23
ATOM     23  C   UNL     1       2.277   8.128  17.465  0.00  0.00    +0.000 C 
BRANCH  23  24
ATOM     24  C   UNL     1       1.496   8.801  18.571  0.00  0.00    +0.000 A 
ATOM     25  C   UNL     1       0.553   9.816  18.270  0.00  0.00    +0.000 A 
ATOM     26  C   UNL     1      -0.203  10.428  19.279  0.00  0.00    +0.000 A 
ATOM     27  C   UNL     1      -0.001  10.008  20.575  0.00  0.00    +0.000 A 
ATOM     28  C   UNL     1       0.931   9.046  20.884  0.00  0.00    +0.000 A 
ATOM     29  C   UNL     1       1.702   8.436  19.913  0.00  0.00    +0.000 A 
ATOM     30  O   UNL     1       0.977   8.778  22.217  0.00  0.00    +0.000 OA
ATOM     31  C   UNL     1      -0.109   9.602  22.694  0.00  0.00    +0.000 C 
ATOM     32  O   UNL     1      -0.665  10.457  21.674  0.00  0.00    +0.000 OA
ENDBRANCH  23  24
ENDBRANCH  21  23
ENDBRANCH   6  19
TORSDOF 6
ENDMDL
MODEL 8
REMARK VINA RESULT:      -8.2      1.906      4.904
REMARK  Name = 
REMARK  6 active torsions:
REMARK  status: ('A' for Active; 'I' for Inactive)
REMARK    1  A    between atoms: C_2  and  C_3
REMARK    2  A    between atoms: C_3  and  C_4
REMARK    3  A    between atoms: N_11  and  C_12
REMARK    4  A    between atoms: C_17  and  C_18
REMARK    5  A    between atoms: N_20  and  C_21
REMARK    6  A    between atoms: C_21  and  C_22
REMARK                            x       y       z     vdW  Elec       q    Type
REMARK                         _______ _______ _______ _____ _____    ______ ____
ROOT
ATOM      1  C   UNL     1       3.506   3.851  19.737  0.00  0.00    +0.000 A 
ATOM      2  C   UNL     1       3.600   2.714  20.555  0.00  0.00    +0.000 A 
ATOM      3  C   UNL     1       2.596   2.379  21.467  0.00  0.00    +0.000 A 
ATOM      4  C   UNL     1       1.475   3.185  21.597  0.00  0.00    +0.000 A 
ATOM      5  C   UNL     1       1.363   4.337  20.819  0.00  0.00    +0.000 A 
ATOM      6  C   UNL     1       2.372   4.690  19.899  0.00  0.00    +0.000 A 
ENDROOT
BRANCH   1   9
ATOM      7  O   UNL     1       3.689   3.228  16.851  0.00  0.00    +0.000 OA
ATOM      8  C   UNL     1       4.585   3.800  17.475  0.00  0.00    +0.000 C 
ATOM      9  N   UNL     1       4.538   4.175  18.808  0.00  0.00    +0.000 N 
ATOM     10  H   UNL     1       5.195   4.896  19.113  0.00  0.00    +0.000 HD
BRANCH   8  11
ATOM     11  C   UNL     1       5.892   4.131  16.770  0.00  0.00    +0.000 C 
BRANCH  11  12
ATOM     12  C   UNL     1       6.468   5.458  17.170  0.00  0.00    +0.000 A 
ATOM     13  C   UNL     1       5.900   6.668  16.734  0.00  0.00    +0.000 A 
ATOM     14  C   UNL     1       6.468   7.890  17.106  0.00  0.00    +0.000 A 
ATOM     15  C   UNL     1       7.598   7.918  17.925  0.00  0.00    +0.000 A 
ATOM     16  C   UNL     1       8.160   6.724  18.373  0.00  0.00    +0.000 A 
ATOM     17  C   UNL     1       7.591   5.511  17.996  0.00  0.00    +0.000 A 
ATOM     18  F   UNL     1       8.153   4.370  18.418  0.00  0.00    +0.000 F 
ENDBRANCH  11  12
ENDBRANCH   8  11
ENDBRANCH   1   9
BRANCH   6  19
ATOM     19  C   UNL     1       2.159   5.908  19.053  0.00  0.00    +0.000 C 
ATOM     20  O   UNL     1       1.907   5.794  17.859  0.00  0.00    +0.000 OA
ATOM     21  N   UNL     1       2.277   7.130  19.690  0.00  0.00    +0.000 N 
ATOM     22  H   UNL     1       2.776   7.175  20.568  0.00  0.00    +0.000 HD
BRANCH  21  23
ATOM     23  C   UNL     1       2.075   8.383  18.986  0.00  0.00    +0.000 C 
BRANCH  23  24
ATOM     24  C   UNL     1       1.103   9.278  19.723  0.00  0.00    +0.000 A 
ATOM     25  C   UNL     1       0.197  10.099  19.005  0.00  0.00    +0.000 A 
ATOM     26  C   UNL     1      -0.732  10.910  19.671  0.00  0.00    +0.000 A 
ATOM     27  C   UNL     1      -0.737  10.881  21.048  0.00  0.00    +0.000 A 
ATOM     28  C   UNL     1       0.156  10.113  21.756  0.00  0.00    +0.000 A 
ATOM     29  C   UNL     1       1.093   9.315  21.128  0.00  0.00    +0.000 A 
ATOM     30  O   UNL     1      -0.013  10.229  23.102  0.00  0.00    +0.000 OA
ATOM     31  C   UNL     1      -1.184  11.073  23.153  0.00  0.00    +0.000 C 
ATOM     32  O   UNL     1      -1.585  11.569  21.859  0.00  0.00    +0.000 OA
ENDBRANCH  23  24
ENDBRANCH  21  23
ENDBRANCH   6  19
TORSDOF 6
ENDMDL
MODEL 9
REMARK VINA RESULT:      -8.1      2.061      5.348
REMARK  Name = 
REMARK  6 active torsions:
REMARK  status: ('A' for Active; 'I' for Inactive)
REMARK    1  A    between atoms: C_2  and  C_3
REMARK    2  A    between atoms: C_3  and  C_4
REMARK    3  A    between atoms: N_11  and  C_12
REMARK    4  A    between atoms: C_17  and  C_18
REMARK    5  A    between atoms: N_20  and  C_21
REMARK    6  A    between atoms: C_21  and  C_22
REMARK                            x       y       z     vdW  Elec       q    Type
REMARK                         _______ _______ _______ _____ _____    ______ ____
ROOT
ATOM      1  C   UNL     1       3.783   4.407  19.629  0.00  0.00    +0.000 A 
ATOM      2  C   UNL     1       4.017   3.158  20.225  0.00  0.00    +0.000 A 
ATOM      3  C   UNL     1       3.102   2.583  21.112  0.00  0.00    +0.000 A 
ATOM      4  C   UNL     1       1.933   3.253  21.438  0.00  0.00    +0.000 A 
ATOM      5  C   UNL     1       1.683   4.508  20.884  0.00  0.00    +0.000 A 
ATOM      6  C   UNL     1       2.600   5.103  19.993  0.00  0.00    +0.000 A 
ENDROOT
BRANCH   1   9
ATOM      7  O   UNL     1       6.552   5.317  20.135  0.00  0.00    +0.000 OA
ATOM      8  C   UNL     1       5.993   5.435  19.044  0.00  0.00    +0.000 C 
ATOM      9  N   UNL     1       4.725   4.976  18.724  0.00  0.00    +0.000 N 
ATOM     10  H   UNL     1       4.508   4.861  17.731  0.00  0.00    +0.000 HD
BRANCH   8  11
ATOM     11  C   UNL     1       6.709   6.159  17.913  0.00  0.00    +0.000 C 
BRANCH  11  12
ATOM     12  C   UNL     1       6.406   5.595  16.555  0.00  0.00    +0.000 A 
ATOM     13  C   UNL     1       5.412   6.153  15.733  0.00  0.00    +0.000 A 
ATOM     14  C   UNL     1       5.137   5.597  14.480  0.00  0.00    +0.000 A 
ATOM     15  C   UNL     1       5.857   4.488  14.031  0.00  0.00    +0.000 A 
ATOM     16  C   UNL     1       6.853   3.936  14.834  0.00  0.00    +0.000 A 
ATOM     17  C   UNL     1       7.119   4.494  16.081  0.00  0.00    +0.000 A 
ATOM     18  F   UNL     1       8.067   3.941  16.852  0.00  0.00    +0.000 F 
ENDBRANCH  11  12
ENDBRANCH   8  11
ENDBRANCH   1   9
BRANCH   6  19
ATOM     19  C   UNL     1       2.241   6.425  19.390  0.00  0.00    +0.000 C 
ATOM     20  O   UNL     1       2.180   6.553  18.172  0.00  0.00    +0.000 OA
ATOM     21  N   UNL     1       2.002   7.463  20.273  0.00  0.00    +0.000 N 
ATOM     22  H   UNL     1       2.358   7.390  21.216  0.00  0.00    +0.000 HD
BRANCH  21  23
ATOM     23  C   UNL     1       1.626   8.788  19.815  0.00  0.00    +0.000 C 
BRANCH  23  24
ATOM     24  C   UNL     1       0.772   9.502  20.838  0.00  0.00    +0.000 A 
ATOM     25  C   UNL     1       0.220   8.793  21.935  0.00  0.00    +0.000 A 
ATOM     26  C   UNL     1      -0.547   9.445  22.911  0.00  0.00    +0.000 A 
ATOM     27  C   UNL     1      -0.743  10.801  22.770  0.00  0.00    +0.000 A 
ATOM     28  C   UNL     1      -0.238  11.495  21.696  0.00  0.00    +0.000 A 
ATOM     29  C   UNL     1       0.507  10.877  20.711  0.00  0.00    +0.000 A 
ATOM     30  O   UNL     1      -0.548  12.820  21.743  0.00  0.00    +0.000 OA
ATOM     31  C   UNL     1      -1.210  12.895  23.024  0.00  0.00    +0.000 C 
ATOM     32  O   UNL     1      -1.424  11.604  23.631  0.00  0.00    +0.000 OA
ENDBRANCH  23  24
ENDBRANCH  21  23
ENDBRANCH   6  19
TORSDOF 6
ENDMDL
