MODEL 1
REMARK VINA RESULT:      -8.3      0.000      0.000
REMARK  Name = 
REMARK  7 active torsions:
REMARK  status: ('A' for Active; 'I' for Inactive)
REMARK    1  A    between atoms: C_1  and  N_2
REMARK    2  A    between atoms: C_6  and  C_7
REMARK    3  A    between atoms: C_7  and  C_8
REMARK    4  A    between atoms: C_8  and  C_9
REMARK    5  A    between atoms: C_13  and  N_14
REMARK    6  A    between atoms: C_17  and  C_18
REMARK    7  A    between atoms: C_18  and  C_19
REMARK                            x       y       z     vdW  Elec       q    Type
REMARK                         _______ _______ _______ _____ _____    ______ ____
ROOT
ATOM      1  C   UNL     1       5.450   6.219  18.160  0.00  0.00    +0.000 A 
ATOM      2  C   UNL     1       4.632   7.092  17.424  0.00  0.00    +0.000 A 
ATOM      3  C   UNL     1       3.247   7.097  17.582  0.00  0.00    +0.000 A 
ATOM      4  C   UNL     1       2.643   6.205  18.467  0.00  0.00    +0.000 A 
ATOM      5  C   UNL     1       3.401   5.293  19.210  0.00  0.00    +0.000 A 
ATOM      6  C   UNL     1       4.790   5.344  19.057  0.00  0.00    +0.000 A 
ENDROOT
BRANCH   1   7
ATOM      7  C   UNL     1       7.042   6.158  17.979  0.00  0.00    +0.000 C 
ATOM      8  C   UNL     1       7.790   7.445  17.547  0.00  0.00    +0.000 C 
ATOM      9  O   UNL     1       8.578   7.470  18.756  0.00  0.00    +0.000 OA
ATOM     10  C   UNL     1       7.872   6.333  19.285  0.00  0.00    +0.000 C 
BRANCH   7  11
ATOM     11  C   UNL     1       7.446   4.869  17.233  0.00  0.00    +0.000 C 
BRANCH  11  17
ATOM     12  C   UNL     1       4.869   3.483  15.969  0.00  0.00    +0.000 C 
ATOM     13  N   UNL     1       5.930   4.170  15.282  0.00  0.00    +0.000 N 
ATOM     14  C   UNL     1       6.029   4.284  13.926  0.00  0.00    +0.000 A 
ATOM     15  N   UNL     1       7.096   4.983  13.622  0.00  0.00    +0.000 NA
ATOM     16  N   UNL     1       7.718   5.322  14.797  0.00  0.00    +0.000 NA
ATOM     17  C   UNL     1       7.028   4.816  15.800  0.00  0.00    +0.000 A 
ENDBRANCH  11  17
ENDBRANCH   7  11
ENDBRANCH   1   7
BRANCH   5  18
ATOM     18  N   UNL     1       2.764   4.340  20.028  0.00  0.00    +0.000 N 
ATOM     19  C   UNL     1       2.102   4.579  21.277  0.00  0.00    +0.000 C 
ATOM     20  C   UNL     1       1.490   3.237  21.016  0.00  0.00    +0.000 C 
ATOM     21  C   UNL     1       2.166   3.177  19.839  0.00  0.00    +0.000 C 
BRANCH  21  22
ATOM     22  C   UNL     1       2.156   2.074  18.755  0.00  0.00    +0.000 C 
ATOM     23  C   UNL     1       3.480   1.343  18.656  0.00  0.00    +0.000 C 
ATOM     24  F   UNL     1       1.167   1.169  18.983  0.00  0.00    +0.000 F 
ATOM     25  F   UNL     1       1.905   2.614  17.525  0.00  0.00    +0.000 F 
ENDBRANCH  21  22
ENDBRANCH   5  18
TORSDOF 5
ENDMDL
MODEL 2
REMARK VINA RESULT:      -8.0      1.220      1.879
REMARK  Name = 
REMARK  7 active torsions:
REMARK  status: ('A' for Active; 'I' for Inactive)
REMARK    1  A    between atoms: C_1  and  N_2
REMARK    2  A    between atoms: C_6  and  C_7
REMARK    3  A    between atoms: C_7  and  C_8
REMARK    4  A    between atoms: C_8  and  C_9
REMARK    5  A    between atoms: C_13  and  N_14
REMARK    6  A    between atoms: C_17  and  C_18
REMARK    7  A    between atoms: C_18  and  C_19
REMARK                            x       y       z     vdW  Elec       q    Type
REMARK                         _______ _______ _______ _____ _____    ______ ____
ROOT
ATOM      1  C   UNL     1       5.327   5.962  17.920  0.00  0.00    +0.000 A 
ATOM      2  C   UNL     1       4.554   7.096  17.620  0.00  0.00    +0.000 A 
ATOM      3  C   UNL     1       3.162   7.062  17.678  0.00  0.00    +0.000 A 
ATOM      4  C   UNL     1       2.506   5.879  18.015  0.00  0.00    +0.000 A 
ATOM      5  C   UNL     1       3.219   4.708  18.300  0.00  0.00    +0.000 A 
ATOM      6  C   UNL     1       4.615   4.790  18.272  0.00  0.00    +0.000 A 
ENDROOT
BRANCH   1   7
ATOM      7  C   UNL     1       6.928   5.951  17.828  0.00  0.00    +0.000 C 
ATOM      8  C   UNL     1       7.662   7.279  17.508  0.00  0.00    +0.000 C 
ATOM      9  O   UNL     1       8.380   7.258  18.760  0.00  0.00    +0.000 OA
ATOM     10  C   UNL     1       7.678   6.077  19.186  0.00  0.00    +0.000 C 
BRANCH   7  11
ATOM     11  C   UNL     1       7.410   4.716  17.039  0.00  0.00    +0.000 C 
BRANCH  11  17
ATOM     12  C   UNL     1       5.274   3.015  15.394  0.00  0.00    +0.000 C 
ATOM     13  N   UNL     1       6.220   3.973  14.888  0.00  0.00    +0.000 N 
ATOM     14  C   UNL     1       6.396   4.265  13.567  0.00  0.00    +0.000 A 
ATOM     15  N   UNL     1       7.317   5.190  13.442  0.00  0.00    +0.000 NA
ATOM     16  N   UNL     1       7.766   5.501  14.700  0.00  0.00    +0.000 NA
ATOM     17  C   UNL     1       7.121   4.754  15.574  0.00  0.00    +0.000 A 
ENDBRANCH  11  17
ENDBRANCH   7  11
ENDBRANCH   1   7
BRANCH   5  18
ATOM     18  N   UNL     1       2.536   3.503  18.548  0.00  0.00    +0.000 N 
ATOM     19  C   UNL     1       2.429   2.375  17.670  0.00  0.00    +0.000 C 
ATOM     20  C   UNL     1       2.023   1.655  18.918  0.00  0.00    +0.000 C 
ATOM     21  C   UNL     1       2.202   2.805  19.619  0.00  0.00    +0.000 C 
BRANCH  21  22
ATOM     22  C   UNL     1       2.032   3.070  21.133  0.00  0.00    +0.000 C 
ATOM     23  C   UNL     1       2.195   4.534  21.490  0.00  0.00    +0.000 C 
ATOM     24  F   UNL     1       0.820   2.639  21.576  0.00  0.00    +0.000 F 
ATOM     25  F   UNL     1       2.969   2.379  21.848  0.00  0.00    +0.000 F 
ENDBRANCH  21  22
ENDBRANCH   5  18
TORSDOF 5
ENDMDL
MODEL 3
REMARK VINA RESULT:      -7.6      2.147      3.310
REMARK  Name = 
REMARK  7 active torsions:
REMARK  status: ('A' for Active; 'I' for Inactive)
REMARK    1  A    between atoms: C_1  and  N_2
REMARK    2  A    between atoms: C_6  and  C_7
REMARK    3  A    between atoms: C_7  and  C_8
REMARK    4  A    between atoms: C_8  and  C_9
REMARK    5  A    between atoms: C_13  and  N_14
REMARK    6  A    between atoms: C_17  and  C_18
REMARK    7  A    between atoms: C_18  and  C_19
REMARK                            x       y       z     vdW  Elec       q    Type
REMARK                         _______ _______ _______ _____ _____    ______ ____
ROOT
ATOM      1  C   UNL     1       4.829   5.791  16.703  0.00  0.00    +0.000 A 
ATOM      2  C   UNL     1       4.499   7.147  16.542  0.00  0.00    +0.000 A 
ATOM      3  C   UNL     1       3.549   7.764  17.354  0.00  0.00    +0.000 A 
ATOM      4  C   UNL     1       2.886   7.029  18.335  0.00  0.00    +0.000 A 
ATOM      5  C   UNL     1       3.152   5.668  18.528  0.00  0.00    +0.000 A 
ATOM      6  C   UNL     1       4.140   5.091  17.723  0.00  0.00    +0.000 A 
ENDROOT
BRANCH   1   7
ATOM      7  C   UNL     1       5.888   5.036  15.765  0.00  0.00    +0.000 C 
ATOM      8  C   UNL     1       5.707   3.517  15.513  0.00  0.00    +0.000 C 
ATOM      9  O   UNL     1       5.558   3.705  14.090  0.00  0.00    +0.000 OA
ATOM     10  C   UNL     1       5.619   5.135  14.235  0.00  0.00    +0.000 C 
BRANCH   7  11
ATOM     11  C   UNL     1       7.323   5.489  16.107  0.00  0.00    +0.000 C 
BRANCH  11  17
ATOM     12  C   UNL     1       7.856   8.167  17.751  0.00  0.00    +0.000 C 
ATOM     13  N   UNL     1       7.871   6.813  18.238  0.00  0.00    +0.000 N 
ATOM     14  C   UNL     1       8.189   6.452  19.514  0.00  0.00    +0.000 A 
ATOM     15  N   UNL     1       8.089   5.151  19.639  0.00  0.00    +0.000 NA
ATOM     16  N   UNL     1       7.714   4.645  18.420  0.00  0.00    +0.000 NA
ATOM     17  C   UNL     1       7.602   5.644  17.567  0.00  0.00    +0.000 A 
ENDBRANCH  11  17
ENDBRANCH   7  11
ENDBRANCH   1   7
BRANCH   5  18
ATOM     18  N   UNL     1       2.405   4.924  19.461  0.00  0.00    +0.000 N 
ATOM     19  C   UNL     1       1.729   5.424  20.622  0.00  0.00    +0.000 C 
ATOM     20  C   UNL     1       1.005   4.114  20.557  0.00  0.00    +0.000 C 
ATOM     21  C   UNL     1       1.710   3.800  19.438  0.00  0.00    +0.000 C 
BRANCH  21  22
ATOM     22  C   UNL     1       1.633   2.536  18.551  0.00  0.00    +0.000 C 
ATOM     23  C   UNL     1       2.669   1.495  18.930  0.00  0.00    +0.000 C 
ATOM     24  F   UNL     1       0.398   1.970  18.606  0.00  0.00    +0.000 F 
ATOM     25  F   UNL     1       1.851   2.856  17.241  0.00  0.00    +0.000 F 
ENDBRANCH  21  22
ENDBRANCH   5  18
TORSDOF 5
ENDMDL
MODEL 4
REMARK VINA RESULT:      -7.4      2.498      3.724
REMARK  Name = 
REMARK  7 active torsions:
REMARK  status: ('A' for Active; 'I' for Inactive)
REMARK    1  A    between atoms: C_1  and  N_2
REMARK    2  A    between atoms: C_6  and  C_7
REMARK    3  A    between atoms: C_7  and  C_8
REMARK    4  A    between atoms: C_8  and  C_9
REMARK    5  A    between atoms: C_13  and  N_14
REMARK    6  A    between atoms: C_17  and  C_18
REMARK    7  A    between atoms: C_18  and  C_19
REMARK                            x       y       z     vdW  Elec       q    Type
REMARK                         _______ _______ _______ _____ _____    ______ ____
ROOT
ATOM      1  C   UNL     1       4.617   5.530  16.746  0.00  0.00    +0.000 A 
ATOM      2  C   UNL     1       4.404   6.900  16.971  0.00  0.00    +0.000 A 
ATOM      3  C   UNL     1       3.364   7.350  17.782  0.00  0.00    +0.000 A 
ATOM      4  C   UNL     1       2.492   6.435  18.370  0.00  0.00    +0.000 A 
ATOM      5  C   UNL     1       2.636   5.058  18.164  0.00  0.00    +0.000 A 
ATOM      6  C   UNL     1       3.715   4.640  17.378  0.00  0.00    +0.000 A 
ENDROOT
BRANCH   1   7
ATOM      7  C   UNL     1       5.779   4.976  15.790  0.00  0.00    +0.000 C 
ATOM      8  C   UNL     1       5.878   3.447  15.551  0.00  0.00    +0.000 C 
ATOM      9  O   UNL     1       5.669   3.591  14.130  0.00  0.00    +0.000 OA
ATOM     10  C   UNL     1       5.467   5.009  14.265  0.00  0.00    +0.000 C 
BRANCH   7  11
ATOM     11  C   UNL     1       7.111   5.690  16.100  0.00  0.00    +0.000 C 
BRANCH  11  17
ATOM     12  C   UNL     1       7.896   8.243  17.839  0.00  0.00    +0.000 C 
ATOM     13  N   UNL     1       7.844   6.869  18.260  0.00  0.00    +0.000 N 
ATOM     14  C   UNL     1       8.197   6.426  19.501  0.00  0.00    +0.000 A 
ATOM     15  N   UNL     1       8.018   5.129  19.570  0.00  0.00    +0.000 NA
ATOM     16  N   UNL     1       7.554   4.709  18.349  0.00  0.00    +0.000 NA
ATOM     17  C   UNL     1       7.468   5.754  17.550  0.00  0.00    +0.000 A 
ENDBRANCH  11  17
ENDBRANCH   7  11
ENDBRANCH   1   7
BRANCH   5  18
ATOM     18  N   UNL     1       1.690   4.158  18.691  0.00  0.00    +0.000 N 
ATOM     19  C   UNL     1       0.701   3.419  17.962  0.00  0.00    +0.000 C 
ATOM     20  C   UNL     1       0.647   2.589  19.207  0.00  0.00    +0.000 C 
ATOM     21  C   UNL     1       1.619   3.370  19.749  0.00  0.00    +0.000 C 
BRANCH  21  22
ATOM     22  C   UNL     1       2.306   3.266  21.130  0.00  0.00    +0.000 C 
ATOM     23  C   UNL     1       3.628   2.526  21.069  0.00  0.00    +0.000 C 
ATOM     24  F   UNL     1       2.512   4.496  21.672  0.00  0.00    +0.000 F 
ATOM     25  F   UNL     1       1.511   2.588  22.011  0.00  0.00    +0.000 F 
ENDBRANCH  21  22
ENDBRANCH   5  18
TORSDOF 5
ENDMDL
MODEL 5
REMARK VINA RESULT:      -7.4      1.199      1.365
REMARK  Name = 
REMARK  7 active torsions:
REMARK  status: ('A' for Active; 'I' for Inactive)
REMARK    1  A    between atoms: C_1  and  N_2
REMARK    2  A    between atoms: C_6  and  C_7
REMARK    3  A    between atoms: C_7  and  C_8
REMARK    4  A    between atoms: C_8  and  C_9
REMARK    5  A    between atoms: C_13  and  N_14
REMARK    6  A    between atoms: C_17  and  C_18
REMARK    7  A    between atoms: C_18  and  C_19
REMARK                            x       y       z     vdW  Elec       q    Type
REMARK                         _______ _______ _______ _____ _____    ______ ____
ROOT
ATOM      1  C   UNL     1       5.409   6.418  18.063  0.00  0.00    +0.000 A 
ATOM      2  C   UNL     1       4.603   7.233  17.252  0.00  0.00    +0.000 A 
ATOM      3  C   UNL     1       3.219   7.273  17.410  0.00  0.00    +0.000 A 
ATOM      4  C   UNL     1       2.603   6.474  18.372  0.00  0.00    +0.000 A 
ATOM      5  C   UNL     1       3.349   5.622  19.195  0.00  0.00    +0.000 A 
ATOM      6  C   UNL     1       4.739   5.638  19.036  0.00  0.00    +0.000 A 
ENDROOT
BRANCH   1   7
ATOM      7  C   UNL     1       7.000   6.317  17.888  0.00  0.00    +0.000 C 
ATOM      8  C   UNL     1       7.769   7.556  17.362  0.00  0.00    +0.000 C 
ATOM      9  O   UNL     1       8.559   7.657  18.566  0.00  0.00    +0.000 OA
ATOM     10  C   UNL     1       7.835   6.574  19.177  0.00  0.00    +0.000 C 
BRANCH   7  11
ATOM     11  C   UNL     1       7.381   4.970  17.239  0.00  0.00    +0.000 C 
BRANCH  11  17
ATOM     12  C   UNL     1       4.753   3.502  16.191  0.00  0.00    +0.000 C 
ATOM     13  N   UNL     1       5.793   4.118  15.410  0.00  0.00    +0.000 N 
ATOM     14  C   UNL     1       5.844   4.112  14.047  0.00  0.00    +0.000 A 
ATOM     15  N   UNL     1       6.904   4.772  13.646  0.00  0.00    +0.000 NA
ATOM     16  N   UNL     1       7.569   5.207  14.764  0.00  0.00    +0.000 NA
ATOM     17  C   UNL     1       6.912   4.796  15.831  0.00  0.00    +0.000 A 
ENDBRANCH  11  17
ENDBRANCH   7  11
ENDBRANCH   1   7
BRANCH   5  18
ATOM     18  N   UNL     1       2.699   4.757  20.095  0.00  0.00    +0.000 N 
ATOM     19  C   UNL     1       1.376   4.899  20.627  0.00  0.00    +0.000 C 
ATOM     20  C   UNL     1       1.539   3.450  20.967  0.00  0.00    +0.000 C 
ATOM     21  C   UNL     1       2.770   3.472  20.393  0.00  0.00    +0.000 C 
BRANCH  21  22
ATOM     22  C   UNL     1       3.795   2.326  20.222  0.00  0.00    +0.000 C 
ATOM     23  C   UNL     1       3.418   1.369  19.108  0.00  0.00    +0.000 C 
ATOM     24  F   UNL     1       5.043   2.812  19.985  0.00  0.00    +0.000 F 
ATOM     25  F   UNL     1       3.883   1.587  21.368  0.00  0.00    +0.000 F 
ENDBRANCH  21  22
ENDBRANCH   5  18
TORSDOF 5
ENDMDL
MODEL 6
REMARK VINA RESULT:      -7.3      4.540      6.774
REMARK  Name = 
REMARK  7 active torsions:
REMARK  status: ('A' for Active; 'I' for Inactive)
REMARK    1  A    between atoms: C_1  and  N_2
REMARK    2  A    between atoms: C_6  and  C_7
REMARK    3  A    between atoms: C_7  and  C_8
REMARK    4  A    between atoms: C_8  and  C_9
REMARK    5  A    between atoms: C_13  and  N_14
REMARK    6  A    between atoms: C_17  and  C_18
REMARK    7  A    between atoms: C_18  and  C_19
REMARK                            x       y       z     vdW  Elec       q    Type
REMARK                         _______ _______ _______ _____ _____    ______ ____
ROOT
ATOM      1  C   UNL     1       2.498   7.396  18.666  0.00  0.00    +0.000 A 
ATOM      2  C   UNL     1       2.527   8.332  17.619  0.00  0.00    +0.000 A 
ATOM      3  C   UNL     1       1.939   9.589  17.752  0.00  0.00    +0.000 A 
ATOM      4  C   UNL     1       1.284   9.931  18.934  0.00  0.00    +0.000 A 
ATOM      5  C   UNL     1       1.199   9.033  20.005  0.00  0.00    +0.000 A 
ATOM      6  C   UNL     1       1.835   7.797  19.851  0.00  0.00    +0.000 A 
ENDROOT
BRANCH   1   7
ATOM      7  C   UNL     1       3.130   5.928  18.537  0.00  0.00    +0.000 C 
ATOM      8  C   UNL     1       4.088   5.632  17.354  0.00  0.00    +0.000 C 
ATOM      9  O   UNL     1       5.186   5.323  18.238  0.00  0.00    +0.000 OA
ATOM     10  C   UNL     1       4.403   5.668  19.395  0.00  0.00    +0.000 C 
BRANCH   7  11
ATOM     11  C   UNL     1       2.052   4.857  18.806  0.00  0.00    +0.000 C 
BRANCH  11  17
ATOM     12  C   UNL     1       3.518   2.035  19.026  0.00  0.00    +0.000 C 
ATOM     13  N   UNL     1       2.884   2.786  20.076  0.00  0.00    +0.000 N 
ATOM     14  C   UNL     1       2.755   2.358  21.365  0.00  0.00    +0.000 A 
ATOM     15  N   UNL     1       2.150   3.280  22.074  0.00  0.00    +0.000 NA
ATOM     16  N   UNL     1       1.861   4.326  21.235  0.00  0.00    +0.000 NA
ATOM     17  C   UNL     1       2.285   4.022  20.023  0.00  0.00    +0.000 A 
ENDBRANCH  11  17
ENDBRANCH   7  11
ENDBRANCH   1   7
BRANCH   5  18
ATOM     18  N   UNL     1       0.454   9.364  21.152  0.00  0.00    +0.000 N 
ATOM     19  C   UNL     1       0.714   8.951  22.500  0.00  0.00    +0.000 C 
ATOM     20  C   UNL     1      -0.201  10.084  22.846  0.00  0.00    +0.000 C 
ATOM     21  C   UNL     1      -0.320  10.369  21.522  0.00  0.00    +0.000 C 
BRANCH  21  22
ATOM     22  C   UNL     1      -1.118  11.497  20.828  0.00  0.00    +0.000 C 
ATOM     23  C   UNL     1      -0.277  12.732  20.571  0.00  0.00    +0.000 C 
ATOM     24  F   UNL     1      -1.650  11.071  19.651  0.00  0.00    +0.000 F 
ATOM     25  F   UNL     1      -2.171  11.887  21.606  0.00  0.00    +0.000 F 
ENDBRANCH  21  22
ENDBRANCH   5  18
TORSDOF 5
ENDMDL
MODEL 7
REMARK VINA RESULT:      -7.2      4.230      5.840
REMARK  Name = 
REMARK  7 active torsions:
REMARK  status: ('A' for Active; 'I' for Inactive)
REMARK    1  A    between atoms: C_1  and  N_2
REMARK    2  A    between atoms: C_6  and  C_7
REMARK    3  A    between atoms: C_7  and  C_8
REMARK    4  A    between atoms: C_8  and  C_9
REMARK    5  A    between atoms: C_13  and  N_14
REMARK    6  A    between atoms: C_17  and  C_18
REMARK    7  A    between atoms: C_18  and  C_19
REMARK                            x       y       z     vdW  Elec       q    Type
REMARK                         _______ _______ _______ _____ _____    ______ ____
ROOT
ATOM      1  C   UNL     1       2.873   6.026  18.757  0.00  0.00    +0.000 A 
ATOM      2  C   UNL     1       3.241   6.737  17.603  0.00  0.00    +0.000 A 
ATOM      3  C   UNL     1       2.947   8.092  17.461  0.00  0.00    +0.000 A 
ATOM      4  C   UNL     1       2.252   8.765  18.465  0.00  0.00    +0.000 A 
ATOM      5  C   UNL     1       1.835   8.105  19.628  0.00  0.00    +0.000 A 
ATOM      6  C   UNL     1       2.183   6.756  19.754  0.00  0.00    +0.000 A 
ENDROOT
BRANCH   1   7
ATOM      7  C   UNL     1       3.160   4.459  18.941  0.00  0.00    +0.000 C 
ATOM      8  C   UNL     1       3.002   3.836  20.352  0.00  0.00    +0.000 C 
ATOM      9  O   UNL     1       1.967   2.933  19.908  0.00  0.00    +0.000 OA
ATOM     10  C   UNL     1       1.973   3.514  18.592  0.00  0.00    +0.000 C 
BRANCH   7  11
ATOM     11  C   UNL     1       4.436   4.056  18.173  0.00  0.00    +0.000 C 
BRANCH  11  17
ATOM     12  C   UNL     1       6.593   5.552  16.366  0.00  0.00    +0.000 C 
ATOM     13  N   UNL     1       6.613   5.363  17.792  0.00  0.00    +0.000 N 
ATOM     14  C   UNL     1       7.629   5.758  18.612  0.00  0.00    +0.000 A 
ATOM     15  N   UNL     1       7.332   5.457  19.853  0.00  0.00    +0.000 NA
ATOM     16  N   UNL     1       6.106   4.841  19.849  0.00  0.00    +0.000 NA
ATOM     17  C   UNL     1       5.679   4.764  18.604  0.00  0.00    +0.000 A 
ENDBRANCH  11  17
ENDBRANCH   7  11
ENDBRANCH   1   7
BRANCH   5  18
ATOM     18  N   UNL     1       1.055   8.780  20.586  0.00  0.00    +0.000 N 
ATOM     19  C   UNL     1       1.275   8.826  22.001  0.00  0.00    +0.000 C 
ATOM     20  C   UNL     1       0.347   9.999  21.938  0.00  0.00    +0.000 C 
ATOM     21  C   UNL     1       0.268   9.840  20.590  0.00  0.00    +0.000 C 
BRANCH  21  22
ATOM     22  C   UNL     1      -0.512  10.675  19.547  0.00  0.00    +0.000 C 
ATOM     23  C   UNL     1       0.313  11.811  18.975  0.00  0.00    +0.000 C 
ATOM     24  F   UNL     1      -0.958   9.895  18.526  0.00  0.00    +0.000 F 
ATOM     25  F   UNL     1      -1.621  11.235  20.115  0.00  0.00    +0.000 F 
ENDBRANCH  21  22
ENDBRANCH   5  18
TORSDOF 5
ENDMDL
MODEL 8
REMARK VINA RESULT:      -7.1      4.846      6.877
REMARK  Name = 
REMARK  7 active torsions:
REMARK  status: ('A' for Active; 'I' for Inactive)
REMARK    1  A    between atoms: C_1  and  N_2
REMARK    2  A    between atoms: C_6  and  C_7
REMARK    3  A    between atoms: C_7  and  C_8
REMARK    4  A    between atoms: C_8  and  C_9
REMARK    5  A    between atoms: C_13  and  N_14
REMARK    6  A    between atoms: C_17  and  C_18
REMARK    7  A    between atoms: C_18  and  C_19
REMARK                            x       y       z     vdW  Elec       q    Type
REMARK                         _______ _______ _______ _____ _____    ______ ____
ROOT
ATOM      1  C   UNL     1       2.439   7.479  18.983  0.00  0.00    +0.000 A 
ATOM      2  C   UNL     1       2.505   8.328  17.866  0.00  0.00    +0.000 A 
ATOM      3  C   UNL     1       1.861   9.564  17.855  0.00  0.00    +0.000 A 
ATOM      4  C   UNL     1       1.112   9.971  18.958  0.00  0.00    +0.000 A 
ATOM      5  C   UNL     1       0.987   9.159  20.091  0.00  0.00    +0.000 A 
ATOM      6  C   UNL     1       1.679   7.943  20.084  0.00  0.00    +0.000 A 
ENDROOT
BRANCH   1   7
ATOM      7  C   UNL     1       3.134   6.034  19.019  0.00  0.00    +0.000 C 
ATOM      8  C   UNL     1       3.358   5.283  17.681  0.00  0.00    +0.000 C 
ATOM      9  O   UNL     1       4.790   5.261  17.859  0.00  0.00    +0.000 OA
ATOM     10  C   UNL     1       4.691   6.040  19.064  0.00  0.00    +0.000 C 
BRANCH   7  11
ATOM     11  C   UNL     1       2.549   5.188  20.169  0.00  0.00    +0.000 C 
BRANCH  11  17
ATOM     12  C   UNL     1       4.122   2.420  20.012  0.00  0.00    +0.000 C 
ATOM     13  N   UNL     1       2.750   2.678  19.663  0.00  0.00    +0.000 N 
ATOM     14  C   UNL     1       1.899   1.754  19.133  0.00  0.00    +0.000 A 
ATOM     15  N   UNL     1       0.720   2.299  18.948  0.00  0.00    +0.000 NA
ATOM     16  N   UNL     1       0.802   3.609  19.348  0.00  0.00    +0.000 NA
ATOM     17  C   UNL     1       2.032   3.846  19.762  0.00  0.00    +0.000 A 
ENDBRANCH  11  17
ENDBRANCH   7  11
ENDBRANCH   1   7
BRANCH   5  18
ATOM     18  N   UNL     1       0.151   9.547  21.155  0.00  0.00    +0.000 N 
ATOM     19  C   UNL     1      -0.277   8.737  22.257  0.00  0.00    +0.000 C 
ATOM     20  C   UNL     1      -0.611  10.057  22.880  0.00  0.00    +0.000 C 
ATOM     21  C   UNL     1      -0.135  10.681  21.770  0.00  0.00    +0.000 C 
BRANCH  21  22
ATOM     22  C   UNL     1      -0.029  12.193  21.462  0.00  0.00    +0.000 C 
ATOM     23  C   UNL     1      -0.973  12.629  20.359  0.00  0.00    +0.000 C 
ATOM     24  F   UNL     1      -0.271  12.940  22.572  0.00  0.00    +0.000 F 
ATOM     25  F   UNL     1       1.235  12.511  21.054  0.00  0.00    +0.000 F 
ENDBRANCH  21  22
ENDBRANCH   5  18
TORSDOF 5
ENDMDL
MODEL 9
REMARK VINA RESULT:      -7.1      0.995      1.568
REMARK  Name = 
REMARK  7 active torsions:
REMARK  status: ('A' for Active; 'I' for Inactive)
REMARK    1  A    between atoms: C_1  and  N_2
REMARK    2  A    between atoms: C_6  and  C_7
REMARK    3  A    between atoms: C_7  and  C_8
REMARK    4  A    between atoms: C_8  and  C_9
REMARK    5  A    between atoms: C_13  and  N_14
REMARK    6  A    between atoms: C_17  and  C_18
REMARK    7  A    between atoms: C_18  and  C_19
REMARK                            x       y       z     vdW  Elec       q    Type
REMARK                         _______ _______ _______ _____ _____    ______ ____
ROOT
ATOM      1  C   UNL     1       5.238   6.292  17.844  0.00  0.00    +0.000 A 
ATOM      2  C   UNL     1       4.574   7.395  17.284  0.00  0.00    +0.000 A 
ATOM      3  C   UNL     1       3.229   7.645  17.552  0.00  0.00    +0.000 A 
ATOM      4  C   UNL     1       2.507   6.777  18.370  0.00  0.00    +0.000 A 
ATOM      5  C   UNL     1       3.106   5.646  18.937  0.00  0.00    +0.000 A 
ATOM      6  C   UNL     1       4.467   5.449  18.680  0.00  0.00    +0.000 A 
ENDROOT
BRANCH   1   7
ATOM      7  C   UNL     1       6.774   5.950  17.531  0.00  0.00    +0.000 C 
ATOM      8  C   UNL     1       7.858   6.417  18.536  0.00  0.00    +0.000 C 
ATOM      9  O   UNL     1       8.286   5.064  18.801  0.00  0.00    +0.000 OA
ATOM     10  C   UNL     1       7.247   4.531  17.961  0.00  0.00    +0.000 C 
BRANCH   7  11
ATOM     11  C   UNL     1       7.087   6.212  16.043  0.00  0.00    +0.000 C 
BRANCH  11  17
ATOM     12  C   UNL     1       8.213   5.486  13.151  0.00  0.00    +0.000 C 
ATOM     13  N   UNL     1       7.106   4.885  13.844  0.00  0.00    +0.000 N 
ATOM     14  C   UNL     1       6.299   3.916  13.323  0.00  0.00    +0.000 A 
ATOM     15  N   UNL     1       5.400   3.570  14.212  0.00  0.00    +0.000 NA
ATOM     16  N   UNL     1       5.608   4.334  15.332  0.00  0.00    +0.000 NA
ATOM     17  C   UNL     1       6.625   5.144  15.106  0.00  0.00    +0.000 A 
ENDBRANCH  11  17
ENDBRANCH   7  11
ENDBRANCH   1   7
BRANCH   5  18
ATOM     18  N   UNL     1       2.336   4.734  19.684  0.00  0.00    +0.000 N 
ATOM     19  C   UNL     1       1.482   5.033  20.795  0.00  0.00    +0.000 C 
ATOM     20  C   UNL     1       0.909   3.681  20.502  0.00  0.00    +0.000 C 
ATOM     21  C   UNL     1       1.768   3.564  19.455  0.00  0.00    +0.000 C 
BRANCH  21  22
ATOM     22  C   UNL     1       1.926   2.409  18.438  0.00  0.00    +0.000 C 
ATOM     23  C   UNL     1       3.188   1.600  18.666  0.00  0.00    +0.000 C 
ATOM     24  F   UNL     1       0.853   1.575  18.470  0.00  0.00    +0.000 F 
ATOM     25  F   UNL     1       1.992   2.900  17.164  0.00  0.00    +0.000 F 
ENDBRANCH  21  22
ENDBRANCH   5  18
TORSDOF 5
ENDMDL
