MODEL 1
REMARK VINA RESULT:      -8.0      0.000      0.000
REMARK  Name = 
REMARK  10 active torsions:
REMARK  status: ('A' for Active; 'I' for Inactive)
REMARK    1  A    between atoms: C_1  and  C_2
REMARK    2  A    between atoms: C_3  and  N_4
REMARK    3  A    between atoms: N_4  and  C_5
REMARK    4  A    between atoms: C_5  and  C_6
REMARK    5  A    between atoms: N_10  and  C_11
REMARK    6  A    between atoms: C_15  and  N_16
REMARK    7  A    between atoms: C_21  and  C_22
REMARK    8  A    between atoms: C_22  and  C_23
REMARK    9  A    between atoms: C_22  and  N_24
REMARK   10  A    between atoms: C_26  and  C_27
REMARK                            x       y       z     vdW  Elec       q    Type
REMARK                         _______ _______ _______ _____ _____    ______ ____
ROOT
ATOM      1  N   UNL     1       2.560   7.096  19.499  0.00  0.00    +0.000 N 
ATOM      2  C   UNL     1       2.038   7.763  20.690  0.00  0.00    +0.000 C 
ATOM      3  C   UNL     1       1.181   8.849  20.122  0.00  0.00    +0.000 A 
ATOM      4  C   UNL     1       1.541   9.050  18.795  0.00  0.00    +0.000 A 
ATOM      5  C   UNL     1       0.746   9.731  17.893  0.00  0.00    +0.000 A 
ATOM      6  C   UNL     1      -0.488  10.212  18.354  0.00  0.00    +0.000 A 
ATOM      7  C   UNL     1      -0.791  10.121  19.737  0.00  0.00    +0.000 A 
ATOM      8  C   UNL     1       0.053   9.457  20.650  0.00  0.00    +0.000 A 
ATOM      9  C   UNL     1       2.547   8.042  18.443  0.00  0.00    +0.000 C 
ATOM     10  O   UNL     1       3.067   7.969  17.339  0.00  0.00    +0.000 OA
ENDROOT
BRANCH   1  17
ATOM     11  C   UNL     1       2.281   4.713  21.381  0.00  0.00    +0.000 C 
ATOM     12  C   UNL     1       2.269   4.667  19.877  0.00  0.00    +0.000 A 
ATOM     13  C   UNL     1       2.398   3.458  19.159  0.00  0.00    +0.000 A 
ATOM     14  C   UNL     1       1.751   3.352  17.912  0.00  0.00    +0.000 A 
ATOM     15  C   UNL     1       1.146   4.453  17.320  0.00  0.00    +0.000 A 
ATOM     16  C   UNL     1       1.307   5.693  17.902  0.00  0.00    +0.000 A 
ATOM     17  C   UNL     1       1.967   5.825  19.139  0.00  0.00    +0.000 A 
BRANCH  13  18
ATOM     18  N   UNL     1       3.078   2.298  19.626  0.00  0.00    +0.000 N 
ATOM     19  H   UNL     1       2.646   1.503  19.153  0.00  0.00    +0.000 HD
BRANCH  18  20
ATOM     20  C   UNL     1       4.531   2.268  19.368  0.00  0.00    +0.000 C 
BRANCH  20  21
ATOM     21  C   UNL     1       5.220   3.576  19.145  0.00  0.00    +0.000 A 
ATOM     22  N   UNL     1       5.780   4.313  20.086  0.00  0.00    +0.000 NA
ATOM     23  N   UNL     1       6.413   5.374  19.487  0.00  0.00    +0.000 NA
ATOM     24  C   UNL     1       6.219   5.269  18.195  0.00  0.00    +0.000 A 
ATOM     25  N   UNL     1       5.467   4.164  17.934  0.00  0.00    +0.000 N 
ATOM     26  C   UNL     1       5.051   3.718  16.635  0.00  0.00    +0.000 C 
ENDBRANCH  20  21
ENDBRANCH  18  20
ENDBRANCH  13  18
ENDBRANCH   1  17
BRANCH   8  27
ATOM     27  C   UNL     1      -0.337   9.316  22.097  0.00  0.00    +0.000 C 
ATOM     28  F   UNL     1      -1.188  10.288  22.532  0.00  0.00    +0.000 F 
ATOM     29  F   UNL     1      -0.970   8.138  22.348  0.00  0.00    +0.000 F 
ATOM     30  F   UNL     1       0.732   9.359  22.935  0.00  0.00    +0.000 F 
ENDBRANCH   8  27
BRANCH   6  31
ATOM     31  C   UNL     1      -1.563  10.650  17.373  0.00  0.00    +0.000 C 
ATOM     32  C   UNL     1      -2.917   9.996  17.636  0.00  0.00    +0.000 C 
BRANCH  31  33
ATOM     33  N   UNL     1      -1.682  12.112  17.393  0.00  0.00    +0.000 NA
ATOM     34  H   UNL     1      -1.777  12.436  18.355  0.00  0.00    +0.000 HD
ATOM     35  H   UNL     1      -2.544  12.389  16.926  0.00  0.00    +0.000 HD
ENDBRANCH  31  33
ENDBRANCH   6  31
TORSDOF 7
ENDMDL
MODEL 2
REMARK VINA RESULT:      -7.8      1.403      1.840
REMARK  Name = 
REMARK  10 active torsions:
REMARK  status: ('A' for Active; 'I' for Inactive)
REMARK    1  A    between atoms: C_1  and  C_2
REMARK    2  A    between atoms: C_3  and  N_4
REMARK    3  A    between atoms: N_4  and  C_5
REMARK    4  A    between atoms: C_5  and  C_6
REMARK    5  A    between atoms: N_10  and  C_11
REMARK    6  A    between atoms: C_15  and  N_16
REMARK    7  A    between atoms: C_21  and  C_22
REMARK    8  A    between atoms: C_22  and  C_23
REMARK    9  A    between atoms: C_22  and  N_24
REMARK   10  A    between atoms: C_26  and  C_27
REMARK                            x       y       z     vdW  Elec       q    Type
REMARK                         _______ _______ _______ _____ _____    ______ ____
ROOT
ATOM      1  N   UNL     1       2.950   7.450  19.089  0.00  0.00    +0.000 N 
ATOM      2  C   UNL     1       2.349   8.017  20.296  0.00  0.00    +0.000 C 
ATOM      3  C   UNL     1       1.272   8.902  19.754  0.00  0.00    +0.000 A 
ATOM      4  C   UNL     1       1.536   9.152  18.412  0.00  0.00    +0.000 A 
ATOM      5  C   UNL     1       0.588   9.648  17.537  0.00  0.00    +0.000 A 
ATOM      6  C   UNL     1      -0.700   9.880  18.044  0.00  0.00    +0.000 A 
ATOM      7  C   UNL     1      -0.927   9.751  19.438  0.00  0.00    +0.000 A 
ATOM      8  C   UNL     1       0.066   9.281  20.322  0.00  0.00    +0.000 A 
ATOM      9  C   UNL     1       2.708   8.359  18.029  0.00  0.00    +0.000 C 
ATOM     10  O   UNL     1       3.191   8.376  16.905  0.00  0.00    +0.000 OA
ENDROOT
BRANCH   1  17
ATOM     11  C   UNL     1       4.654   5.020  19.787  0.00  0.00    +0.000 C 
ATOM     12  C   UNL     1       3.609   5.096  18.707  0.00  0.00    +0.000 A 
ATOM     13  C   UNL     1       3.492   4.110  17.702  0.00  0.00    +0.000 A 
ATOM     14  C   UNL     1       2.213   3.848  17.173  0.00  0.00    +0.000 A 
ATOM     15  C   UNL     1       1.123   4.646  17.498  0.00  0.00    +0.000 A 
ATOM     16  C   UNL     1       1.334   5.790  18.238  0.00  0.00    +0.000 A 
ATOM     17  C   UNL     1       2.609   6.082  18.761  0.00  0.00    +0.000 A 
BRANCH  13  18
ATOM     18  N   UNL     1       4.559   3.300  17.223  0.00  0.00    +0.000 N 
ATOM     19  H   UNL     1       4.132   2.442  16.870  0.00  0.00    +0.000 HD
BRANCH  18  20
ATOM     20  C   UNL     1       5.375   3.898  16.148  0.00  0.00    +0.000 C 
BRANCH  20  21
ATOM     21  C   UNL     1       6.032   5.211  16.428  0.00  0.00    +0.000 A 
ATOM     22  N   UNL     1       5.606   6.384  15.998  0.00  0.00    +0.000 NA
ATOM     23  N   UNL     1       6.392   7.362  16.554  0.00  0.00    +0.000 NA
ATOM     24  C   UNL     1       7.287   6.768  17.305  0.00  0.00    +0.000 A 
ATOM     25  N   UNL     1       7.108   5.419  17.248  0.00  0.00    +0.000 N 
ATOM     26  C   UNL     1       7.894   4.437  17.939  0.00  0.00    +0.000 C 
ENDBRANCH  20  21
ENDBRANCH  18  20
ENDBRANCH  13  18
ENDBRANCH   1  17
BRANCH   8  27
ATOM     27  C   UNL     1      -0.235   9.086  21.784  0.00  0.00    +0.000 C 
ATOM     28  F   UNL     1      -1.005  10.074  22.321  0.00  0.00    +0.000 F 
ATOM     29  F   UNL     1      -0.908   7.928  22.021  0.00  0.00    +0.000 F 
ATOM     30  F   UNL     1       0.888   9.036  22.548  0.00  0.00    +0.000 F 
ENDBRANCH   8  27
BRANCH   6  31
ATOM     31  C   UNL     1      -1.875  10.081  17.103  0.00  0.00    +0.000 C 
ATOM     32  C   UNL     1      -3.205   9.626  17.698  0.00  0.00    +0.000 C 
BRANCH  31  33
ATOM     33  N   UNL     1      -1.946  11.489  16.695  0.00  0.00    +0.000 NA
ATOM     34  H   UNL     1      -1.140  11.718  16.114  0.00  0.00    +0.000 HD
ATOM     35  H   UNL     1      -1.867  12.085  17.517  0.00  0.00    +0.000 HD
ENDBRANCH  31  33
ENDBRANCH   6  31
TORSDOF 7
ENDMDL
MODEL 3
REMARK VINA RESULT:      -7.7      3.412      8.260
REMARK  Name = 
REMARK  10 active torsions:
REMARK  status: ('A' for Active; 'I' for Inactive)
REMARK    1  A    between atoms: C_1  and  C_2
REMARK    2  A    between atoms: C_3  and  N_4
REMARK    3  A    between atoms: N_4  and  C_5
REMARK    4  A    between atoms: C_5  and  C_6
REMARK    5  A    between atoms: N_10  and  C_11
REMARK    6  A    between atoms: C_15  and  N_16
REMARK    7  A    between atoms: C_21  and  C_22
REMARK    8  A    between atoms: C_22  and  C_23
REMARK    9  A    between atoms: C_22  and  N_24
REMARK   10  A    between atoms: C_26  and  C_27
REMARK                            x       y       z     vdW  Elec       q    Type
REMARK                         _______ _______ _______ _____ _____    ______ ____
ROOT
ATOM      1  N   UNL     1       3.184   5.849  19.221  0.00  0.00    +0.000 N 
ATOM      2  C   UNL     1       4.554   5.576  19.652  0.00  0.00    +0.000 C 
ATOM      3  C   UNL     1       5.192   5.020  18.419  0.00  0.00    +0.000 A 
ATOM      4  C   UNL     1       4.190   4.608  17.548  0.00  0.00    +0.000 A 
ATOM      5  C   UNL     1       4.412   4.359  16.206  0.00  0.00    +0.000 A 
ATOM      6  C   UNL     1       5.712   4.563  15.718  0.00  0.00    +0.000 A 
ATOM      7  C   UNL     1       6.756   4.852  16.635  0.00  0.00    +0.000 A 
ATOM      8  C   UNL     1       6.515   5.062  18.008  0.00  0.00    +0.000 A 
ATOM      9  C   UNL     1       2.900   4.982  18.136  0.00  0.00    +0.000 C 
ATOM     10  O   UNL     1       1.825   4.741  17.605  0.00  0.00    +0.000 OA
ENDROOT
BRANCH   1  17
ATOM     11  C   UNL     1       1.957   7.750  21.265  0.00  0.00    +0.000 C 
ATOM     12  C   UNL     1       1.894   7.889  19.768  0.00  0.00    +0.000 A 
ATOM     13  C   UNL     1       1.013   8.790  19.132  0.00  0.00    +0.000 A 
ATOM     14  C   UNL     1       1.413   9.359  17.907  0.00  0.00    +0.000 A 
ATOM     15  C   UNL     1       2.558   8.926  17.253  0.00  0.00    +0.000 A 
ATOM     16  C   UNL     1       3.230   7.827  17.746  0.00  0.00    +0.000 A 
ATOM     17  C   UNL     1       2.836   7.230  18.959  0.00  0.00    +0.000 A 
BRANCH  13  18
ATOM     18  N   UNL     1      -0.231   9.231  19.665  0.00  0.00    +0.000 N 
ATOM     19  H   UNL     1      -0.127   9.221  20.681  0.00  0.00    +0.000 HD
BRANCH  18  20
ATOM     20  C   UNL     1      -0.656  10.582  19.248  0.00  0.00    +0.000 C 
BRANCH  20  21
ATOM     21  C   UNL     1      -1.892  10.691  18.415  0.00  0.00    +0.000 A 
ATOM     22  N   UNL     1      -2.164   9.953  17.355  0.00  0.00    +0.000 NA
ATOM     23  N   UNL     1      -3.434  10.256  16.930  0.00  0.00    +0.000 NA
ATOM     24  C   UNL     1      -3.909  11.177  17.732  0.00  0.00    +0.000 A 
ATOM     25  N   UNL     1      -2.973  11.490  18.672  0.00  0.00    +0.000 N 
ATOM     26  C   UNL     1      -3.128  12.453  19.724  0.00  0.00    +0.000 C 
ENDBRANCH  20  21
ENDBRANCH  18  20
ENDBRANCH  13  18
ENDBRANCH   1  17
BRANCH   8  27
ATOM     27  C   UNL     1       7.637   5.442  18.936  0.00  0.00    +0.000 C 
ATOM     28  F   UNL     1       7.288   5.422  20.253  0.00  0.00    +0.000 F 
ATOM     29  F   UNL     1       8.703   4.603  18.827  0.00  0.00    +0.000 F 
ATOM     30  F   UNL     1       8.113   6.693  18.699  0.00  0.00    +0.000 F 
ENDBRANCH   8  27
BRANCH   6  31
ATOM     31  C   UNL     1       5.970   4.658  14.224  0.00  0.00    +0.000 C 
ATOM     32  C   UNL     1       7.340   5.241  13.889  0.00  0.00    +0.000 C 
BRANCH  31  33
ATOM     33  N   UNL     1       5.806   3.336  13.609  0.00  0.00    +0.000 NA
ATOM     34  H   UNL     1       6.672   2.806  13.700  0.00  0.00    +0.000 HD
ATOM     35  H   UNL     1       5.656   3.444  12.607  0.00  0.00    +0.000 HD
ENDBRANCH  31  33
ENDBRANCH   6  31
TORSDOF 7
ENDMDL
MODEL 4
REMARK VINA RESULT:      -7.6      3.728      8.157
REMARK  Name = 
REMARK  10 active torsions:
REMARK  status: ('A' for Active; 'I' for Inactive)
REMARK    1  A    between atoms: C_1  and  C_2
REMARK    2  A    between atoms: C_3  and  N_4
REMARK    3  A    between atoms: N_4  and  C_5
REMARK    4  A    between atoms: C_5  and  C_6
REMARK    5  A    between atoms: N_10  and  C_11
REMARK    6  A    between atoms: C_15  and  N_16
REMARK    7  A    between atoms: C_21  and  C_22
REMARK    8  A    between atoms: C_22  and  C_23
REMARK    9  A    between atoms: C_22  and  N_24
REMARK   10  A    between atoms: C_26  and  C_27
REMARK                            x       y       z     vdW  Elec       q    Type
REMARK                         _______ _______ _______ _____ _____    ______ ____
ROOT
ATOM      1  N   UNL     1       3.193   5.827  19.228  0.00  0.00    +0.000 N 
ATOM      2  C   UNL     1       4.565   5.565  19.658  0.00  0.00    +0.000 C 
ATOM      3  C   UNL     1       5.204   5.004  18.428  0.00  0.00    +0.000 A 
ATOM      4  C   UNL     1       4.203   4.580  17.562  0.00  0.00    +0.000 A 
ATOM      5  C   UNL     1       4.424   4.324  16.222  0.00  0.00    +0.000 A 
ATOM      6  C   UNL     1       5.721   4.531  15.730  0.00  0.00    +0.000 A 
ATOM      7  C   UNL     1       6.765   4.832  16.643  0.00  0.00    +0.000 A 
ATOM      8  C   UNL     1       6.526   5.051  18.014  0.00  0.00    +0.000 A 
ATOM      9  C   UNL     1       2.911   4.951  18.150  0.00  0.00    +0.000 C 
ATOM     10  O   UNL     1       1.837   4.700  17.623  0.00  0.00    +0.000 OA
ENDROOT
BRANCH   1  17
ATOM     11  C   UNL     1       1.878   7.710  21.235  0.00  0.00    +0.000 C 
ATOM     12  C   UNL     1       1.862   7.851  19.737  0.00  0.00    +0.000 A 
ATOM     13  C   UNL     1       0.990   8.742  19.074  0.00  0.00    +0.000 A 
ATOM     14  C   UNL     1       1.422   9.319  17.863  0.00  0.00    +0.000 A 
ATOM     15  C   UNL     1       2.593   8.900  17.245  0.00  0.00    +0.000 A 
ATOM     16  C   UNL     1       3.261   7.808  17.758  0.00  0.00    +0.000 A 
ATOM     17  C   UNL     1       2.836   7.204  18.957  0.00  0.00    +0.000 A 
BRANCH  13  18
ATOM     18  N   UNL     1      -0.275   9.167  19.568  0.00  0.00    +0.000 N 
ATOM     19  H   UNL     1      -0.377   8.748  20.493  0.00  0.00    +0.000 HD
BRANCH  18  20
ATOM     20  C   UNL     1      -0.450  10.628  19.690  0.00  0.00    +0.000 C 
BRANCH  20  21
ATOM     21  C   UNL     1      -0.754  11.176  21.046  0.00  0.00    +0.000 A 
ATOM     22  N   UNL     1      -0.060  10.928  22.142  0.00  0.00    +0.000 NA
ATOM     23  N   UNL     1      -0.566  11.698  23.160  0.00  0.00    +0.000 NA
ATOM     24  C   UNL     1      -1.562  12.394  22.669  0.00  0.00    +0.000 A 
ATOM     25  N   UNL     1      -1.725  12.091  21.351  0.00  0.00    +0.000 N 
ATOM     26  C   UNL     1      -2.713  12.654  20.475  0.00  0.00    +0.000 C 
ENDBRANCH  20  21
ENDBRANCH  18  20
ENDBRANCH  13  18
ENDBRANCH   1  17
BRANCH   8  27
ATOM     27  C   UNL     1       7.648   5.444  18.938  0.00  0.00    +0.000 C 
ATOM     28  F   UNL     1       8.114   6.707  18.727  0.00  0.00    +0.000 F 
ATOM     29  F   UNL     1       7.275   5.405  20.246  0.00  0.00    +0.000 F 
ATOM     30  F   UNL     1       8.728   4.627  18.827  0.00  0.00    +0.000 F 
ENDBRANCH   8  27
BRANCH   6  31
ATOM     31  C   UNL     1       5.977   4.617  14.235  0.00  0.00    +0.000 C 
ATOM     32  C   UNL     1       7.324   5.247  13.893  0.00  0.00    +0.000 C 
BRANCH  31  33
ATOM     33  N   UNL     1       5.862   3.282  13.637  0.00  0.00    +0.000 NA
ATOM     34  H   UNL     1       5.905   2.574  14.369  0.00  0.00    +0.000 HD
ATOM     35  H   UNL     1       6.669   3.107  13.041  0.00  0.00    +0.000 HD
ENDBRANCH  31  33
ENDBRANCH   6  31
TORSDOF 7
ENDMDL
MODEL 5
REMARK VINA RESULT:      -7.5      3.393      8.218
REMARK  Name = 
REMARK  10 active torsions:
REMARK  status: ('A' for Active; 'I' for Inactive)
REMARK    1  A    between atoms: C_1  and  C_2
REMARK    2  A    between atoms: C_3  and  N_4
REMARK    3  A    between atoms: N_4  and  C_5
REMARK    4  A    between atoms: C_5  and  C_6
REMARK    5  A    between atoms: N_10  and  C_11
REMARK    6  A    between atoms: C_15  and  N_16
REMARK    7  A    between atoms: C_21  and  C_22
REMARK    8  A    between atoms: C_22  and  C_23
REMARK    9  A    between atoms: C_22  and  N_24
REMARK   10  A    between atoms: C_26  and  C_27
REMARK                            x       y       z     vdW  Elec       q    Type
REMARK                         _______ _______ _______ _____ _____    ______ ____
ROOT
ATOM      1  N   UNL     1       3.144   5.912  19.225  0.00  0.00    +0.000 N 
ATOM      2  C   UNL     1       4.508   5.620  19.662  0.00  0.00    +0.000 C 
ATOM      3  C   UNL     1       5.141   5.044  18.435  0.00  0.00    +0.000 A 
ATOM      4  C   UNL     1       4.135   4.643  17.564  0.00  0.00    +0.000 A 
ATOM      5  C   UNL     1       4.357   4.381  16.225  0.00  0.00    +0.000 A 
ATOM      6  C   UNL     1       5.662   4.558  15.740  0.00  0.00    +0.000 A 
ATOM      7  C   UNL     1       6.707   4.837  16.658  0.00  0.00    +0.000 A 
ATOM      8  C   UNL     1       6.465   5.061  18.029  0.00  0.00    +0.000 A 
ATOM      9  C   UNL     1       2.849   5.043  18.145  0.00  0.00    +0.000 C 
ATOM     10  O   UNL     1       1.772   4.816  17.612  0.00  0.00    +0.000 OA
ENDROOT
BRANCH   1  17
ATOM     11  C   UNL     1       1.935   7.846  21.249  0.00  0.00    +0.000 C 
ATOM     12  C   UNL     1       1.885   7.977  19.750  0.00  0.00    +0.000 A 
ATOM     13  C   UNL     1       1.022   8.889  19.103  0.00  0.00    +0.000 A 
ATOM     14  C   UNL     1       1.440   9.443  17.877  0.00  0.00    +0.000 A 
ATOM     15  C   UNL     1       2.583   8.987  17.233  0.00  0.00    +0.000 A 
ATOM     16  C   UNL     1       3.233   7.880  17.738  0.00  0.00    +0.000 A 
ATOM     17  C   UNL     1       2.821   7.297  18.952  0.00  0.00    +0.000 A 
BRANCH  13  18
ATOM     18  N   UNL     1      -0.217   9.353  19.624  0.00  0.00    +0.000 N 
ATOM     19  H   UNL     1      -0.184   9.190  20.632  0.00  0.00    +0.000 HD
BRANCH  18  20
ATOM     20  C   UNL     1      -0.509  10.781  19.388  0.00  0.00    +0.000 C 
BRANCH  20  21
ATOM     21  C   UNL     1      -1.914  11.149  19.035  0.00  0.00    +0.000 A 
ATOM     22  N   UNL     1      -2.687  11.960  19.732  0.00  0.00    +0.000 NA
ATOM     23  N   UNL     1      -3.856  12.150  19.037  0.00  0.00    +0.000 NA
ATOM     24  C   UNL     1      -3.777  11.446  17.935  0.00  0.00    +0.000 A 
ATOM     25  N   UNL     1      -2.582  10.793  17.895  0.00  0.00    +0.000 N 
ATOM     26  C   UNL     1      -2.132   9.927  16.842  0.00  0.00    +0.000 C 
ENDBRANCH  20  21
ENDBRANCH  18  20
ENDBRANCH  13  18
ENDBRANCH   1  17
BRANCH   8  27
ATOM     27  C   UNL     1       7.591   5.428  18.959  0.00  0.00    +0.000 C 
ATOM     28  F   UNL     1       7.256   5.358  20.278  0.00  0.00    +0.000 F 
ATOM     29  F   UNL     1       8.669   4.611  18.812  0.00  0.00    +0.000 F 
ATOM     30  F   UNL     1       8.044   6.694  18.758  0.00  0.00    +0.000 F 
ENDBRANCH   8  27
BRANCH   6  31
ATOM     31  C   UNL     1       5.927   4.639  14.247  0.00  0.00    +0.000 C 
ATOM     32  C   UNL     1       7.296   5.223  13.912  0.00  0.00    +0.000 C 
BRANCH  31  33
ATOM     33  N   UNL     1       5.770   3.310  13.645  0.00  0.00    +0.000 NA
ATOM     34  H   UNL     1       6.636   2.781  13.752  0.00  0.00    +0.000 HD
ATOM     35  H   UNL     1       5.632   3.405  12.641  0.00  0.00    +0.000 HD
ENDBRANCH  31  33
ENDBRANCH   6  31
TORSDOF 7
ENDMDL
MODEL 6
REMARK VINA RESULT:      -7.5      3.504      5.456
REMARK  Name = 
REMARK  10 active torsions:
REMARK  status: ('A' for Active; 'I' for Inactive)
REMARK    1  A    between atoms: C_1  and  C_2
REMARK    2  A    between atoms: C_3  and  N_4
REMARK    3  A    between atoms: N_4  and  C_5
REMARK    4  A    between atoms: C_5  and  C_6
REMARK    5  A    between atoms: N_10  and  C_11
REMARK    6  A    between atoms: C_15  and  N_16
REMARK    7  A    between atoms: C_21  and  C_22
REMARK    8  A    between atoms: C_22  and  C_23
REMARK    9  A    between atoms: C_22  and  N_24
REMARK   10  A    between atoms: C_26  and  C_27
REMARK                            x       y       z     vdW  Elec       q    Type
REMARK                         _______ _______ _______ _____ _____    ______ ____
ROOT
ATOM      1  N   UNL     1      -0.025  11.040  18.524  0.00  0.00    +0.000 N 
ATOM      2  C   UNL     1       0.219  12.482  18.509  0.00  0.00    +0.000 C 
ATOM      3  C   UNL     1      -0.993  13.037  19.186  0.00  0.00    +0.000 A 
ATOM      4  C   UNL     1      -1.993  12.071  19.170  0.00  0.00    +0.000 A 
ATOM      5  C   UNL     1      -3.107  12.126  19.986  0.00  0.00    +0.000 A 
ATOM      6  C   UNL     1      -3.201  13.203  20.880  0.00  0.00    +0.000 A 
ATOM      7  C   UNL     1      -2.249  14.252  20.799  0.00  0.00    +0.000 A 
ATOM      8  C   UNL     1      -1.140  14.197  19.931  0.00  0.00    +0.000 A 
ATOM      9  C   UNL     1      -1.428  10.848  18.591  0.00  0.00    +0.000 C 
ATOM     10  O   UNL     1      -2.072   9.820  18.434  0.00  0.00    +0.000 OA
ENDROOT
BRANCH   1  17
ATOM     11  C   UNL     1       2.536   9.494  17.932  0.00  0.00    +0.000 C 
ATOM     12  C   UNL     1       1.586   9.243  19.071  0.00  0.00    +0.000 A 
ATOM     13  C   UNL     1       1.639   8.066  19.850  0.00  0.00    +0.000 A 
ATOM     14  C   UNL     1       1.253   8.144  21.202  0.00  0.00    +0.000 A 
ATOM     15  C   UNL     1       0.674   9.296  21.719  0.00  0.00    +0.000 A 
ATOM     16  C   UNL     1       0.349  10.322  20.855  0.00  0.00    +0.000 A 
ATOM     17  C   UNL     1       0.709  10.256  19.495  0.00  0.00    +0.000 A 
BRANCH  13  18
ATOM     18  N   UNL     1       2.123   6.806  19.397  0.00  0.00    +0.000 N 
ATOM     19  H   UNL     1       3.140   6.890  19.349  0.00  0.00    +0.000 HD
BRANCH  18  20
ATOM     20  C   UNL     1       1.784   5.652  20.253  0.00  0.00    +0.000 C 
BRANCH  20  21
ATOM     21  C   UNL     1       1.587   4.331  19.583  0.00  0.00    +0.000 A 
ATOM     22  N   UNL     1       1.473   4.145  18.281  0.00  0.00    +0.000 NA
ATOM     23  N   UNL     1       1.427   2.795  18.038  0.00  0.00    +0.000 NA
ATOM     24  C   UNL     1       1.504   2.183  19.194  0.00  0.00    +0.000 A 
ATOM     25  N   UNL     1       1.594   3.105  20.193  0.00  0.00    +0.000 N 
ATOM     26  C   UNL     1       1.697   2.818  21.596  0.00  0.00    +0.000 C 
ENDBRANCH  20  21
ENDBRANCH  18  20
ENDBRANCH  13  18
ENDBRANCH   1  17
BRANCH   8  27
ATOM     27  C   UNL     1      -0.111  15.295  19.926  0.00  0.00    +0.000 C 
ATOM     28  F   UNL     1       0.189  15.759  18.681  0.00  0.00    +0.000 F 
ATOM     29  F   UNL     1      -0.516  16.384  20.635  0.00  0.00    +0.000 F 
ATOM     30  F   UNL     1       1.072  14.906  20.472  0.00  0.00    +0.000 F 
ENDBRANCH   8  27
BRANCH   6  31
ATOM     31  C   UNL     1      -4.184  13.162  22.038  0.00  0.00    +0.000 C 
ATOM     32  C   UNL     1      -5.588  12.737  21.617  0.00  0.00    +0.000 C 
BRANCH  31  33
ATOM     33  N   UNL     1      -3.670  12.280  23.092  0.00  0.00    +0.000 NA
ATOM     34  H   UNL     1      -4.317  12.273  23.879  0.00  0.00    +0.000 HD
ATOM     35  H   UNL     1      -2.799  12.660  23.459  0.00  0.00    +0.000 HD
ENDBRANCH  31  33
ENDBRANCH   6  31
TORSDOF 7
ENDMDL
MODEL 7
REMARK VINA RESULT:      -7.4      3.644      7.933
REMARK  Name = 
REMARK  10 active torsions:
REMARK  status: ('A' for Active; 'I' for Inactive)
REMARK    1  A    between atoms: C_1  and  C_2
REMARK    2  A    between atoms: C_3  and  N_4
REMARK    3  A    between atoms: N_4  and  C_5
REMARK    4  A    between atoms: C_5  and  C_6
REMARK    5  A    between atoms: N_10  and  C_11
REMARK    6  A    between atoms: C_15  and  N_16
REMARK    7  A    between atoms: C_21  and  C_22
REMARK    8  A    between atoms: C_22  and  C_23
REMARK    9  A    between atoms: C_22  and  N_24
REMARK   10  A    between atoms: C_26  and  C_27
REMARK                            x       y       z     vdW  Elec       q    Type
REMARK                         _______ _______ _______ _____ _____    ______ ____
ROOT
ATOM      1  N   UNL     1       3.069   5.894  19.250  0.00  0.00    +0.000 N 
ATOM      2  C   UNL     1       4.447   5.616  19.653  0.00  0.00    +0.000 C 
ATOM      3  C   UNL     1       5.069   5.097  18.396  0.00  0.00    +0.000 A 
ATOM      4  C   UNL     1       4.056   4.704  17.529  0.00  0.00    +0.000 A 
ATOM      5  C   UNL     1       4.259   4.493  16.178  0.00  0.00    +0.000 A 
ATOM      6  C   UNL     1       5.551   4.715  15.677  0.00  0.00    +0.000 A 
ATOM      7  C   UNL     1       6.607   4.985  16.586  0.00  0.00    +0.000 A 
ATOM      8  C   UNL     1       6.385   5.157  17.967  0.00  0.00    +0.000 A 
ATOM      9  C   UNL     1       2.773   5.056  18.146  0.00  0.00    +0.000 C 
ATOM     10  O   UNL     1       1.691   4.824  17.625  0.00  0.00    +0.000 OA
ENDROOT
BRANCH   1  17
ATOM     11  C   UNL     1       2.008   7.776  21.402  0.00  0.00    +0.000 C 
ATOM     12  C   UNL     1       1.836   7.934  19.915  0.00  0.00    +0.000 A 
ATOM     13  C   UNL     1       0.916   8.848  19.356  0.00  0.00    +0.000 A 
ATOM     14  C   UNL     1       1.228   9.430  18.112  0.00  0.00    +0.000 A 
ATOM     15  C   UNL     1       2.320   8.998  17.370  0.00  0.00    +0.000 A 
ATOM     16  C   UNL     1       3.018   7.890  17.799  0.00  0.00    +0.000 A 
ATOM     17  C   UNL     1       2.711   7.280  19.031  0.00  0.00    +0.000 A 
BRANCH  13  18
ATOM     18  N   UNL     1      -0.282   9.289  19.984  0.00  0.00    +0.000 N 
ATOM     19  H   UNL     1      -0.095   9.294  20.988  0.00  0.00    +0.000 HD
BRANCH  18  20
ATOM     20  C   UNL     1      -0.750  10.632  19.586  0.00  0.00    +0.000 C 
BRANCH  20  21
ATOM     21  C   UNL     1      -0.079  11.811  20.213  0.00  0.00    +0.000 A 
ATOM     22  N   UNL     1       0.490  11.820  21.404  0.00  0.00    +0.000 NA
ATOM     23  N   UNL     1       1.100  13.036  21.584  0.00  0.00    +0.000 NA
ATOM     24  C   UNL     1       0.886  13.748  20.506  0.00  0.00    +0.000 A 
ATOM     25  N   UNL     1       0.140  13.026  19.623  0.00  0.00    +0.000 N 
ATOM     26  C   UNL     1      -0.294  13.470  18.329  0.00  0.00    +0.000 C 
ENDBRANCH  20  21
ENDBRANCH  18  20
ENDBRANCH  13  18
ENDBRANCH   1  17
BRANCH   8  27
ATOM     27  C   UNL     1       7.519   5.516  18.890  0.00  0.00    +0.000 C 
ATOM     28  F   UNL     1       8.017   6.768  18.683  0.00  0.00    +0.000 F 
ATOM     29  F   UNL     1       7.150   5.482  20.199  0.00  0.00    +0.000 F 
ATOM     30  F   UNL     1       8.578   4.672  18.772  0.00  0.00    +0.000 F 
ENDBRANCH   8  27
BRANCH   6  31
ATOM     31  C   UNL     1       5.787   4.853  14.183  0.00  0.00    +0.000 C 
ATOM     32  C   UNL     1       7.258   5.043  13.824  0.00  0.00    +0.000 C 
BRANCH  31  33
ATOM     33  N   UNL     1       5.231   3.687  13.486  0.00  0.00    +0.000 NA
ATOM     34  H   UNL     1       5.720   3.551  12.602  0.00  0.00    +0.000 HD
ATOM     35  H   UNL     1       4.261   3.873  13.234  0.00  0.00    +0.000 HD
ENDBRANCH  31  33
ENDBRANCH   6  31
TORSDOF 7
ENDMDL
MODEL 8
REMARK VINA RESULT:      -7.4      3.017      3.977
REMARK  Name = 
REMARK  10 active torsions:
REMARK  status: ('A' for Active; 'I' for Inactive)
REMARK    1  A    between atoms: C_1  and  C_2
REMARK    2  A    between atoms: C_3  and  N_4
REMARK    3  A    between atoms: N_4  and  C_5
REMARK    4  A    between atoms: C_5  and  C_6
REMARK    5  A    between atoms: N_10  and  C_11
REMARK    6  A    between atoms: C_15  and  N_16
REMARK    7  A    between atoms: C_21  and  C_22
REMARK    8  A    between atoms: C_22  and  C_23
REMARK    9  A    between atoms: C_22  and  N_24
REMARK   10  A    between atoms: C_26  and  C_27
REMARK                            x       y       z     vdW  Elec       q    Type
REMARK                         _______ _______ _______ _____ _____    ______ ____
ROOT
ATOM      1  N   UNL     1       1.375   9.874  18.123  0.00  0.00    +0.000 N 
ATOM      2  C   UNL     1       2.047  11.168  18.229  0.00  0.00    +0.000 C 
ATOM      3  C   UNL     1       1.060  12.001  18.982  0.00  0.00    +0.000 A 
ATOM      4  C   UNL     1      -0.187  11.391  18.906  0.00  0.00    +0.000 A 
ATOM      5  C   UNL     1      -1.234  11.708  19.750  0.00  0.00    +0.000 A 
ATOM      6  C   UNL     1      -0.997  12.675  20.738  0.00  0.00    +0.000 A 
ATOM      7  C   UNL     1       0.229  13.388  20.726  0.00  0.00    +0.000 A 
ATOM      8  C   UNL     1       1.272  13.078  19.829  0.00  0.00    +0.000 A 
ATOM      9  C   UNL     1      -0.020  10.112  18.207  0.00  0.00    +0.000 C 
ATOM     10  O   UNL     1      -0.946   9.349  17.976  0.00  0.00    +0.000 OA
ENDROOT
BRANCH   1  17
ATOM     11  C   UNL     1       3.615   7.912  17.467  0.00  0.00    +0.000 C 
ATOM     12  C   UNL     1       2.522   7.711  18.482  0.00  0.00    +0.000 A 
ATOM     13  C   UNL     1       2.256   6.451  19.061  0.00  0.00    +0.000 A 
ATOM     14  C   UNL     1       1.757   6.416  20.378  0.00  0.00    +0.000 A 
ATOM     15  C   UNL     1       1.375   7.580  21.033  0.00  0.00    +0.000 A 
ATOM     16  C   UNL     1       1.355   8.764  20.327  0.00  0.00    +0.000 A 
ATOM     17  C   UNL     1       1.831   8.819  19.003  0.00  0.00    +0.000 A 
BRANCH  13  18
ATOM     18  N   UNL     1       2.517   5.195  18.445  0.00  0.00    +0.000 N 
ATOM     19  H   UNL     1       2.830   5.402  17.495  0.00  0.00    +0.000 HD
BRANCH  18  20
ATOM     20  C   UNL     1       3.541   4.365  19.109  0.00  0.00    +0.000 C 
BRANCH  20  21
ATOM     21  C   UNL     1       4.973   4.650  18.792  0.00  0.00    +0.000 A 
ATOM     22  N   UNL     1       5.887   5.027  19.667  0.00  0.00    +0.000 NA
ATOM     23  N   UNL     1       7.103   5.076  19.031  0.00  0.00    +0.000 NA
ATOM     24  C   UNL     1       6.907   4.737  17.781  0.00  0.00    +0.000 A 
ATOM     25  N   UNL     1       5.586   4.474  17.580  0.00  0.00    +0.000 N 
ATOM     26  C   UNL     1       4.987   4.070  16.340  0.00  0.00    +0.000 C 
ENDBRANCH  20  21
ENDBRANCH  18  20
ENDBRANCH  13  18
ENDBRANCH   1  17
BRANCH   8  27
ATOM     27  C   UNL     1       2.587  13.806  19.897  0.00  0.00    +0.000 C 
ATOM     28  F   UNL     1       2.459  15.156  20.036  0.00  0.00    +0.000 F 
ATOM     29  F   UNL     1       3.348  13.401  20.949  0.00  0.00    +0.000 F 
ATOM     30  F   UNL     1       3.347  13.619  18.785  0.00  0.00    +0.000 F 
ENDBRANCH   8  27
BRANCH   6  31
ATOM     31  C   UNL     1      -1.950  12.830  21.911  0.00  0.00    +0.000 C 
ATOM     32  C   UNL     1      -3.418  12.712  21.511  0.00  0.00    +0.000 C 
BRANCH  31  33
ATOM     33  N   UNL     1      -1.616  11.850  22.951  0.00  0.00    +0.000 NA
ATOM     34  H   UNL     1      -2.288  11.083  22.927  0.00  0.00    +0.000 HD
ATOM     35  H   UNL     1      -1.724  12.278  23.869  0.00  0.00    +0.000 HD
ENDBRANCH  31  33
ENDBRANCH   6  31
TORSDOF 7
ENDMDL
MODEL 9
REMARK VINA RESULT:      -7.4      2.940      4.080
REMARK  Name = 
REMARK  10 active torsions:
REMARK  status: ('A' for Active; 'I' for Inactive)
REMARK    1  A    between atoms: C_1  and  C_2
REMARK    2  A    between atoms: C_3  and  N_4
REMARK    3  A    between atoms: N_4  and  C_5
REMARK    4  A    between atoms: C_5  and  C_6
REMARK    5  A    between atoms: N_10  and  C_11
REMARK    6  A    between atoms: C_15  and  N_16
REMARK    7  A    between atoms: C_21  and  C_22
REMARK    8  A    between atoms: C_22  and  C_23
REMARK    9  A    between atoms: C_22  and  N_24
REMARK   10  A    between atoms: C_26  and  C_27
REMARK                            x       y       z     vdW  Elec       q    Type
REMARK                         _______ _______ _______ _____ _____    ______ ____
ROOT
ATOM      1  N   UNL     1       1.221  10.022  18.158  0.00  0.00    +0.000 N 
ATOM      2  C   UNL     1       1.795  11.361  18.289  0.00  0.00    +0.000 C 
ATOM      3  C   UNL     1       0.709  12.130  18.970  0.00  0.00    +0.000 A 
ATOM      4  C   UNL     1      -0.486  11.435  18.824  0.00  0.00    +0.000 A 
ATOM      5  C   UNL     1      -1.603  11.685  19.599  0.00  0.00    +0.000 A 
ATOM      6  C   UNL     1      -1.495  12.674  20.587  0.00  0.00    +0.000 A 
ATOM      7  C   UNL     1      -0.322  13.470  20.642  0.00  0.00    +0.000 A 
ATOM      8  C   UNL     1       0.793  13.225  19.815  0.00  0.00    +0.000 A 
ATOM      9  C   UNL     1      -0.189  10.165  18.154  0.00  0.00    +0.000 C 
ATOM     10  O   UNL     1      -1.045   9.337  17.876  0.00  0.00    +0.000 OA
ENDROOT
BRANCH   1  17
ATOM     11  C   UNL     1       3.473   8.053  17.567  0.00  0.00    +0.000 C 
ATOM     12  C   UNL     1       2.390   7.886  18.598  0.00  0.00    +0.000 A 
ATOM     13  C   UNL     1       2.138   6.649  19.231  0.00  0.00    +0.000 A 
ATOM     14  C   UNL     1       1.650   6.665  20.553  0.00  0.00    +0.000 A 
ATOM     15  C   UNL     1       1.263   7.852  21.162  0.00  0.00    +0.000 A 
ATOM     16  C   UNL     1       1.228   9.006  20.407  0.00  0.00    +0.000 A 
ATOM     17  C   UNL     1       1.693   9.008  19.078  0.00  0.00    +0.000 A 
BRANCH  13  18
ATOM     18  N   UNL     1       2.406   5.371  18.666  0.00  0.00    +0.000 N 
ATOM     19  H   UNL     1       2.705   5.540  17.704  0.00  0.00    +0.000 HD
BRANCH  18  20
ATOM     20  C   UNL     1       3.447   4.580  19.351  0.00  0.00    +0.000 C 
BRANCH  20  21
ATOM     21  C   UNL     1       4.860   4.761  18.900  0.00  0.00    +0.000 A 
ATOM     22  N   UNL     1       5.864   5.139  19.670  0.00  0.00    +0.000 NA
ATOM     23  N   UNL     1       7.022   5.076  18.935  0.00  0.00    +0.000 NA
ATOM     24  C   UNL     1       6.703   4.670  17.731  0.00  0.00    +0.000 A 
ATOM     25  N   UNL     1       5.357   4.471  17.658  0.00  0.00    +0.000 N 
ATOM     26  C   UNL     1       4.635   4.024  16.501  0.00  0.00    +0.000 C 
ENDBRANCH  20  21
ENDBRANCH  18  20
ENDBRANCH  13  18
ENDBRANCH   1  17
BRANCH   8  27
ATOM     27  C   UNL     1       2.048  14.044  19.954  0.00  0.00    +0.000 C 
ATOM     28  F   UNL     1       3.102  13.347  20.467  0.00  0.00    +0.000 F 
ATOM     29  F   UNL     1       2.480  14.533  18.760  0.00  0.00    +0.000 F 
ATOM     30  F   UNL     1       1.885  15.120  20.768  0.00  0.00    +0.000 F 
ENDBRANCH   8  27
BRANCH   6  31
ATOM     31  C   UNL     1      -2.528  12.773  21.698  0.00  0.00    +0.000 C 
ATOM     32  C   UNL     1      -2.140  11.987  22.948  0.00  0.00    +0.000 C 
BRANCH  31  33
ATOM     33  N   UNL     1      -2.766  14.183  22.026  0.00  0.00    +0.000 NA
ATOM     34  H   UNL     1      -3.748  14.410  21.871  0.00  0.00    +0.000 HD
ATOM     35  H   UNL     1      -2.245  14.775  21.381  0.00  0.00    +0.000 HD
ENDBRANCH  31  33
ENDBRANCH   6  31
TORSDOF 7
ENDMDL
