MODEL 1
REMARK VINA RESULT:      -8.3      0.000      0.000
REMARK  Name = 
REMARK  8 active torsions:
REMARK  status: ('A' for Active; 'I' for Inactive)
REMARK    1  A    between atoms: C_2  and  C_3
REMARK    2  A    between atoms: C_3  and  C_4
REMARK    3  A    between atoms: C_7  and  C_8
REMARK    4  A    between atoms: N_12  and  C_13
REMARK    5  A    between atoms: C_13  and  C_14
REMARK    6  A    between atoms: N_22  and  C_23
REMARK    7  A    between atoms: C_23  and  C_24
REMARK    8  A    between atoms: C_24  and  C_25
REMARK                            x       y       z     vdW  Elec       q    Type
REMARK                         _______ _______ _______ _____ _____    ______ ____
ROOT
ATOM      1  C   UNL     1       1.842   7.149  20.496  0.00  0.00    +0.000 A 
ATOM      2  N   UNL     1       2.379   7.482  19.314  0.00  0.00    +0.000 NA
ATOM      3  O   UNL     1       2.394   6.271  18.613  0.00  0.00    +0.000 OA
ATOM      4  C   UNL     1       1.885   5.331  19.460  0.00  0.00    +0.000 A 
ATOM      5  N   UNL     1       1.558   5.814  20.639  0.00  0.00    +0.000 NA
ENDROOT
BRANCH   4   6
ATOM      6  C   UNL     1       1.684   3.954  18.922  0.00  0.00    +0.000 C 
ATOM      7  C   UNL     1       2.424   2.948  19.807  0.00  0.00    +0.000 C 
ATOM      8  C   UNL     1       3.823   2.990  19.237  0.00  0.00    +0.000 C 
ATOM      9  O   UNL     1       4.836   2.676  19.839  0.00  0.00    +0.000 OA
ATOM     10  N   UNL     1       3.724   3.419  17.921  0.00  0.00    +0.000 N 
ATOM     11  C   UNL     1       2.369   3.777  17.569  0.00  0.00    +0.000 C 
BRANCH  10  12
ATOM     12  C   UNL     1       4.846   3.574  17.014  0.00  0.00    +0.000 C 
BRANCH  12  13
ATOM     13  C   UNL     1       5.677   4.807  17.273  0.00  0.00    +0.000 A 
ATOM     14  C   UNL     1       6.899   4.719  17.954  0.00  0.00    +0.000 A 
ATOM     15  C   UNL     1       7.695   5.854  18.139  0.00  0.00    +0.000 A 
ATOM     16  C   UNL     1       7.277   7.090  17.646  0.00  0.00    +0.000 A 
ATOM     17  C   UNL     1       6.067   7.191  16.967  0.00  0.00    +0.000 A 
ATOM     18  C   UNL     1       5.275   6.057  16.777  0.00  0.00    +0.000 A 
ENDBRANCH  12  13
ENDBRANCH  10  12
ENDBRANCH   4   6
BRANCH   1  19
ATOM     19  C   UNL     1       1.614   8.116  21.589  0.00  0.00    +0.000 C 
BRANCH  19  21
ATOM     20  O   UNL     1       1.137  10.468  21.676  0.00  0.00    +0.000 OA
ATOM     21  C   UNL     1       0.989   9.401  21.084  0.00  0.00    +0.000 C 
ATOM     22  N   UNL     1       0.176   9.266  19.972  0.00  0.00    +0.000 N 
ATOM     23  H   UNL     1       0.363   8.466  19.372  0.00  0.00    +0.000 HD
BRANCH  22  24
ATOM     24  C   UNL     1      -0.452  10.426  19.351  0.00  0.00    +0.000 C 
BRANCH  24  25
ATOM     25  C   UNL     1      -0.723  10.192  17.864  0.00  0.00    +0.000 C 
BRANCH  25  26
ATOM     26  C   UNL     1      -2.106  10.627  17.441  0.00  0.00    +0.000 A 
ATOM     27  C   UNL     1      -2.544  10.435  16.124  0.00  0.00    +0.000 A 
ATOM     28  C   UNL     1      -3.831  10.818  15.740  0.00  0.00    +0.000 A 
ATOM     29  C   UNL     1      -4.692  11.404  16.667  0.00  0.00    +0.000 A 
ATOM     30  C   UNL     1      -4.262  11.614  17.977  0.00  0.00    +0.000 A 
ATOM     31  C   UNL     1      -2.975  11.229  18.360  0.00  0.00    +0.000 A 
ENDBRANCH  25  26
ENDBRANCH  24  25
ENDBRANCH  22  24
ENDBRANCH  19  21
ENDBRANCH   1  19
TORSDOF 8
ENDMDL
MODEL 2
REMARK VINA RESULT:      -8.3      0.408      1.310
REMARK  Name = 
REMARK  8 active torsions:
REMARK  status: ('A' for Active; 'I' for Inactive)
REMARK    1  A    between atoms: C_2  and  C_3
REMARK    2  A    between atoms: C_3  and  C_4
REMARK    3  A    between atoms: C_7  and  C_8
REMARK    4  A    between atoms: N_12  and  C_13
REMARK    5  A    between atoms: C_13  and  C_14
REMARK    6  A    between atoms: N_22  and  C_23
REMARK    7  A    between atoms: C_23  and  C_24
REMARK    8  A    between atoms: C_24  and  C_25
REMARK                            x       y       z     vdW  Elec       q    Type
REMARK                         _______ _______ _______ _____ _____    ______ ____
ROOT
ATOM      1  C   UNL     1       1.769   7.191  20.384  0.00  0.00    +0.000 A 
ATOM      2  N   UNL     1       2.395   7.477  19.234  0.00  0.00    +0.000 NA
ATOM      3  O   UNL     1       2.431   6.247  18.571  0.00  0.00    +0.000 OA
ATOM      4  C   UNL     1       1.841   5.343  19.405  0.00  0.00    +0.000 A 
ATOM      5  N   UNL     1       1.444   5.868  20.543  0.00  0.00    +0.000 NA
ENDROOT
BRANCH   4   6
ATOM      6  C   UNL     1       1.646   3.955  18.892  0.00  0.00    +0.000 C 
ATOM      7  C   UNL     1       2.426   2.974  19.771  0.00  0.00    +0.000 C 
ATOM      8  C   UNL     1       3.808   3.028  19.160  0.00  0.00    +0.000 C 
ATOM      9  O   UNL     1       4.842   2.738  19.736  0.00  0.00    +0.000 OA
ATOM     10  N   UNL     1       3.664   3.436  17.841  0.00  0.00    +0.000 N 
ATOM     11  C   UNL     1       2.295   3.769  17.523  0.00  0.00    +0.000 C 
BRANCH  10  12
ATOM     12  C   UNL     1       4.757   3.594  16.899  0.00  0.00    +0.000 C 
BRANCH  12  13
ATOM     13  C   UNL     1       5.627   4.798  17.168  0.00  0.00    +0.000 A 
ATOM     14  C   UNL     1       5.224   6.079  16.766  0.00  0.00    +0.000 A 
ATOM     15  C   UNL     1       6.003   7.199  17.070  0.00  0.00    +0.000 A 
ATOM     16  C   UNL     1       7.194   7.052  17.780  0.00  0.00    +0.000 A 
ATOM     17  C   UNL     1       7.605   5.787  18.187  0.00  0.00    +0.000 A 
ATOM     18  C   UNL     1       6.825   4.668  17.888  0.00  0.00    +0.000 A 
ENDBRANCH  12  13
ENDBRANCH  10  12
ENDBRANCH   4   6
BRANCH   1  19
ATOM     19  C   UNL     1       1.487   8.195  21.431  0.00  0.00    +0.000 C 
BRANCH  19  21
ATOM     20  O   UNL     1       1.123  10.568  21.472  0.00  0.00    +0.000 OA
ATOM     21  C   UNL     1       1.041   9.517  20.839  0.00  0.00    +0.000 C 
ATOM     22  N   UNL     1       0.459   9.438  19.586  0.00  0.00    +0.000 N 
ATOM     23  H   UNL     1       0.721   8.634  19.018  0.00  0.00    +0.000 HD
BRANCH  22  24
ATOM     24  C   UNL     1       0.027  10.636  18.878  0.00  0.00    +0.000 C 
BRANCH  24  25
ATOM     25  C   UNL     1      -1.425  10.991  19.204  0.00  0.00    +0.000 C 
BRANCH  25  26
ATOM     26  C   UNL     1      -2.351  10.833  18.020  0.00  0.00    +0.000 A 
ATOM     27  C   UNL     1      -3.636  11.391  18.039  0.00  0.00    +0.000 A 
ATOM     28  C   UNL     1      -4.482  11.262  16.936  0.00  0.00    +0.000 A 
ATOM     29  C   UNL     1      -4.056  10.568  15.804  0.00  0.00    +0.000 A 
ATOM     30  C   UNL     1      -2.784   9.997  15.779  0.00  0.00    +0.000 A 
ATOM     31  C   UNL     1      -1.937  10.127  16.883  0.00  0.00    +0.000 A 
ENDBRANCH  25  26
ENDBRANCH  24  25
ENDBRANCH  22  24
ENDBRANCH  19  21
ENDBRANCH   1  19
TORSDOF 8
ENDMDL
MODEL 3
REMARK VINA RESULT:      -8.0      0.981      1.534
REMARK  Name = 
REMARK  8 active torsions:
REMARK  status: ('A' for Active; 'I' for Inactive)
REMARK    1  A    between atoms: C_2  and  C_3
REMARK    2  A    between atoms: C_3  and  C_4
REMARK    3  A    between atoms: C_7  and  C_8
REMARK    4  A    between atoms: N_12  and  C_13
REMARK    5  A    between atoms: C_13  and  C_14
REMARK    6  A    between atoms: N_22  and  C_23
REMARK    7  A    between atoms: C_23  and  C_24
REMARK    8  A    between atoms: C_24  and  C_25
REMARK                            x       y       z     vdW  Elec       q    Type
REMARK                         _______ _______ _______ _____ _____    ______ ____
ROOT
ATOM      1  C   UNL     1       1.632   7.291  20.697  0.00  0.00    +0.000 A 
ATOM      2  N   UNL     1       2.313   7.418  19.550  0.00  0.00    +0.000 NA
ATOM      3  O   UNL     1       2.244   6.138  18.990  0.00  0.00    +0.000 OA
ATOM      4  C   UNL     1       1.547   5.369  19.876  0.00  0.00    +0.000 A 
ATOM      5  N   UNL     1       1.174   6.023  20.953  0.00  0.00    +0.000 NA
ENDROOT
BRANCH   4   6
ATOM      6  C   UNL     1       1.229   3.968  19.472  0.00  0.00    +0.000 C 
ATOM      7  C   UNL     1       1.611   3.013  20.605  0.00  0.00    +0.000 C 
ATOM      8  C   UNL     1       3.081   2.778  20.342  0.00  0.00    +0.000 C 
ATOM      9  O   UNL     1       3.896   2.420  21.176  0.00  0.00    +0.000 OA
ATOM     10  N   UNL     1       3.307   3.016  18.994  0.00  0.00    +0.000 N 
ATOM     11  C   UNL     1       2.122   3.501  18.324  0.00  0.00    +0.000 C 
BRANCH  10  12
ATOM     12  C   UNL     1       4.591   2.880  18.332  0.00  0.00    +0.000 C 
BRANCH  12  13
ATOM     13  C   UNL     1       5.006   4.100  17.545  0.00  0.00    +0.000 A 
ATOM     14  C   UNL     1       5.078   4.060  16.145  0.00  0.00    +0.000 A 
ATOM     15  C   UNL     1       5.403   5.209  15.417  0.00  0.00    +0.000 A 
ATOM     16  C   UNL     1       5.661   6.408  16.078  0.00  0.00    +0.000 A 
ATOM     17  C   UNL     1       5.591   6.462  17.467  0.00  0.00    +0.000 A 
ATOM     18  C   UNL     1       5.261   5.318  18.195  0.00  0.00    +0.000 A 
ENDBRANCH  12  13
ENDBRANCH  10  12
ENDBRANCH   4   6
BRANCH   1  19
ATOM     19  C   UNL     1       1.424   8.403  21.649  0.00  0.00    +0.000 C 
BRANCH  19  21
ATOM     20  O   UNL     1       1.292  10.790  21.431  0.00  0.00    +0.000 OA
ATOM     21  C   UNL     1       1.052   9.690  20.939  0.00  0.00    +0.000 C 
ATOM     22  N   UNL     1       0.351   9.532  19.756  0.00  0.00    +0.000 N 
ATOM     23  H   UNL     1       0.481   8.647  19.271  0.00  0.00    +0.000 HD
BRANCH  22  24
ATOM     24  C   UNL     1      -0.029  10.683  18.946  0.00  0.00    +0.000 C 
BRANCH  24  25
ATOM     25  C   UNL     1      -1.494  11.067  19.164  0.00  0.00    +0.000 C 
BRANCH  25  26
ATOM     26  C   UNL     1      -2.351  10.841  17.941  0.00  0.00    +0.000 A 
ATOM     27  C   UNL     1      -3.574  11.510  17.792  0.00  0.00    +0.000 A 
ATOM     28  C   UNL     1      -4.355  11.315  16.651  0.00  0.00    +0.000 A 
ATOM     29  C   UNL     1      -3.926  10.446  15.649  0.00  0.00    +0.000 A 
ATOM     30  C   UNL     1      -2.718   9.764  15.793  0.00  0.00    +0.000 A 
ATOM     31  C   UNL     1      -1.937   9.959  16.935  0.00  0.00    +0.000 A 
ENDBRANCH  25  26
ENDBRANCH  24  25
ENDBRANCH  22  24
ENDBRANCH  19  21
ENDBRANCH   1  19
TORSDOF 8
ENDMDL
MODEL 4
REMARK VINA RESULT:      -8.0      1.022      1.506
REMARK  Name = 
REMARK  8 active torsions:
REMARK  status: ('A' for Active; 'I' for Inactive)
REMARK    1  A    between atoms: C_2  and  C_3
REMARK    2  A    between atoms: C_3  and  C_4
REMARK    3  A    between atoms: C_7  and  C_8
REMARK    4  A    between atoms: N_12  and  C_13
REMARK    5  A    between atoms: C_13  and  C_14
REMARK    6  A    between atoms: N_22  and  C_23
REMARK    7  A    between atoms: C_23  and  C_24
REMARK    8  A    between atoms: C_24  and  C_25
REMARK                            x       y       z     vdW  Elec       q    Type
REMARK                         _______ _______ _______ _____ _____    ______ ____
ROOT
ATOM      1  C   UNL     1       1.732   7.467  20.855  0.00  0.00    +0.000 A 
ATOM      2  N   UNL     1       2.378   7.408  19.683  0.00  0.00    +0.000 NA
ATOM      3  O   UNL     1       2.135   6.102  19.245  0.00  0.00    +0.000 OA
ATOM      4  C   UNL     1       1.385   5.505  20.216  0.00  0.00    +0.000 A 
ATOM      5  N   UNL     1       1.135   6.292  21.238  0.00  0.00    +0.000 NA
ENDROOT
BRANCH   4   6
ATOM      6  C   UNL     1       0.886   4.124  19.950  0.00  0.00    +0.000 C 
ATOM      7  C   UNL     1       1.338   3.194  21.078  0.00  0.00    +0.000 C 
ATOM      8  C   UNL     1       2.728   2.801  20.631  0.00  0.00    +0.000 C 
ATOM      9  O   UNL     1       3.617   2.407  21.365  0.00  0.00    +0.000 OA
ATOM     10  N   UNL     1       2.778   2.948  19.252  0.00  0.00    +0.000 N 
ATOM     11  C   UNL     1       1.558   3.513  18.722  0.00  0.00    +0.000 C 
BRANCH  10  12
ATOM     12  C   UNL     1       3.936   2.651  18.429  0.00  0.00    +0.000 C 
BRANCH  12  13
ATOM     13  C   UNL     1       4.659   3.877  17.926  0.00  0.00    +0.000 A 
ATOM     14  C   UNL     1       4.616   4.229  16.569  0.00  0.00    +0.000 A 
ATOM     15  C   UNL     1       5.236   5.398  16.117  0.00  0.00    +0.000 A 
ATOM     16  C   UNL     1       5.905   6.229  17.015  0.00  0.00    +0.000 A 
ATOM     17  C   UNL     1       5.953   5.892  18.365  0.00  0.00    +0.000 A 
ATOM     18  C   UNL     1       5.330   4.728  18.817  0.00  0.00    +0.000 A 
ENDBRANCH  12  13
ENDBRANCH  10  12
ENDBRANCH   4   6
BRANCH   1  19
ATOM     19  C   UNL     1       1.695   8.674  21.707  0.00  0.00    +0.000 C 
BRANCH  19  21
ATOM     20  O   UNL     1       0.515  10.765  21.720  0.00  0.00    +0.000 OA
ATOM     21  C   UNL     1       0.882   9.786  21.074  0.00  0.00    +0.000 C 
ATOM     22  N   UNL     1       0.512   9.572  19.757  0.00  0.00    +0.000 N 
ATOM     23  H   UNL     1       1.104   8.941  19.220  0.00  0.00    +0.000 HD
BRANCH  22  24
ATOM     24  C   UNL     1      -0.231  10.579  19.010  0.00  0.00    +0.000 C 
BRANCH  24  25
ATOM     25  C   UNL     1      -1.742  10.403  19.175  0.00  0.00    +0.000 C 
BRANCH  25  26
ATOM     26  C   UNL     1      -2.496  10.533  17.872  0.00  0.00    +0.000 A 
ATOM     27  C   UNL     1      -2.079   9.834  16.732  0.00  0.00    +0.000 A 
ATOM     28  C   UNL     1      -2.791   9.940  15.535  0.00  0.00    +0.000 A 
ATOM     29  C   UNL     1      -3.923  10.751  15.462  0.00  0.00    +0.000 A 
ATOM     30  C   UNL     1      -4.339  11.463  16.587  0.00  0.00    +0.000 A 
ATOM     31  C   UNL     1      -3.627  11.356  17.785  0.00  0.00    +0.000 A 
ENDBRANCH  25  26
ENDBRANCH  24  25
ENDBRANCH  22  24
ENDBRANCH  19  21
ENDBRANCH   1  19
TORSDOF 8
ENDMDL
MODEL 5
REMARK VINA RESULT:      -8.0      3.990      8.009
REMARK  Name = 
REMARK  8 active torsions:
REMARK  status: ('A' for Active; 'I' for Inactive)
REMARK    1  A    between atoms: C_2  and  C_3
REMARK    2  A    between atoms: C_3  and  C_4
REMARK    3  A    between atoms: C_7  and  C_8
REMARK    4  A    between atoms: N_12  and  C_13
REMARK    5  A    between atoms: C_13  and  C_14
REMARK    6  A    between atoms: N_22  and  C_23
REMARK    7  A    between atoms: C_23  and  C_24
REMARK    8  A    between atoms: C_24  and  C_25
REMARK                            x       y       z     vdW  Elec       q    Type
REMARK                         _______ _______ _______ _____ _____    ______ ____
ROOT
ATOM      1  C   UNL     1       6.477   4.838  18.244  0.00  0.00    +0.000 A 
ATOM      2  N   UNL     1       6.506   5.252  19.518  0.00  0.00    +0.000 NA
ATOM      3  O   UNL     1       5.667   4.344  20.172  0.00  0.00    +0.000 OA
ATOM      4  C   UNL     1       5.202   3.492  19.213  0.00  0.00    +0.000 A 
ATOM      5  N   UNL     1       5.648   3.771  18.008  0.00  0.00    +0.000 NA
ENDROOT
BRANCH   4   6
ATOM      6  C   UNL     1       4.362   2.342  19.660  0.00  0.00    +0.000 C 
ATOM      7  C   UNL     1       3.574   1.795  18.468  0.00  0.00    +0.000 C 
ATOM      8  C   UNL     1       2.362   2.699  18.444  0.00  0.00    +0.000 C 
ATOM      9  O   UNL     1       1.664   2.912  17.468  0.00  0.00    +0.000 OA
ATOM     10  N   UNL     1       2.193   3.201  19.726  0.00  0.00    +0.000 N 
ATOM     11  C   UNL     1       3.258   2.795  20.613  0.00  0.00    +0.000 C 
BRANCH  10  12
ATOM     12  C   UNL     1       1.124   4.096  20.130  0.00  0.00    +0.000 C 
BRANCH  12  13
ATOM     13  C   UNL     1       1.438   5.558  19.923  0.00  0.00    +0.000 A 
ATOM     14  C   UNL     1       1.137   6.504  20.912  0.00  0.00    +0.000 A 
ATOM     15  C   UNL     1       1.485   7.848  20.741  0.00  0.00    +0.000 A 
ATOM     16  C   UNL     1       2.138   8.260  19.581  0.00  0.00    +0.000 A 
ATOM     17  C   UNL     1       2.445   7.330  18.592  0.00  0.00    +0.000 A 
ATOM     18  C   UNL     1       2.103   5.989  18.764  0.00  0.00    +0.000 A 
ENDBRANCH  12  13
ENDBRANCH  10  12
ENDBRANCH   4   6
BRANCH   1  19
ATOM     19  C   UNL     1       7.230   5.496  17.156  0.00  0.00    +0.000 C 
BRANCH  19  21
ATOM     20  O   UNL     1       6.047   7.501  16.571  0.00  0.00    +0.000 OA
ATOM     21  C   UNL     1       7.010   6.996  17.144  0.00  0.00    +0.000 C 
ATOM     22  N   UNL     1       8.009   7.746  17.740  0.00  0.00    +0.000 N 
ATOM     23  H   UNL     1       8.566   7.271  18.447  0.00  0.00    +0.000 HD
BRANCH  22  24
ATOM     24  C   UNL     1       7.904   9.196  17.842  0.00  0.00    +0.000 C 
BRANCH  24  25
ATOM     25  C   UNL     1       8.939   9.769  18.812  0.00  0.00    +0.000 C 
BRANCH  25  26
ATOM     26  C   UNL     1       9.576  11.043  18.310  0.00  0.00    +0.000 A 
ATOM     27  C   UNL     1       8.785  12.128  17.909  0.00  0.00    +0.000 A 
ATOM     28  C   UNL     1       9.378  13.312  17.465  0.00  0.00    +0.000 A 
ATOM     29  C   UNL     1      10.766  13.423  17.410  0.00  0.00    +0.000 A 
ATOM     30  C   UNL     1      11.564  12.344  17.793  0.00  0.00    +0.000 A 
ATOM     31  C   UNL     1      10.970  11.160  18.238  0.00  0.00    +0.000 A 
ENDBRANCH  25  26
ENDBRANCH  24  25
ENDBRANCH  22  24
ENDBRANCH  19  21
ENDBRANCH   1  19
TORSDOF 8
ENDMDL
MODEL 6
REMARK VINA RESULT:      -7.9      3.898      8.305
REMARK  Name = 
REMARK  8 active torsions:
REMARK  status: ('A' for Active; 'I' for Inactive)
REMARK    1  A    between atoms: C_2  and  C_3
REMARK    2  A    between atoms: C_3  and  C_4
REMARK    3  A    between atoms: C_7  and  C_8
REMARK    4  A    between atoms: N_12  and  C_13
REMARK    5  A    between atoms: C_13  and  C_14
REMARK    6  A    between atoms: N_22  and  C_23
REMARK    7  A    between atoms: C_23  and  C_24
REMARK    8  A    between atoms: C_24  and  C_25
REMARK                            x       y       z     vdW  Elec       q    Type
REMARK                         _______ _______ _______ _____ _____    ______ ____
ROOT
ATOM      1  C   UNL     1       5.261   5.569  17.012  0.00  0.00    +0.000 A 
ATOM      2  N   UNL     1       5.230   4.679  16.010  0.00  0.00    +0.000 NA
ATOM      3  O   UNL     1       4.921   3.477  16.655  0.00  0.00    +0.000 OA
ATOM      4  C   UNL     1       4.822   3.769  17.984  0.00  0.00    +0.000 A 
ATOM      5  N   UNL     1       5.050   5.034  18.257  0.00  0.00    +0.000 NA
ENDROOT
BRANCH   4   6
ATOM      6  C   UNL     1       4.388   2.673  18.900  0.00  0.00    +0.000 C 
ATOM      7  C   UNL     1       3.221   1.913  18.265  0.00  0.00    +0.000 C 
ATOM      8  C   UNL     1       2.033   2.754  18.672  0.00  0.00    +0.000 C 
ATOM      9  O   UNL     1       0.960   2.782  18.093  0.00  0.00    +0.000 OA
ATOM     10  N   UNL     1       2.387   3.447  19.821  0.00  0.00    +0.000 N 
ATOM     11  C   UNL     1       3.770   3.228  20.181  0.00  0.00    +0.000 C 
BRANCH  10  12
ATOM     12  C   UNL     1       1.514   4.352  20.545  0.00  0.00    +0.000 C 
BRANCH  12  13
ATOM     13  C   UNL     1       1.617   5.790  20.097  0.00  0.00    +0.000 A 
ATOM     14  C   UNL     1       1.371   6.840  20.992  0.00  0.00    +0.000 A 
ATOM     15  C   UNL     1       1.526   8.171  20.588  0.00  0.00    +0.000 A 
ATOM     16  C   UNL     1       1.928   8.465  19.287  0.00  0.00    +0.000 A 
ATOM     17  C   UNL     1       2.177   7.432  18.388  0.00  0.00    +0.000 A 
ATOM     18  C   UNL     1       2.027   6.104  18.791  0.00  0.00    +0.000 A 
ENDBRANCH  12  13
ENDBRANCH  10  12
ENDBRANCH   4   6
BRANCH   1  19
ATOM     19  C   UNL     1       5.546   7.006  16.818  0.00  0.00    +0.000 C 
BRANCH  19  21
ATOM     20  O   UNL     1       7.904   6.553  16.837  0.00  0.00    +0.000 OA
ATOM     21  C   UNL     1       6.997   7.336  17.110  0.00  0.00    +0.000 C 
ATOM     22  N   UNL     1       7.209   8.529  17.779  0.00  0.00    +0.000 N 
ATOM     23  H   UNL     1       6.487   9.239  17.672  0.00  0.00    +0.000 HD
BRANCH  22  24
ATOM     24  C   UNL     1       8.556   8.995  18.082  0.00  0.00    +0.000 C 
BRANCH  24  25
ATOM     25  C   UNL     1       8.536  10.250  18.956  0.00  0.00    +0.000 C 
BRANCH  25  26
ATOM     26  C   UNL     1       9.852  10.992  18.954  0.00  0.00    +0.000 A 
ATOM     27  C   UNL     1      10.469  11.348  17.747  0.00  0.00    +0.000 A 
ATOM     28  C   UNL     1      11.676  12.052  17.748  0.00  0.00    +0.000 A 
ATOM     29  C   UNL     1      12.281  12.402  18.954  0.00  0.00    +0.000 A 
ATOM     30  C   UNL     1      11.682  12.041  20.161  0.00  0.00    +0.000 A 
ATOM     31  C   UNL     1      10.475  11.337  20.160  0.00  0.00    +0.000 A 
ENDBRANCH  25  26
ENDBRANCH  24  25
ENDBRANCH  22  24
ENDBRANCH  19  21
ENDBRANCH   1  19
TORSDOF 8
ENDMDL
MODEL 7
REMARK VINA RESULT:      -7.9      3.875      8.217
REMARK  Name = 
REMARK  8 active torsions:
REMARK  status: ('A' for Active; 'I' for Inactive)
REMARK    1  A    between atoms: C_2  and  C_3
REMARK    2  A    between atoms: C_3  and  C_4
REMARK    3  A    between atoms: C_7  and  C_8
REMARK    4  A    between atoms: N_12  and  C_13
REMARK    5  A    between atoms: C_13  and  C_14
REMARK    6  A    between atoms: N_22  and  C_23
REMARK    7  A    between atoms: C_23  and  C_24
REMARK    8  A    between atoms: C_24  and  C_25
REMARK                            x       y       z     vdW  Elec       q    Type
REMARK                         _______ _______ _______ _____ _____    ______ ____
ROOT
ATOM      1  C   UNL     1       5.207   5.388  17.118  0.00  0.00    +0.000 A 
ATOM      2  N   UNL     1       5.470   4.393  16.259  0.00  0.00    +0.000 NA
ATOM      3  O   UNL     1       5.152   3.244  16.989  0.00  0.00    +0.000 OA
ATOM      4  C   UNL     1       4.752   3.670  18.222  0.00  0.00    +0.000 A 
ATOM      5  N   UNL     1       4.796   4.977  18.360  0.00  0.00    +0.000 NA
ENDROOT
BRANCH   4   6
ATOM      6  C   UNL     1       4.246   2.641  19.177  0.00  0.00    +0.000 C 
ATOM      7  C   UNL     1       3.116   1.848  18.517  0.00  0.00    +0.000 C 
ATOM      8  C   UNL     1       1.912   2.722  18.787  0.00  0.00    +0.000 C 
ATOM      9  O   UNL     1       0.881   2.718  18.136  0.00  0.00    +0.000 OA
ATOM     10  N   UNL     1       2.197   3.487  19.908  0.00  0.00    +0.000 N 
ATOM     11  C   UNL     1       3.550   3.284  20.374  0.00  0.00    +0.000 C 
BRANCH  10  12
ATOM     12  C   UNL     1       1.287   4.445  20.511  0.00  0.00    +0.000 C 
BRANCH  12  13
ATOM     13  C   UNL     1       1.553   5.876  20.110  0.00  0.00    +0.000 A 
ATOM     14  C   UNL     1       1.998   6.188  18.818  0.00  0.00    +0.000 A 
ATOM     15  C   UNL     1       2.184   7.520  18.432  0.00  0.00    +0.000 A 
ATOM     16  C   UNL     1       1.928   8.552  19.333  0.00  0.00    +0.000 A 
ATOM     17  C   UNL     1       1.484   8.256  20.618  0.00  0.00    +0.000 A 
ATOM     18  C   UNL     1       1.293   6.928  21.003  0.00  0.00    +0.000 A 
ENDBRANCH  12  13
ENDBRANCH  10  12
ENDBRANCH   4   6
BRANCH   1  19
ATOM     19  C   UNL     1       5.386   6.818  16.790  0.00  0.00    +0.000 C 
BRANCH  19  21
ATOM     20  O   UNL     1       7.725   6.710  16.259  0.00  0.00    +0.000 OA
ATOM     21  C   UNL     1       6.835   7.247  16.914  0.00  0.00    +0.000 C 
ATOM     22  N   UNL     1       7.085   8.212  17.875  0.00  0.00    +0.000 N 
ATOM     23  H   UNL     1       6.303   8.815  18.121  0.00  0.00    +0.000 HD
BRANCH  22  24
ATOM     24  C   UNL     1       8.425   8.751  18.070  0.00  0.00    +0.000 C 
BRANCH  24  25
ATOM     25  C   UNL     1       8.469  10.259  17.815  0.00  0.00    +0.000 C 
BRANCH  25  26
ATOM     26  C   UNL     1       9.586  10.951  18.560  0.00  0.00    +0.000 A 
ATOM     27  C   UNL     1       9.556  11.055  19.957  0.00  0.00    +0.000 A 
ATOM     28  C   UNL     1      10.601  11.677  20.645  0.00  0.00    +0.000 A 
ATOM     29  C   UNL     1      11.682  12.209  19.943  0.00  0.00    +0.000 A 
ATOM     30  C   UNL     1      11.715  12.125  18.552  0.00  0.00    +0.000 A 
ATOM     31  C   UNL     1      10.670  11.502  17.864  0.00  0.00    +0.000 A 
ENDBRANCH  25  26
ENDBRANCH  24  25
ENDBRANCH  22  24
ENDBRANCH  19  21
ENDBRANCH   1  19
TORSDOF 8
ENDMDL
MODEL 8
REMARK VINA RESULT:      -7.9      0.656      1.086
REMARK  Name = 
REMARK  8 active torsions:
REMARK  status: ('A' for Active; 'I' for Inactive)
REMARK    1  A    between atoms: C_2  and  C_3
REMARK    2  A    between atoms: C_3  and  C_4
REMARK    3  A    between atoms: C_7  and  C_8
REMARK    4  A    between atoms: N_12  and  C_13
REMARK    5  A    between atoms: C_13  and  C_14
REMARK    6  A    between atoms: N_22  and  C_23
REMARK    7  A    between atoms: C_23  and  C_24
REMARK    8  A    between atoms: C_24  and  C_25
REMARK                            x       y       z     vdW  Elec       q    Type
REMARK                         _______ _______ _______ _____ _____    ______ ____
ROOT
ATOM      1  C   UNL     1       1.765   7.162  20.475  0.00  0.00    +0.000 A 
ATOM      2  N   UNL     1       2.360   7.477  19.316  0.00  0.00    +0.000 NA
ATOM      3  O   UNL     1       2.406   6.258  18.634  0.00  0.00    +0.000 OA
ATOM      4  C   UNL     1       1.853   5.330  19.467  0.00  0.00    +0.000 A 
ATOM      5  N   UNL     1       1.470   5.830  20.621  0.00  0.00    +0.000 NA
ENDROOT
BRANCH   4   6
ATOM      6  C   UNL     1       1.674   3.946  18.938  0.00  0.00    +0.000 C 
ATOM      7  C   UNL     1       2.437   2.960  19.825  0.00  0.00    +0.000 C 
ATOM      8  C   UNL     1       3.832   3.024  19.248  0.00  0.00    +0.000 C 
ATOM      9  O   UNL     1       4.854   2.732  19.846  0.00  0.00    +0.000 OA
ATOM     10  N   UNL     1       3.718   3.442  17.930  0.00  0.00    +0.000 N 
ATOM     11  C   UNL     1       2.356   3.774  17.582  0.00  0.00    +0.000 C 
BRANCH  10  12
ATOM     12  C   UNL     1       4.833   3.612  17.016  0.00  0.00    +0.000 C 
BRANCH  12  13
ATOM     13  C   UNL     1       5.669   4.838  17.292  0.00  0.00    +0.000 A 
ATOM     14  C   UNL     1       6.886   4.737  17.981  0.00  0.00    +0.000 A 
ATOM     15  C   UNL     1       7.687   5.865  18.181  0.00  0.00    +0.000 A 
ATOM     16  C   UNL     1       7.281   7.107  17.696  0.00  0.00    +0.000 A 
ATOM     17  C   UNL     1       6.076   7.222  17.008  0.00  0.00    +0.000 A 
ATOM     18  C   UNL     1       5.279   6.095  16.803  0.00  0.00    +0.000 A 
ENDBRANCH  12  13
ENDBRANCH  10  12
ENDBRANCH   4   6
BRANCH   1  19
ATOM     19  C   UNL     1       1.486   8.144  21.543  0.00  0.00    +0.000 C 
BRANCH  19  21
ATOM     20  O   UNL     1       1.357  10.542  21.537  0.00  0.00    +0.000 OA
ATOM     21  C   UNL     1       1.066   9.487  20.978  0.00  0.00    +0.000 C 
ATOM     22  N   UNL     1       0.265   9.430  19.850  0.00  0.00    +0.000 N 
ATOM     23  H   UNL     1       0.346   8.589  19.283  0.00  0.00    +0.000 HD
BRANCH  22  24
ATOM     24  C   UNL     1      -0.173  10.645  19.174  0.00  0.00    +0.000 C 
BRANCH  24  25
ATOM     25  C   UNL     1      -1.116  10.335  18.011  0.00  0.00    +0.000 C 
BRANCH  25  26
ATOM     26  C   UNL     1      -2.530  10.809  18.255  0.00  0.00    +0.000 A 
ATOM     27  C   UNL     1      -2.781  11.906  19.090  0.00  0.00    +0.000 A 
ATOM     28  C   UNL     1      -4.087  12.355  19.297  0.00  0.00    +0.000 A 
ATOM     29  C   UNL     1      -5.156  11.708  18.679  0.00  0.00    +0.000 A 
ATOM     30  C   UNL     1      -4.919  10.606  17.858  0.00  0.00    +0.000 A 
ATOM     31  C   UNL     1      -3.613  10.158  17.650  0.00  0.00    +0.000 A 
ENDBRANCH  25  26
ENDBRANCH  24  25
ENDBRANCH  22  24
ENDBRANCH  19  21
ENDBRANCH   1  19
TORSDOF 8
ENDMDL
MODEL 9
REMARK VINA RESULT:      -7.9      1.357      1.703
REMARK  Name = 
REMARK  8 active torsions:
REMARK  status: ('A' for Active; 'I' for Inactive)
REMARK    1  A    between atoms: C_2  and  C_3
REMARK    2  A    between atoms: C_3  and  C_4
REMARK    3  A    between atoms: C_7  and  C_8
REMARK    4  A    between atoms: N_12  and  C_13
REMARK    5  A    between atoms: C_13  and  C_14
REMARK    6  A    between atoms: N_22  and  C_23
REMARK    7  A    between atoms: C_23  and  C_24
REMARK    8  A    between atoms: C_24  and  C_25
REMARK                            x       y       z     vdW  Elec       q    Type
REMARK                         _______ _______ _______ _____ _____    ______ ____
ROOT
ATOM      1  C   UNL     1       2.157   6.806  19.599  0.00  0.00    +0.000 A 
ATOM      2  N   UNL     1       1.479   6.469  20.705  0.00  0.00    +0.000 NA
ATOM      3  O   UNL     1       1.195   5.114  20.511  0.00  0.00    +0.000 OA
ATOM      4  C   UNL     1       1.714   4.784  19.293  0.00  0.00    +0.000 A 
ATOM      5  N   UNL     1       2.290   5.795  18.681  0.00  0.00    +0.000 NA
ENDROOT
BRANCH   4   6
ATOM      6  C   UNL     1       1.648   3.351  18.880  0.00  0.00    +0.000 C 
ATOM      7  C   UNL     1       2.456   2.501  19.863  0.00  0.00    +0.000 C 
ATOM      8  C   UNL     1       3.857   2.618  19.309  0.00  0.00    +0.000 C 
ATOM      9  O   UNL     1       4.882   2.452  19.949  0.00  0.00    +0.000 OA
ATOM     10  N   UNL     1       3.747   2.915  17.958  0.00  0.00    +0.000 N 
ATOM     11  C   UNL     1       2.374   3.116  17.557  0.00  0.00    +0.000 C 
BRANCH  10  12
ATOM     12  C   UNL     1       4.869   3.088  17.054  0.00  0.00    +0.000 C 
BRANCH  12  13
ATOM     13  C   UNL     1       5.514   4.451  17.132  0.00  0.00    +0.000 A 
ATOM     14  C   UNL     1       4.934   5.557  16.494  0.00  0.00    +0.000 A 
ATOM     15  C   UNL     1       5.501   6.829  16.620  0.00  0.00    +0.000 A 
ATOM     16  C   UNL     1       6.653   7.010  17.384  0.00  0.00    +0.000 A 
ATOM     17  C   UNL     1       7.237   5.921  18.024  0.00  0.00    +0.000 A 
ATOM     18  C   UNL     1       6.669   4.652  17.903  0.00  0.00    +0.000 A 
ENDBRANCH  12  13
ENDBRANCH  10  12
ENDBRANCH   4   6
BRANCH   1  19
ATOM     19  C   UNL     1       2.684   8.163  19.347  0.00  0.00    +0.000 C 
BRANCH  19  21
ATOM     20  O   UNL     1       1.508   8.922  17.395  0.00  0.00    +0.000 OA
ATOM     21  C   UNL     1       1.682   9.028  18.608  0.00  0.00    +0.000 C 
ATOM     22  N   UNL     1       1.053   9.993  19.375  0.00  0.00    +0.000 N 
ATOM     23  H   UNL     1       0.997   9.807  20.374  0.00  0.00    +0.000 HD
BRANCH  22  24
ATOM     24  C   UNL     1       0.032  10.864  18.805  0.00  0.00    +0.000 C 
BRANCH  24  25
ATOM     25  C   UNL     1      -1.376  10.330  19.072  0.00  0.00    +0.000 C 
BRANCH  25  26
ATOM     26  C   UNL     1      -2.293  10.463  17.878  0.00  0.00    +0.000 A 
ATOM     27  C   UNL     1      -1.963   9.868  16.654  0.00  0.00    +0.000 A 
ATOM     28  C   UNL     1      -2.822   9.975  15.558  0.00  0.00    +0.000 A 
ATOM     29  C   UNL     1      -4.017  10.684  15.672  0.00  0.00    +0.000 A 
ATOM     30  C   UNL     1      -4.350  11.292  16.882  0.00  0.00    +0.000 A 
ATOM     31  C   UNL     1      -3.490  11.184  17.978  0.00  0.00    +0.000 A 
ENDBRANCH  25  26
ENDBRANCH  24  25
ENDBRANCH  22  24
ENDBRANCH  19  21
ENDBRANCH   1  19
TORSDOF 8
ENDMDL
