MODEL 1
REMARK VINA RESULT:      -8.3      0.000      0.000
REMARK  Name = 
REMARK  3 active torsions:
REMARK  status: ('A' for Active; 'I' for Inactive)
REMARK    1  A    between atoms: C_2  and  C_14
REMARK    2  A    between atoms: N_3  and  C_4
REMARK    3  A    between atoms: C_16  and  C_17
REMARK                            x       y       z     vdW  Elec       q    Type
REMARK                         _______ _______ _______ _____ _____    ______ ____
ROOT
ATOM      1  O   UNL     1       0.937   8.982  19.072  0.00  0.00    +0.000 OA
ATOM      2  C   UNL     1       1.105   8.616  20.230  0.00  0.00    +0.000 C 
ATOM      3  N   UNL     1       1.792   7.456  20.582  0.00  0.00    +0.000 N 
ATOM      4  H   UNL     1       1.711   7.134  21.540  0.00  0.00    +0.000 HD
ENDROOT
BRANCH   3   5
ATOM      5  C   UNL     1       2.392   6.596  19.626  0.00  0.00    +0.000 A 
ATOM      6  C   UNL     1       2.317   5.206  19.698  0.00  0.00    +0.000 A 
ATOM      7  N   UNL     1       2.948   4.352  18.864  0.00  0.00    +0.000 NA
ATOM      8  C   UNL     1       3.716   4.872  17.905  0.00  0.00    +0.000 A 
ATOM      9  C   UNL     1       4.417   4.004  17.088  0.00  0.00    +0.000 A 
ATOM     10  C   UNL     1       5.259   4.472  16.081  0.00  0.00    +0.000 A 
ATOM     11  C   UNL     1       5.398   5.840  15.881  0.00  0.00    +0.000 A 
ATOM     12  C   UNL     1       4.691   6.738  16.686  0.00  0.00    +0.000 A 
ATOM     13  C   UNL     1       3.844   6.265  17.708  0.00  0.00    +0.000 A 
ATOM     14  C   UNL     1       3.133   7.128  18.573  0.00  0.00    +0.000 A 
ENDBRANCH   3   5
BRANCH   2  15
ATOM     15  C   UNL     1       0.527   9.381  21.297  0.00  0.00    +0.000 A 
ATOM     16  C   UNL     1      -0.347  10.437  21.213  0.00  0.00    +0.000 A 
ATOM     17  C   UNL     1      -0.536  10.874  22.541  0.00  0.00    +0.000 A 
ATOM     18  N   UNL     1       0.173  10.096  23.382  0.00  0.00    +0.000 NA
ATOM     19  O   UNL     1       0.828   9.158  22.600  0.00  0.00    +0.000 OA
BRANCH  17  20
ATOM     20  C   UNL     1      -1.369  11.987  22.997  0.00  0.00    +0.000 A 
ATOM     21  C   UNL     1      -0.869  13.299  22.996  0.00  0.00    +0.000 A 
ATOM     22  C   UNL     1      -1.644  14.364  23.467  0.00  0.00    +0.000 A 
ATOM     23  C   UNL     1      -2.929  14.124  23.947  0.00  0.00    +0.000 A 
ATOM     24  C   UNL     1      -3.434  12.831  23.935  0.00  0.00    +0.000 A 
ATOM     25  F   UNL     1      -4.670  12.602  24.402  0.00  0.00    +0.000 F 
ATOM     26  C   UNL     1      -2.675  11.767  23.464  0.00  0.00    +0.000 A 
ENDBRANCH  17  20
ENDBRANCH   2  15
TORSDOF 3
ENDMDL
MODEL 2
REMARK VINA RESULT:      -8.2      3.729      9.813
REMARK  Name = 
REMARK  3 active torsions:
REMARK  status: ('A' for Active; 'I' for Inactive)
REMARK    1  A    between atoms: C_2  and  C_14
REMARK    2  A    between atoms: N_3  and  C_4
REMARK    3  A    between atoms: C_16  and  C_17
REMARK                            x       y       z     vdW  Elec       q    Type
REMARK                         _______ _______ _______ _____ _____    ______ ____
ROOT
ATOM      1  O   UNL     1       0.535   6.330  20.853  0.00  0.00    +0.000 OA
ATOM      2  C   UNL     1       1.639   6.783  20.570  0.00  0.00    +0.000 C 
ATOM      3  N   UNL     1       2.004   8.113  20.772  0.00  0.00    +0.000 N 
ATOM      4  H   UNL     1       2.857   8.438  20.331  0.00  0.00    +0.000 HD
ENDROOT
BRANCH   3   5
ATOM      5  C   UNL     1       1.133   9.071  21.352  0.00  0.00    +0.000 A 
ATOM      6  C   UNL     1       0.900   9.157  22.723  0.00  0.00    +0.000 A 
ATOM      7  N   UNL     1       0.012   9.990  23.308  0.00  0.00    +0.000 NA
ATOM      8  C   UNL     1      -0.712  10.783  22.516  0.00  0.00    +0.000 A 
ATOM      9  C   UNL     1      -1.669  11.591  23.102  0.00  0.00    +0.000 A 
ATOM     10  C   UNL     1      -2.482  12.427  22.338  0.00  0.00    +0.000 A 
ATOM     11  C   UNL     1      -2.330  12.460  20.958  0.00  0.00    +0.000 A 
ATOM     12  C   UNL     1      -1.361  11.661  20.343  0.00  0.00    +0.000 A 
ATOM     13  C   UNL     1      -0.543  10.812  21.114  0.00  0.00    +0.000 A 
ATOM     14  C   UNL     1       0.427   9.959  20.542  0.00  0.00    +0.000 A 
ENDBRANCH   3   5
BRANCH   2  15
ATOM     15  C   UNL     1       2.610   5.928  19.950  0.00  0.00    +0.000 A 
ATOM     16  C   UNL     1       3.410   6.192  18.865  0.00  0.00    +0.000 A 
ATOM     17  C   UNL     1       4.115   4.995  18.620  0.00  0.00    +0.000 A 
ATOM     18  N   UNL     1       3.772   4.068  19.534  0.00  0.00    +0.000 NA
ATOM     19  O   UNL     1       2.838   4.659  20.369  0.00  0.00    +0.000 OA
BRANCH  17  20
ATOM     20  C   UNL     1       5.091   4.744  17.558  0.00  0.00    +0.000 A 
ATOM     21  C   UNL     1       6.466   4.733  17.842  0.00  0.00    +0.000 A 
ATOM     22  C   UNL     1       7.407   4.534  16.827  0.00  0.00    +0.000 A 
ATOM     23  C   UNL     1       6.980   4.346  15.515  0.00  0.00    +0.000 A 
ATOM     24  C   UNL     1       5.621   4.340  15.231  0.00  0.00    +0.000 A 
ATOM     25  F   UNL     1       5.212   4.164  13.967  0.00  0.00    +0.000 F 
ATOM     26  C   UNL     1       4.677   4.531  16.233  0.00  0.00    +0.000 A 
ENDBRANCH  17  20
ENDBRANCH   2  15
TORSDOF 3
ENDMDL
MODEL 3
REMARK VINA RESULT:      -8.1      0.977      1.372
REMARK  Name = 
REMARK  3 active torsions:
REMARK  status: ('A' for Active; 'I' for Inactive)
REMARK    1  A    between atoms: C_2  and  C_14
REMARK    2  A    between atoms: N_3  and  C_4
REMARK    3  A    between atoms: C_16  and  C_17
REMARK                            x       y       z     vdW  Elec       q    Type
REMARK                         _______ _______ _______ _____ _____    ______ ____
ROOT
ATOM      1  O   UNL     1       1.459   9.062  19.140  0.00  0.00    +0.000 OA
ATOM      2  C   UNL     1       1.354   8.562  20.255  0.00  0.00    +0.000 C 
ATOM      3  N   UNL     1       1.789   7.276  20.571  0.00  0.00    +0.000 N 
ATOM      4  H   UNL     1       1.485   6.882  21.454  0.00  0.00    +0.000 HD
ENDROOT
BRANCH   3   5
ATOM      5  C   UNL     1       2.424   6.426  19.630  0.00  0.00    +0.000 A 
ATOM      6  C   UNL     1       2.442   5.038  19.748  0.00  0.00    +0.000 A 
ATOM      7  N   UNL     1       3.110   4.198  18.927  0.00  0.00    +0.000 NA
ATOM      8  C   UNL     1       3.824   4.735  17.936  0.00  0.00    +0.000 A 
ATOM      9  C   UNL     1       4.564   3.887  17.133  0.00  0.00    +0.000 A 
ATOM     10  C   UNL     1       5.355   4.375  16.094  0.00  0.00    +0.000 A 
ATOM     11  C   UNL     1       5.401   5.742  15.848  0.00  0.00    +0.000 A 
ATOM     12  C   UNL     1       4.652   6.618  16.639  0.00  0.00    +0.000 A 
ATOM     13  C   UNL     1       3.857   6.126  17.693  0.00  0.00    +0.000 A 
ATOM     14  C   UNL     1       3.109   6.969  18.545  0.00  0.00    +0.000 A 
ENDBRANCH   3   5
BRANCH   2  15
ATOM     15  C   UNL     1       0.705   9.306  21.296  0.00  0.00    +0.000 A 
ATOM     16  C   UNL     1      -0.121  10.396  21.177  0.00  0.00    +0.000 A 
ATOM     17  C   UNL     1      -0.418  10.787  22.501  0.00  0.00    +0.000 A 
ATOM     18  N   UNL     1       0.182   9.950  23.369  0.00  0.00    +0.000 NA
ATOM     19  O   UNL     1       0.874   9.020  22.610  0.00  0.00    +0.000 OA
BRANCH  17  20
ATOM     20  C   UNL     1      -1.252  11.912  22.925  0.00  0.00    +0.000 A 
ATOM     21  C   UNL     1      -2.567  11.697  23.368  0.00  0.00    +0.000 A 
ATOM     22  C   UNL     1      -3.385  12.769  23.738  0.00  0.00    +0.000 A 
ATOM     23  C   UNL     1      -2.895  14.070  23.666  0.00  0.00    +0.000 A 
ATOM     24  C   UNL     1      -1.589  14.288  23.243  0.00  0.00    +0.000 A 
ATOM     25  F   UNL     1      -1.120  15.541  23.170  0.00  0.00    +0.000 F 
ATOM     26  C   UNL     1      -0.766  13.229  22.880  0.00  0.00    +0.000 A 
ENDBRANCH  17  20
ENDBRANCH   2  15
TORSDOF 3
ENDMDL
MODEL 4
REMARK VINA RESULT:      -8.1      5.504     11.427
REMARK  Name = 
REMARK  3 active torsions:
REMARK  status: ('A' for Active; 'I' for Inactive)
REMARK    1  A    between atoms: C_2  and  C_14
REMARK    2  A    between atoms: N_3  and  C_4
REMARK    3  A    between atoms: C_16  and  C_17
REMARK                            x       y       z     vdW  Elec       q    Type
REMARK                         _______ _______ _______ _____ _____    ______ ____
ROOT
ATOM      1  O   UNL     1       5.840   7.374  17.655  0.00  0.00    +0.000 OA
ATOM      2  C   UNL     1       5.159   6.617  16.973  0.00  0.00    +0.000 C 
ATOM      3  N   UNL     1       3.815   6.345  17.227  0.00  0.00    +0.000 N 
ATOM      4  H   UNL     1       3.393   5.565  16.736  0.00  0.00    +0.000 HD
ENDROOT
BRANCH   3   5
ATOM      5  C   UNL     1       3.096   6.945  18.292  0.00  0.00    +0.000 A 
ATOM      6  C   UNL     1       2.869   6.311  19.511  0.00  0.00    +0.000 A 
ATOM      7  N   UNL     1       2.114   6.808  20.516  0.00  0.00    +0.000 NA
ATOM      8  C   UNL     1       1.525   7.990  20.323  0.00  0.00    +0.000 A 
ATOM      9  C   UNL     1       0.697   8.475  21.320  0.00  0.00    +0.000 A 
ATOM     10  C   UNL     1       0.026   9.689  21.182  0.00  0.00    +0.000 A 
ATOM     11  C   UNL     1       0.192  10.438  20.024  0.00  0.00    +0.000 A 
ATOM     12  C   UNL     1       1.032   9.975  19.007  0.00  0.00    +0.000 A 
ATOM     13  C   UNL     1       1.707   8.746  19.144  0.00  0.00    +0.000 A 
ATOM     14  C   UNL     1       2.539   8.213  18.134  0.00  0.00    +0.000 A 
ENDBRANCH   3   5
BRANCH   2  15
ATOM     15  C   UNL     1       5.769   5.920  15.877  0.00  0.00    +0.000 A 
ATOM     16  C   UNL     1       5.165   5.150  14.914  0.00  0.00    +0.000 A 
ATOM     17  C   UNL     1       6.219   4.635  14.130  0.00  0.00    +0.000 A 
ATOM     18  N   UNL     1       7.397   5.101  14.588  0.00  0.00    +0.000 NA
ATOM     19  O   UNL     1       7.109   5.911  15.675  0.00  0.00    +0.000 OA
BRANCH  17  20
ATOM     20  C   UNL     1       6.111   3.741  12.978  0.00  0.00    +0.000 A 
ATOM     21  C   UNL     1       4.851   3.374  12.476  0.00  0.00    +0.000 A 
ATOM     22  C   UNL     1       4.736   2.487  11.401  0.00  0.00    +0.000 A 
ATOM     23  C   UNL     1       5.883   1.957  10.817  0.00  0.00    +0.000 A 
ATOM     24  C   UNL     1       7.132   2.328  11.298  0.00  0.00    +0.000 A 
ATOM     25  F   UNL     1       8.235   1.813  10.737  0.00  0.00    +0.000 F 
ATOM     26  C   UNL     1       7.257   3.213  12.362  0.00  0.00    +0.000 A 
ENDBRANCH  17  20
ENDBRANCH   2  15
TORSDOF 3
ENDMDL
MODEL 5
REMARK VINA RESULT:      -8.1      4.604     10.706
REMARK  Name = 
REMARK  3 active torsions:
REMARK  status: ('A' for Active; 'I' for Inactive)
REMARK    1  A    between atoms: C_2  and  C_14
REMARK    2  A    between atoms: N_3  and  C_4
REMARK    3  A    between atoms: C_16  and  C_17
REMARK                            x       y       z     vdW  Elec       q    Type
REMARK                         _______ _______ _______ _____ _____    ______ ____
ROOT
ATOM      1  O   UNL     1       3.439   6.175  19.624  0.00  0.00    +0.000 OA
ATOM      2  C   UNL     1       3.438   6.460  18.431  0.00  0.00    +0.000 C 
ATOM      3  N   UNL     1       2.727   7.530  17.892  0.00  0.00    +0.000 N 
ATOM      4  H   UNL     1       2.628   7.568  16.884  0.00  0.00    +0.000 HD
ENDROOT
BRANCH   3   5
ATOM      5  C   UNL     1       1.951   8.416  18.684  0.00  0.00    +0.000 A 
ATOM      6  C   UNL     1       1.623   9.709  18.281  0.00  0.00    +0.000 A 
ATOM      7  N   UNL     1       0.966  10.614  19.040  0.00  0.00    +0.000 NA
ATOM      8  C   UNL     1       0.618  10.253  20.276  0.00  0.00    +0.000 A 
ATOM      9  C   UNL     1       0.005  11.195  21.082  0.00  0.00    +0.000 A 
ATOM     10  C   UNL     1      -0.365  10.902  22.393  0.00  0.00    +0.000 A 
ATOM     11  C   UNL     1      -0.123   9.634  22.908  0.00  0.00    +0.000 A 
ATOM     12  C   UNL     1       0.485   8.661  22.110  0.00  0.00    +0.000 A 
ATOM     13  C   UNL     1       0.864   8.959  20.786  0.00  0.00    +0.000 A 
ATOM     14  C   UNL     1       1.513   8.025  19.948  0.00  0.00    +0.000 A 
ENDBRANCH   3   5
BRANCH   2  15
ATOM     15  C   UNL     1       4.161   5.629  17.513  0.00  0.00    +0.000 A 
ATOM     16  C   UNL     1       4.769   5.988  16.335  0.00  0.00    +0.000 A 
ATOM     17  C   UNL     1       5.263   4.786  15.785  0.00  0.00    +0.000 A 
ATOM     18  N   UNL     1       4.986   3.759  16.613  0.00  0.00    +0.000 NA
ATOM     19  O   UNL     1       4.306   4.294  17.695  0.00  0.00    +0.000 OA
BRANCH  17  20
ATOM     20  C   UNL     1       5.982   4.619  14.523  0.00  0.00    +0.000 A 
ATOM     21  C   UNL     1       5.515   3.722  13.549  0.00  0.00    +0.000 A 
ATOM     22  C   UNL     1       6.218   3.527  12.355  0.00  0.00    +0.000 A 
ATOM     23  C   UNL     1       7.399   4.228  12.126  0.00  0.00    +0.000 A 
ATOM     24  C   UNL     1       7.857   5.128  13.078  0.00  0.00    +0.000 A 
ATOM     25  F   UNL     1       8.996   5.799  12.857  0.00  0.00    +0.000 F 
ATOM     26  C   UNL     1       7.163   5.335  14.264  0.00  0.00    +0.000 A 
ENDBRANCH  17  20
ENDBRANCH   2  15
TORSDOF 3
ENDMDL
MODEL 6
REMARK VINA RESULT:      -8.0      1.215      2.043
REMARK  Name = 
REMARK  3 active torsions:
REMARK  status: ('A' for Active; 'I' for Inactive)
REMARK    1  A    between atoms: C_2  and  C_14
REMARK    2  A    between atoms: N_3  and  C_4
REMARK    3  A    between atoms: C_16  and  C_17
REMARK                            x       y       z     vdW  Elec       q    Type
REMARK                         _______ _______ _______ _____ _____    ______ ____
ROOT
ATOM      1  O   UNL     1       1.239   8.917  19.500  0.00  0.00    +0.000 OA
ATOM      2  C   UNL     1       1.090   8.523  20.652  0.00  0.00    +0.000 C 
ATOM      3  N   UNL     1       1.473   7.257  21.092  0.00  0.00    +0.000 N 
ATOM      4  H   UNL     1       1.135   6.953  21.998  0.00  0.00    +0.000 HD
ENDROOT
BRANCH   3   5
ATOM      5  C   UNL     1       2.101   6.306  20.248  0.00  0.00    +0.000 A 
ATOM      6  C   UNL     1       2.957   6.658  19.207  0.00  0.00    +0.000 A 
ATOM      7  N   UNL     1       3.503   5.792  18.324  0.00  0.00    +0.000 NA
ATOM      8  C   UNL     1       3.188   4.502  18.444  0.00  0.00    +0.000 A 
ATOM      9  C   UNL     1       3.689   3.619  17.505  0.00  0.00    +0.000 A 
ATOM     10  C   UNL     1       3.383   2.259  17.548  0.00  0.00    +0.000 A 
ATOM     11  C   UNL     1       2.564   1.771  18.558  0.00  0.00    +0.000 A 
ATOM     12  C   UNL     1       2.054   2.641  19.526  0.00  0.00    +0.000 A 
ATOM     13  C   UNL     1       2.358   4.016  19.480  0.00  0.00    +0.000 A 
ATOM     14  C   UNL     1       1.842   4.946  20.410  0.00  0.00    +0.000 A 
ENDBRANCH   3   5
BRANCH   2  15
ATOM     15  C   UNL     1       0.442   9.376  21.605  0.00  0.00    +0.000 A 
ATOM     16  C   UNL     1      -0.348  10.475  21.368  0.00  0.00    +0.000 A 
ATOM     17  C   UNL     1      -0.661  10.993  22.643  0.00  0.00    +0.000 A 
ATOM     18  N   UNL     1      -0.106  10.223  23.597  0.00  0.00    +0.000 NA
ATOM     19  O   UNL     1       0.575   9.208  22.943  0.00  0.00    +0.000 OA
BRANCH  17  20
ATOM     20  C   UNL     1      -1.469  12.175  22.943  0.00  0.00    +0.000 A 
ATOM     21  C   UNL     1      -0.912  13.461  22.853  0.00  0.00    +0.000 A 
ATOM     22  C   UNL     1      -1.665  14.594  23.177  0.00  0.00    +0.000 A 
ATOM     23  C   UNL     1      -2.985  14.451  23.596  0.00  0.00    +0.000 A 
ATOM     24  C   UNL     1      -3.546  13.183  23.671  0.00  0.00    +0.000 A 
ATOM     25  F   UNL     1      -4.815  13.046  24.079  0.00  0.00    +0.000 F 
ATOM     26  C   UNL     1      -2.809  12.051  23.345  0.00  0.00    +0.000 A 
ENDBRANCH  17  20
ENDBRANCH   2  15
TORSDOF 3
ENDMDL
MODEL 7
REMARK VINA RESULT:      -8.0      4.623     10.674
REMARK  Name = 
REMARK  3 active torsions:
REMARK  status: ('A' for Active; 'I' for Inactive)
REMARK    1  A    between atoms: C_2  and  C_14
REMARK    2  A    between atoms: N_3  and  C_4
REMARK    3  A    between atoms: C_16  and  C_17
REMARK                            x       y       z     vdW  Elec       q    Type
REMARK                         _______ _______ _______ _____ _____    ______ ____
ROOT
ATOM      1  O   UNL     1       3.579   5.633  19.722  0.00  0.00    +0.000 OA
ATOM      2  C   UNL     1       3.552   6.016  18.557  0.00  0.00    +0.000 C 
ATOM      3  N   UNL     1       2.854   7.143  18.129  0.00  0.00    +0.000 N 
ATOM      4  H   UNL     1       2.729   7.267  17.131  0.00  0.00    +0.000 HD
ENDROOT
BRANCH   3   5
ATOM      5  C   UNL     1       2.123   7.978  19.013  0.00  0.00    +0.000 A 
ATOM      6  C   UNL     1       1.886   7.654  20.347  0.00  0.00    +0.000 A 
ATOM      7  N   UNL     1       1.121   8.373  21.197  0.00  0.00    +0.000 NA
ATOM      8  C   UNL     1       0.530   9.471  20.722  0.00  0.00    +0.000 A 
ATOM      9  C   UNL     1      -0.308  10.177  21.566  0.00  0.00    +0.000 A 
ATOM     10  C   UNL     1      -0.982  11.319  21.136  0.00  0.00    +0.000 A 
ATOM     11  C   UNL     1      -0.807  11.770  19.833  0.00  0.00    +0.000 A 
ATOM     12  C   UNL     1       0.044  11.081  18.964  0.00  0.00    +0.000 A 
ATOM     13  C   UNL     1       0.721   9.923  19.397  0.00  0.00    +0.000 A 
ATOM     14  C   UNL     1       1.564   9.169  18.551  0.00  0.00    +0.000 A 
ENDBRANCH   3   5
BRANCH   2  15
ATOM     15  C   UNL     1       4.229   5.248  17.552  0.00  0.00    +0.000 A 
ATOM     16  C   UNL     1       4.846   5.694  16.410  0.00  0.00    +0.000 A 
ATOM     17  C   UNL     1       5.278   4.530  15.738  0.00  0.00    +0.000 A 
ATOM     18  N   UNL     1       4.956   3.441  16.461  0.00  0.00    +0.000 NA
ATOM     19  O   UNL     1       4.309   3.895  17.599  0.00  0.00    +0.000 OA
BRANCH  17  20
ATOM     20  C   UNL     1       5.981   4.457  14.457  0.00  0.00    +0.000 A 
ATOM     21  C   UNL     1       5.532   3.593  13.446  0.00  0.00    +0.000 A 
ATOM     22  C   UNL     1       6.221   3.486  12.233  0.00  0.00    +0.000 A 
ATOM     23  C   UNL     1       7.369   4.245  12.021  0.00  0.00    +0.000 A 
ATOM     24  C   UNL     1       7.808   5.114  13.012  0.00  0.00    +0.000 A 
ATOM     25  F   UNL     1       8.916   5.840  12.807  0.00  0.00    +0.000 F 
ATOM     26  C   UNL     1       7.127   5.232  14.217  0.00  0.00    +0.000 A 
ENDBRANCH  17  20
ENDBRANCH   2  15
TORSDOF 3
ENDMDL
MODEL 8
REMARK VINA RESULT:      -8.0      1.862      2.738
REMARK  Name = 
REMARK  3 active torsions:
REMARK  status: ('A' for Active; 'I' for Inactive)
REMARK    1  A    between atoms: C_2  and  C_14
REMARK    2  A    between atoms: N_3  and  C_4
REMARK    3  A    between atoms: C_16  and  C_17
REMARK                            x       y       z     vdW  Elec       q    Type
REMARK                         _______ _______ _______ _____ _____    ______ ____
ROOT
ATOM      1  O   UNL     1       0.521   9.186  18.985  0.00  0.00    +0.000 OA
ATOM      2  C   UNL     1       0.879   9.238  20.157  0.00  0.00    +0.000 C 
ATOM      3  N   UNL     1       1.584   8.220  20.797  0.00  0.00    +0.000 N 
ATOM      4  H   UNL     1       1.662   8.266  21.806  0.00  0.00    +0.000 HD
ENDROOT
BRANCH   3   5
ATOM      5  C   UNL     1       1.981   7.028  20.139  0.00  0.00    +0.000 A 
ATOM      6  C   UNL     1       2.840   7.012  19.042  0.00  0.00    +0.000 A 
ATOM      7  N   UNL     1       3.171   5.912  18.332  0.00  0.00    +0.000 NA
ATOM      8  C   UNL     1       2.623   4.751  18.693  0.00  0.00    +0.000 A 
ATOM      9  C   UNL     1       2.904   3.632  17.930  0.00  0.00    +0.000 A 
ATOM     10  C   UNL     1       2.349   2.389  18.229  0.00  0.00    +0.000 A 
ATOM     11  C   UNL     1       1.498   2.260  19.320  0.00  0.00    +0.000 A 
ATOM     12  C   UNL     1       1.207   3.374  20.113  0.00  0.00    +0.000 A 
ATOM     13  C   UNL     1       1.764   4.632  19.808  0.00  0.00    +0.000 A 
ATOM     14  C   UNL     1       1.477   5.797  20.554  0.00  0.00    +0.000 A 
ENDBRANCH   3   5
BRANCH   2  15
ATOM     15  C   UNL     1       0.520  10.379  20.948  0.00  0.00    +0.000 A 
ATOM     16  C   UNL     1      -0.641  10.599  21.650  0.00  0.00    +0.000 A 
ATOM     17  C   UNL     1      -0.516  11.900  22.182  0.00  0.00    +0.000 A 
ATOM     18  N   UNL     1       0.676  12.422  21.836  0.00  0.00    +0.000 NA
ATOM     19  O   UNL     1       1.323  11.463  21.073  0.00  0.00    +0.000 OA
BRANCH  17  20
ATOM     20  C   UNL     1      -1.493  12.619  22.999  0.00  0.00    +0.000 A 
ATOM     21  C   UNL     1      -2.736  12.038  23.301  0.00  0.00    +0.000 A 
ATOM     22  C   UNL     1      -3.692  12.734  24.048  0.00  0.00    +0.000 A 
ATOM     23  C   UNL     1      -3.414  14.021  24.500  0.00  0.00    +0.000 A 
ATOM     24  C   UNL     1      -2.180  14.594  24.219  0.00  0.00    +0.000 A 
ATOM     25  F   UNL     1      -1.916  15.835  24.651  0.00  0.00    +0.000 F 
ATOM     26  C   UNL     1      -1.221  13.909  23.483  0.00  0.00    +0.000 A 
ENDBRANCH  17  20
ENDBRANCH   2  15
TORSDOF 3
ENDMDL
MODEL 9
REMARK VINA RESULT:      -8.0      7.544      9.314
REMARK  Name = 
REMARK  3 active torsions:
REMARK  status: ('A' for Active; 'I' for Inactive)
REMARK    1  A    between atoms: C_2  and  C_14
REMARK    2  A    between atoms: N_3  and  C_4
REMARK    3  A    between atoms: C_16  and  C_17
REMARK                            x       y       z     vdW  Elec       q    Type
REMARK                         _______ _______ _______ _____ _____    ______ ____
ROOT
ATOM      1  O   UNL     1       7.618   5.411  18.877  0.00  0.00    +0.000 OA
ATOM      2  C   UNL     1       7.004   6.372  18.425  0.00  0.00    +0.000 C 
ATOM      3  N   UNL     1       5.654   6.334  18.080  0.00  0.00    +0.000 N 
ATOM      4  H   UNL     1       5.287   7.107  17.536  0.00  0.00    +0.000 HD
ENDROOT
BRANCH   3   5
ATOM      5  C   UNL     1       4.849   5.178  18.246  0.00  0.00    +0.000 A 
ATOM      6  C   UNL     1       4.837   4.121  17.339  0.00  0.00    +0.000 A 
ATOM      7  N   UNL     1       4.021   3.046  17.411  0.00  0.00    +0.000 NA
ATOM      8  C   UNL     1       3.146   2.997  18.416  0.00  0.00    +0.000 A 
ATOM      9  C   UNL     1       2.262   1.934  18.460  0.00  0.00    +0.000 A 
ATOM     10  C   UNL     1       1.302   1.826  19.464  0.00  0.00    +0.000 A 
ATOM     11  C   UNL     1       1.228   2.800  20.452  0.00  0.00    +0.000 A 
ATOM     12  C   UNL     1       2.117   3.879  20.437  0.00  0.00    +0.000 A 
ATOM     13  C   UNL     1       3.085   3.991  19.419  0.00  0.00    +0.000 A 
ATOM     14  C   UNL     1       3.984   5.077  19.335  0.00  0.00    +0.000 A 
ENDBRANCH   3   5
BRANCH   2  15
ATOM     15  C   UNL     1       7.705   7.599  18.181  0.00  0.00    +0.000 A 
ATOM     16  C   UNL     1       8.525   8.297  19.034  0.00  0.00    +0.000 A 
ATOM     17  C   UNL     1       8.889   9.466  18.333  0.00  0.00    +0.000 A 
ATOM     18  N   UNL     1       8.333   9.452  17.106  0.00  0.00    +0.000 NA
ATOM     19  O   UNL     1       7.602   8.279  17.013  0.00  0.00    +0.000 OA
BRANCH  17  20
ATOM     20  C   UNL     1       9.744  10.553  18.808  0.00  0.00    +0.000 A 
ATOM     21  C   UNL     1       9.826  10.849  20.178  0.00  0.00    +0.000 A 
ATOM     22  C   UNL     1      10.610  11.912  20.638  0.00  0.00    +0.000 A 
ATOM     23  C   UNL     1      11.319  12.693  19.729  0.00  0.00    +0.000 A 
ATOM     24  C   UNL     1      11.254  12.395  18.374  0.00  0.00    +0.000 A 
ATOM     25  F   UNL     1      11.934  13.150  17.500  0.00  0.00    +0.000 F 
ATOM     26  C   UNL     1      10.484  11.337  17.907  0.00  0.00    +0.000 A 
ENDBRANCH  17  20
ENDBRANCH   2  15
TORSDOF 3
ENDMDL
