MODEL 1
REMARK VINA RESULT:      -8.9      0.000      0.000
REMARK  Name = 
REMARK  7 active torsions:
REMARK  status: ('A' for Active; 'I' for Inactive)
REMARK    1  A    between atoms: C_1  and  C_2
REMARK    2  A    between atoms: C_2  and  N_3
REMARK    3  A    between atoms: C_2  and  C_20
REMARK    4  A    between atoms: C_4  and  C_6
REMARK    5  A    between atoms: C_6  and  O_7
REMARK    6  A    between atoms: O_7  and  C_8
REMARK    7  A    between atoms: C_12  and  N_13
REMARK                            x       y       z     vdW  Elec       q    Type
REMARK                         _______ _______ _______ _____ _____    ______ ____
ROOT
ATOM      1  N   UNL     1       5.547   5.299  18.625  0.00  0.00    +0.000 N 
ATOM      2  C   UNL     1       4.822   4.345  19.313  0.00  0.00    +0.000 C 
ATOM      3  O   UNL     1       5.192   3.179  19.413  0.00  0.00    +0.000 OA
ATOM      4  H   UNL     1       5.239   6.263  18.616  0.00  0.00    +0.000 HD
ENDROOT
BRANCH   1   6
ATOM      5  C   UNL     1       7.833   6.142  18.222  0.00  0.00    +0.000 C 
ATOM      6  C   UNL     1       6.835   4.997  18.024  0.00  0.00    +0.000 C 
BRANCH   6   7
ATOM      7  C   UNL     1       6.629   4.730  16.569  0.00  0.00    +0.000 A 
ATOM      8  C   UNL     1       5.754   3.918  15.874  0.00  0.00    +0.000 A 
ATOM      9  C   UNL     1       6.115   4.005  14.503  0.00  0.00    +0.000 A 
ATOM     10  C   UNL     1       5.674   3.417  13.305  0.00  0.00    +0.000 A 
ATOM     11  C   UNL     1       6.330   3.746  12.109  0.00  0.00    +0.000 A 
ATOM     12  C   UNL     1       7.394   4.653  12.098  0.00  0.00    +0.000 A 
ATOM     13  C   UNL     1       7.839   5.258  13.278  0.00  0.00    +0.000 A 
ATOM     14  C   UNL     1       7.175   4.900  14.450  0.00  0.00    +0.000 A 
ATOM     15  O   UNL     1       7.477   5.355  15.697  0.00  0.00    +0.000 OA
ENDBRANCH   6   7
ENDBRANCH   1   6
BRANCH   2  16
ATOM     16  C   UNL     1       3.532   4.854  19.973  0.00  0.00    +0.000 C 
BRANCH  16  17
ATOM     17  O   UNL     1       2.574   5.269  19.005  0.00  0.00    +0.000 OA
BRANCH  17  18
ATOM     18  C   UNL     1       2.373   6.622  18.872  0.00  0.00    +0.000 A 
ATOM     19  C   UNL     1       2.689   7.381  17.748  0.00  0.00    +0.000 A 
ATOM     20  C   UNL     1       2.408   8.745  17.730  0.00  0.00    +0.000 A 
ATOM     21  C   UNL     1       1.802   9.359  18.829  0.00  0.00    +0.000 A 
ATOM     22  C   UNL     1       1.470   8.631  19.975  0.00  0.00    +0.000 A 
ATOM     23  C   UNL     1       1.783   7.255  19.982  0.00  0.00    +0.000 A 
BRANCH  22  24
ATOM     24  N   UNL     1       0.805   9.249  21.076  0.00  0.00    +0.000 N 
ATOM     25  C   UNL     1       1.279   9.149  22.436  0.00  0.00    +0.000 C 
ATOM     26  C   UNL     1       0.072   9.502  23.281  0.00  0.00    +0.000 C 
ATOM     27  C   UNL     1      -0.698  10.479  22.418  0.00  0.00    +0.000 C 
ATOM     28  C   UNL     1      -0.339  10.063  21.009  0.00  0.00    +0.000 C 
ATOM     29  O   UNL     1      -0.964  10.451  20.035  0.00  0.00    +0.000 OA
ENDBRANCH  22  24
ENDBRANCH  17  18
ENDBRANCH  16  17
ENDBRANCH   2  16
TORSDOF 6
ENDMDL
MODEL 2
REMARK VINA RESULT:      -8.8      5.763      8.161
REMARK  Name = 
REMARK  7 active torsions:
REMARK  status: ('A' for Active; 'I' for Inactive)
REMARK    1  A    between atoms: C_1  and  C_2
REMARK    2  A    between atoms: C_2  and  N_3
REMARK    3  A    between atoms: C_2  and  C_20
REMARK    4  A    between atoms: C_4  and  C_6
REMARK    5  A    between atoms: C_6  and  O_7
REMARK    6  A    between atoms: O_7  and  C_8
REMARK    7  A    between atoms: C_12  and  N_13
REMARK                            x       y       z     vdW  Elec       q    Type
REMARK                         _______ _______ _______ _____ _____    ______ ____
ROOT
ATOM      1  N   UNL     1       6.870   6.919  16.716  0.00  0.00    +0.000 N 
ATOM      2  C   UNL     1       7.582   7.465  17.767  0.00  0.00    +0.000 C 
ATOM      3  O   UNL     1       8.122   6.776  18.628  0.00  0.00    +0.000 OA
ATOM      4  H   UNL     1       6.490   7.518  15.993  0.00  0.00    +0.000 HD
ENDROOT
BRANCH   1   6
ATOM      5  C   UNL     1       7.074   5.080  15.079  0.00  0.00    +0.000 C 
ATOM      6  C   UNL     1       6.766   5.482  16.524  0.00  0.00    +0.000 C 
BRANCH   6   7
ATOM      7  C   UNL     1       5.387   5.051  16.904  0.00  0.00    +0.000 A 
ATOM      8  C   UNL     1       4.242   5.746  17.243  0.00  0.00    +0.000 A 
ATOM      9  C   UNL     1       3.270   4.777  17.611  0.00  0.00    +0.000 A 
ATOM     10  C   UNL     1       1.947   4.807  18.086  0.00  0.00    +0.000 A 
ATOM     11  C   UNL     1       1.306   3.592  18.376  0.00  0.00    +0.000 A 
ATOM     12  C   UNL     1       1.959   2.371  18.186  0.00  0.00    +0.000 A 
ATOM     13  C   UNL     1       3.271   2.321  17.703  0.00  0.00    +0.000 A 
ATOM     14  C   UNL     1       3.883   3.543  17.437  0.00  0.00    +0.000 A 
ATOM     15  O   UNL     1       5.159   3.705  16.991  0.00  0.00    +0.000 OA
ENDBRANCH   6   7
ENDBRANCH   1   6
BRANCH   2  16
ATOM     16  C   UNL     1       7.679   8.997  17.766  0.00  0.00    +0.000 C 
BRANCH  16  17
ATOM     17  O   UNL     1       9.033   9.438  17.761  0.00  0.00    +0.000 OA
BRANCH  17  18
ATOM     18  C   UNL     1       9.343  10.498  18.579  0.00  0.00    +0.000 A 
ATOM     19  C   UNL     1       9.329  10.477  19.971  0.00  0.00    +0.000 A 
ATOM     20  C   UNL     1       9.691  11.616  20.686  0.00  0.00    +0.000 A 
ATOM     21  C   UNL     1      10.080  12.780  20.018  0.00  0.00    +0.000 A 
ATOM     22  C   UNL     1      10.108  12.839  18.621  0.00  0.00    +0.000 A 
ATOM     23  C   UNL     1       9.715  11.683  17.916  0.00  0.00    +0.000 A 
BRANCH  22  24
ATOM     24  N   UNL     1      10.554  14.011  17.941  0.00  0.00    +0.000 N 
ATOM     25  C   UNL     1      11.835  14.096  17.280  0.00  0.00    +0.000 C 
ATOM     26  C   UNL     1      12.088  15.584  17.143  0.00  0.00    +0.000 C 
ATOM     27  C   UNL     1      10.701  16.174  17.006  0.00  0.00    +0.000 C 
ATOM     28  C   UNL     1       9.829  15.203  17.768  0.00  0.00    +0.000 C 
ATOM     29  O   UNL     1       8.685  15.474  18.100  0.00  0.00    +0.000 OA
ENDBRANCH  22  24
ENDBRANCH  17  18
ENDBRANCH  16  17
ENDBRANCH   2  16
TORSDOF 6
ENDMDL
MODEL 3
REMARK VINA RESULT:      -8.7      5.736      8.195
REMARK  Name = 
REMARK  7 active torsions:
REMARK  status: ('A' for Active; 'I' for Inactive)
REMARK    1  A    between atoms: C_1  and  C_2
REMARK    2  A    between atoms: C_2  and  N_3
REMARK    3  A    between atoms: C_2  and  C_20
REMARK    4  A    between atoms: C_4  and  C_6
REMARK    5  A    between atoms: C_6  and  O_7
REMARK    6  A    between atoms: O_7  and  C_8
REMARK    7  A    between atoms: C_12  and  N_13
REMARK                            x       y       z     vdW  Elec       q    Type
REMARK                         _______ _______ _______ _____ _____    ______ ____
ROOT
ATOM      1  N   UNL     1       6.882   6.984  16.808  0.00  0.00    +0.000 N 
ATOM      2  C   UNL     1       7.644   7.571  17.800  0.00  0.00    +0.000 C 
ATOM      3  O   UNL     1       8.255   6.915  18.639  0.00  0.00    +0.000 OA
ATOM      4  H   UNL     1       6.441   7.557  16.099  0.00  0.00    +0.000 HD
ENDROOT
BRANCH   1   6
ATOM      5  C   UNL     1       7.173   5.103  15.233  0.00  0.00    +0.000 C 
ATOM      6  C   UNL     1       6.804   5.541  16.653  0.00  0.00    +0.000 C 
BRANCH   6   7
ATOM      7  C   UNL     1       5.417   5.101  16.990  0.00  0.00    +0.000 A 
ATOM      8  C   UNL     1       4.260   5.788  17.306  0.00  0.00    +0.000 A 
ATOM      9  C   UNL     1       3.282   4.812  17.637  0.00  0.00    +0.000 A 
ATOM     10  C   UNL     1       1.947   4.832  18.076  0.00  0.00    +0.000 A 
ATOM     11  C   UNL     1       1.303   3.612  18.336  0.00  0.00    +0.000 A 
ATOM     12  C   UNL     1       1.965   2.395  18.149  0.00  0.00    +0.000 A 
ATOM     13  C   UNL     1       3.290   2.355  17.701  0.00  0.00    +0.000 A 
ATOM     14  C   UNL     1       3.905   3.583  17.465  0.00  0.00    +0.000 A 
ATOM     15  O   UNL     1       5.192   3.754  17.056  0.00  0.00    +0.000 OA
ENDBRANCH   6   7
ENDBRANCH   1   6
BRANCH   2  16
ATOM     16  C   UNL     1       7.699   9.104  17.761  0.00  0.00    +0.000 C 
BRANCH  16  17
ATOM     17  O   UNL     1       9.041   9.583  17.791  0.00  0.00    +0.000 OA
BRANCH  17  18
ATOM     18  C   UNL     1       9.314  10.609  18.664  0.00  0.00    +0.000 A 
ATOM     19  C   UNL     1       9.356  10.500  20.052  0.00  0.00    +0.000 A 
ATOM     20  C   UNL     1       9.672  11.615  20.826  0.00  0.00    +0.000 A 
ATOM     21  C   UNL     1       9.958  12.841  20.220  0.00  0.00    +0.000 A 
ATOM     22  C   UNL     1       9.927  12.989  18.830  0.00  0.00    +0.000 A 
ATOM     23  C   UNL     1       9.582  11.854  18.066  0.00  0.00    +0.000 A 
BRANCH  22  24
ATOM     24  N   UNL     1      10.268  14.227  18.212  0.00  0.00    +0.000 N 
ATOM     25  C   UNL     1       9.834  15.506  18.723  0.00  0.00    +0.000 C 
ATOM     26  C   UNL     1       9.988  16.451  17.548  0.00  0.00    +0.000 C 
ATOM     27  C   UNL     1      11.156  15.878  16.775  0.00  0.00    +0.000 C 
ATOM     28  C   UNL     1      11.091  14.399  17.085  0.00  0.00    +0.000 C 
ATOM     29  O   UNL     1      11.712  13.569  16.440  0.00  0.00    +0.000 OA
ENDBRANCH  22  24
ENDBRANCH  17  18
ENDBRANCH  16  17
ENDBRANCH   2  16
TORSDOF 6
ENDMDL
MODEL 4
REMARK VINA RESULT:      -8.5      0.985      1.081
REMARK  Name = 
REMARK  7 active torsions:
REMARK  status: ('A' for Active; 'I' for Inactive)
REMARK    1  A    between atoms: C_1  and  C_2
REMARK    2  A    between atoms: C_2  and  N_3
REMARK    3  A    between atoms: C_2  and  C_20
REMARK    4  A    between atoms: C_4  and  C_6
REMARK    5  A    between atoms: C_6  and  O_7
REMARK    6  A    between atoms: O_7  and  C_8
REMARK    7  A    between atoms: C_12  and  N_13
REMARK                            x       y       z     vdW  Elec       q    Type
REMARK                         _______ _______ _______ _____ _____    ______ ____
ROOT
ATOM      1  N   UNL     1       4.850   5.529  17.909  0.00  0.00    +0.000 N 
ATOM      2  C   UNL     1       4.158   4.728  18.797  0.00  0.00    +0.000 C 
ATOM      3  O   UNL     1       4.641   3.709  19.282  0.00  0.00    +0.000 OA
ATOM      4  H   UNL     1       4.440   6.394  17.578  0.00  0.00    +0.000 HD
ENDROOT
BRANCH   1   6
ATOM      5  C   UNL     1       7.142   6.445  17.818  0.00  0.00    +0.000 C 
ATOM      6  C   UNL     1       6.227   5.250  17.537  0.00  0.00    +0.000 C 
BRANCH   6   7
ATOM      7  C   UNL     1       6.264   4.894  16.087  0.00  0.00    +0.000 A 
ATOM      8  C   UNL     1       5.569   3.976  15.323  0.00  0.00    +0.000 A 
ATOM      9  C   UNL     1       6.124   4.028  14.016  0.00  0.00    +0.000 A 
ATOM     10  C   UNL     1       5.915   3.344  12.805  0.00  0.00    +0.000 A 
ATOM     11  C   UNL     1       6.716   3.671  11.699  0.00  0.00    +0.000 A 
ATOM     12  C   UNL     1       7.694   4.666  11.788  0.00  0.00    +0.000 A 
ATOM     13  C   UNL     1       7.907   5.365  12.981  0.00  0.00    +0.000 A 
ATOM     14  C   UNL     1       7.106   5.008  14.063  0.00  0.00    +0.000 A 
ATOM     15  O   UNL     1       7.181   5.548  15.310  0.00  0.00    +0.000 OA
ENDBRANCH   6   7
ENDBRANCH   1   6
BRANCH   2  16
ATOM     16  C   UNL     1       2.750   5.220  19.162  0.00  0.00    +0.000 C 
BRANCH  16  17
ATOM     17  O   UNL     1       2.796   6.333  20.051  0.00  0.00    +0.000 OA
BRANCH  17  18
ATOM     18  C   UNL     1       2.212   7.498  19.616  0.00  0.00    +0.000 A 
ATOM     19  C   UNL     1       2.170   7.938  18.295  0.00  0.00    +0.000 A 
ATOM     20  C   UNL     1       1.521   9.130  17.981  0.00  0.00    +0.000 A 
ATOM     21  C   UNL     1       0.902   9.886  18.980  0.00  0.00    +0.000 A 
ATOM     22  C   UNL     1       0.923   9.476  20.317  0.00  0.00    +0.000 A 
ATOM     23  C   UNL     1       1.604   8.278  20.617  0.00  0.00    +0.000 A 
BRANCH  22  24
ATOM     24  N   UNL     1       0.247  10.222  21.328  0.00  0.00    +0.000 N 
ATOM     25  C   UNL     1      -0.103   9.665  22.613  0.00  0.00    +0.000 C 
ATOM     26  C   UNL     1      -1.185  10.586  23.139  0.00  0.00    +0.000 C 
ATOM     27  C   UNL     1      -0.830  11.934  22.546  0.00  0.00    +0.000 C 
ATOM     28  C   UNL     1      -0.124  11.576  21.258  0.00  0.00    +0.000 C 
ATOM     29  O   UNL     1       0.084  12.397  20.378  0.00  0.00    +0.000 OA
ENDBRANCH  22  24
ENDBRANCH  17  18
ENDBRANCH  16  17
ENDBRANCH   2  16
TORSDOF 6
ENDMDL
MODEL 5
REMARK VINA RESULT:      -8.4      5.595      8.470
REMARK  Name = 
REMARK  7 active torsions:
REMARK  status: ('A' for Active; 'I' for Inactive)
REMARK    1  A    between atoms: C_1  and  C_2
REMARK    2  A    between atoms: C_2  and  N_3
REMARK    3  A    between atoms: C_2  and  C_20
REMARK    4  A    between atoms: C_4  and  C_6
REMARK    5  A    between atoms: C_6  and  O_7
REMARK    6  A    between atoms: O_7  and  C_8
REMARK    7  A    between atoms: C_12  and  N_13
REMARK                            x       y       z     vdW  Elec       q    Type
REMARK                         _______ _______ _______ _____ _____    ______ ____
ROOT
ATOM      1  N   UNL     1       6.250   6.813  17.637  0.00  0.00    +0.000 N 
ATOM      2  C   UNL     1       7.523   7.276  17.366  0.00  0.00    +0.000 C 
ATOM      3  O   UNL     1       8.151   6.936  16.367  0.00  0.00    +0.000 OA
ATOM      4  H   UNL     1       5.741   7.163  18.440  0.00  0.00    +0.000 HD
ENDROOT
BRANCH   1   6
ATOM      5  C   UNL     1       4.967   6.709  15.528  0.00  0.00    +0.000 C 
ATOM      6  C   UNL     1       5.540   5.937  16.720  0.00  0.00    +0.000 C 
BRANCH   6   7
ATOM      7  C   UNL     1       4.447   5.249  17.470  0.00  0.00    +0.000 A 
ATOM      8  C   UNL     1       3.635   4.170  17.176  0.00  0.00    +0.000 A 
ATOM      9  C   UNL     1       2.707   4.054  18.245  0.00  0.00    +0.000 A 
ATOM     10  C   UNL     1       1.613   3.222  18.544  0.00  0.00    +0.000 A 
ATOM     11  C   UNL     1       0.897   3.448  19.730  0.00  0.00    +0.000 A 
ATOM     12  C   UNL     1       1.267   4.469  20.609  0.00  0.00    +0.000 A 
ATOM     13  C   UNL     1       2.359   5.299  20.335  0.00  0.00    +0.000 A 
ATOM     14  C   UNL     1       3.040   5.058  19.144  0.00  0.00    +0.000 A 
ATOM     15  O   UNL     1       4.105   5.771  18.687  0.00  0.00    +0.000 OA
ENDBRANCH   6   7
ENDBRANCH   1   6
BRANCH   2  16
ATOM     16  C   UNL     1       8.088   8.273  18.388  0.00  0.00    +0.000 C 
BRANCH  16  17
ATOM     17  O   UNL     1       8.474   9.497  17.770  0.00  0.00    +0.000 OA
BRANCH  17  18
ATOM     18  C   UNL     1       9.072  10.436  18.575  0.00  0.00    +0.000 A 
ATOM     19  C   UNL     1       9.276  10.314  19.947  0.00  0.00    +0.000 A 
ATOM     20  C   UNL     1       9.921  11.332  20.646  0.00  0.00    +0.000 A 
ATOM     21  C   UNL     1      10.377  12.472  19.979  0.00  0.00    +0.000 A 
ATOM     22  C   UNL     1      10.192  12.630  18.602  0.00  0.00    +0.000 A 
ATOM     23  C   UNL     1       9.516  11.599  17.917  0.00  0.00    +0.000 A 
BRANCH  22  24
ATOM     24  N   UNL     1      10.703  13.770  17.915  0.00  0.00    +0.000 N 
ATOM     25  C   UNL     1      12.002  13.791  17.284  0.00  0.00    +0.000 C 
ATOM     26  C   UNL     1      12.321  15.264  17.129  0.00  0.00    +0.000 C 
ATOM     27  C   UNL     1      10.963  15.909  16.949  0.00  0.00    +0.000 C 
ATOM     28  C   UNL     1      10.033  14.988  17.705  0.00  0.00    +0.000 C 
ATOM     29  O   UNL     1       8.894  15.312  18.004  0.00  0.00    +0.000 OA
ENDBRANCH  22  24
ENDBRANCH  17  18
ENDBRANCH  16  17
ENDBRANCH   2  16
TORSDOF 6
ENDMDL
MODEL 6
REMARK VINA RESULT:      -8.3      5.693      7.962
REMARK  Name = 
REMARK  7 active torsions:
REMARK  status: ('A' for Active; 'I' for Inactive)
REMARK    1  A    between atoms: C_1  and  C_2
REMARK    2  A    between atoms: C_2  and  N_3
REMARK    3  A    between atoms: C_2  and  C_20
REMARK    4  A    between atoms: C_4  and  C_6
REMARK    5  A    between atoms: C_6  and  O_7
REMARK    6  A    between atoms: O_7  and  C_8
REMARK    7  A    between atoms: C_12  and  N_13
REMARK                            x       y       z     vdW  Elec       q    Type
REMARK                         _______ _______ _______ _____ _____    ______ ____
ROOT
ATOM      1  N   UNL     1       6.920   6.812  16.871  0.00  0.00    +0.000 N 
ATOM      2  C   UNL     1       7.621   7.491  17.848  0.00  0.00    +0.000 C 
ATOM      3  O   UNL     1       8.227   6.916  18.748  0.00  0.00    +0.000 OA
ATOM      4  H   UNL     1       6.483   7.320  16.112  0.00  0.00    +0.000 HD
ENDROOT
BRANCH   1   6
ATOM      5  C   UNL     1       6.887   4.859  15.359  0.00  0.00    +0.000 C 
ATOM      6  C   UNL     1       6.905   5.360  16.806  0.00  0.00    +0.000 C 
BRANCH   6   7
ATOM      7  C   UNL     1       5.706   4.864  17.546  0.00  0.00    +0.000 A 
ATOM      8  C   UNL     1       5.526   4.355  18.817  0.00  0.00    +0.000 A 
ATOM      9  C   UNL     1       4.167   3.952  18.908  0.00  0.00    +0.000 A 
ATOM     10  C   UNL     1       3.362   3.335  19.882  0.00  0.00    +0.000 A 
ATOM     11  C   UNL     1       2.020   3.061  19.573  0.00  0.00    +0.000 A 
ATOM     12  C   UNL     1       1.483   3.406  18.330  0.00  0.00    +0.000 A 
ATOM     13  C   UNL     1       2.265   4.031  17.353  0.00  0.00    +0.000 A 
ATOM     14  C   UNL     1       3.596   4.277  17.685  0.00  0.00    +0.000 A 
ATOM     15  O   UNL     1       4.520   4.846  16.864  0.00  0.00    +0.000 OA
ENDBRANCH   6   7
ENDBRANCH   1   6
BRANCH   2  16
ATOM     16  C   UNL     1       7.617   9.021  17.713  0.00  0.00    +0.000 C 
BRANCH  16  17
ATOM     17  O   UNL     1       8.939   9.552  17.715  0.00  0.00    +0.000 OA
BRANCH  17  18
ATOM     18  C   UNL     1       9.204  10.551  18.621  0.00  0.00    +0.000 A 
ATOM     19  C   UNL     1       9.318  10.385  19.999  0.00  0.00    +0.000 A 
ATOM     20  C   UNL     1       9.617  11.479  20.807  0.00  0.00    +0.000 A 
ATOM     21  C   UNL     1       9.816  12.743  20.246  0.00  0.00    +0.000 A 
ATOM     22  C   UNL     1       9.711  12.949  18.867  0.00  0.00    +0.000 A 
ATOM     23  C   UNL     1       9.384  11.833  18.068  0.00  0.00    +0.000 A 
BRANCH  22  24
ATOM     24  N   UNL     1       9.964  14.229  18.291  0.00  0.00    +0.000 N 
ATOM     25  C   UNL     1      11.287  14.681  17.932  0.00  0.00    +0.000 C 
ATOM     26  C   UNL     1      11.156  16.188  17.838  0.00  0.00    +0.000 C 
ATOM     27  C   UNL     1       9.726  16.398  17.388  0.00  0.00    +0.000 C 
ATOM     28  C   UNL     1       9.001  15.194  17.946  0.00  0.00    +0.000 C 
ATOM     29  O   UNL     1       7.783  15.138  18.011  0.00  0.00    +0.000 OA
ENDBRANCH  22  24
ENDBRANCH  17  18
ENDBRANCH  16  17
ENDBRANCH   2  16
TORSDOF 6
ENDMDL
MODEL 7
REMARK VINA RESULT:      -8.2      5.570      7.621
REMARK  Name = 
REMARK  7 active torsions:
REMARK  status: ('A' for Active; 'I' for Inactive)
REMARK    1  A    between atoms: C_1  and  C_2
REMARK    2  A    between atoms: C_2  and  N_3
REMARK    3  A    between atoms: C_2  and  C_20
REMARK    4  A    between atoms: C_4  and  C_6
REMARK    5  A    between atoms: C_6  and  O_7
REMARK    6  A    between atoms: O_7  and  C_8
REMARK    7  A    between atoms: C_12  and  N_13
REMARK                            x       y       z     vdW  Elec       q    Type
REMARK                         _______ _______ _______ _____ _____    ______ ____
ROOT
ATOM      1  N   UNL     1       7.015   7.152  17.021  0.00  0.00    +0.000 N 
ATOM      2  C   UNL     1       7.845   7.795  17.918  0.00  0.00    +0.000 C 
ATOM      3  O   UNL     1       8.428   7.201  18.822  0.00  0.00    +0.000 OA
ATOM      4  H   UNL     1       6.600   7.666  16.253  0.00  0.00    +0.000 HD
ENDROOT
BRANCH   1   6
ATOM      5  C   UNL     1       6.797   5.118  15.637  0.00  0.00    +0.000 C 
ATOM      6  C   UNL     1       6.825   5.711  17.048  0.00  0.00    +0.000 C 
BRANCH   6   7
ATOM      7  C   UNL     1       5.548   5.415  17.764  0.00  0.00    +0.000 A 
ATOM      8  C   UNL     1       5.179   5.464  19.094  0.00  0.00    +0.000 A 
ATOM      9  C   UNL     1       3.853   4.959  19.170  0.00  0.00    +0.000 A 
ATOM     10  C   UNL     1       2.930   4.704  20.199  0.00  0.00    +0.000 A 
ATOM     11  C   UNL     1       1.683   4.151  19.866  0.00  0.00    +0.000 A 
ATOM     12  C   UNL     1       1.353   3.871  18.537  0.00  0.00    +0.000 A 
ATOM     13  C   UNL     1       2.254   4.129  17.499  0.00  0.00    +0.000 A 
ATOM     14  C   UNL     1       3.487   4.665  17.864  0.00  0.00    +0.000 A 
ATOM     15  O   UNL     1       4.504   4.957  17.007  0.00  0.00    +0.000 OA
ENDBRANCH   6   7
ENDBRANCH   1   6
BRANCH   2  16
ATOM     16  C   UNL     1       8.016   9.303  17.688  0.00  0.00    +0.000 C 
BRANCH  16  17
ATOM     17  O   UNL     1       8.843   9.897  18.684  0.00  0.00    +0.000 OA
BRANCH  17  18
ATOM     18  C   UNL     1       9.477  11.068  18.346  0.00  0.00    +0.000 A 
ATOM     19  C   UNL     1      10.714  11.165  17.713  0.00  0.00    +0.000 A 
ATOM     20  C   UNL     1      11.238  12.417  17.399  0.00  0.00    +0.000 A 
ATOM     21  C   UNL     1      10.527  13.580  17.706  0.00  0.00    +0.000 A 
ATOM     22  C   UNL     1       9.282  13.523  18.340  0.00  0.00    +0.000 A 
ATOM     23  C   UNL     1       8.780  12.247  18.670  0.00  0.00    +0.000 A 
BRANCH  22  24
ATOM     24  N   UNL     1       8.535  14.709  18.606  0.00  0.00    +0.000 N 
ATOM     25  C   UNL     1       9.083  15.839  19.319  0.00  0.00    +0.000 C 
ATOM     26  C   UNL     1       7.867  16.612  19.788  0.00  0.00    +0.000 C 
ATOM     27  C   UNL     1       6.833  16.342  18.715  0.00  0.00    +0.000 C 
ATOM     28  C   UNL     1       7.219  14.978  18.190  0.00  0.00    +0.000 C 
ATOM     29  O   UNL     1       6.470  14.310  17.495  0.00  0.00    +0.000 OA
ENDBRANCH  22  24
ENDBRANCH  17  18
ENDBRANCH  16  17
ENDBRANCH   2  16
TORSDOF 6
ENDMDL
MODEL 8
REMARK VINA RESULT:      -8.1      5.302      7.372
REMARK  Name = 
REMARK  7 active torsions:
REMARK  status: ('A' for Active; 'I' for Inactive)
REMARK    1  A    between atoms: C_1  and  C_2
REMARK    2  A    between atoms: C_2  and  N_3
REMARK    3  A    between atoms: C_2  and  C_20
REMARK    4  A    between atoms: C_4  and  C_6
REMARK    5  A    between atoms: C_6  and  O_7
REMARK    6  A    between atoms: O_7  and  C_8
REMARK    7  A    between atoms: C_12  and  N_13
REMARK                            x       y       z     vdW  Elec       q    Type
REMARK                         _______ _______ _______ _____ _____    ______ ____
ROOT
ATOM      1  N   UNL     1       6.628   6.958  16.885  0.00  0.00    +0.000 N 
ATOM      2  C   UNL     1       7.606   7.283  17.804  0.00  0.00    +0.000 C 
ATOM      3  O   UNL     1       8.116   6.451  18.549  0.00  0.00    +0.000 OA
ATOM      4  H   UNL     1       6.276   7.660  16.246  0.00  0.00    +0.000 HD
ENDROOT
BRANCH   1   6
ATOM      5  C   UNL     1       5.891   5.287  15.220  0.00  0.00    +0.000 C 
ATOM      6  C   UNL     1       6.179   5.588  16.694  0.00  0.00    +0.000 C 
BRANCH   6   7
ATOM      7  C   UNL     1       4.954   5.371  17.520  0.00  0.00    +0.000 A 
ATOM      8  C   UNL     1       4.521   5.898  18.722  0.00  0.00    +0.000 A 
ATOM      9  C   UNL     1       3.319   5.219  19.056  0.00  0.00    +0.000 A 
ATOM     10  C   UNL     1       2.417   5.239  20.135  0.00  0.00    +0.000 A 
ATOM     11  C   UNL     1       1.320   4.362  20.114  0.00  0.00    +0.000 A 
ATOM     12  C   UNL     1       1.114   3.493  19.039  0.00  0.00    +0.000 A 
ATOM     13  C   UNL     1       1.994   3.467  17.952  0.00  0.00    +0.000 A 
ATOM     14  C   UNL     1       3.079   4.339  18.009  0.00  0.00    +0.000 A 
ATOM     15  O   UNL     1       4.057   4.442  17.068  0.00  0.00    +0.000 OA
ENDBRANCH   6   7
ENDBRANCH   1   6
BRANCH   2  16
ATOM     16  C   UNL     1       8.037   8.756  17.807  0.00  0.00    +0.000 C 
BRANCH  16  17
ATOM     17  O   UNL     1       8.884   9.054  18.913  0.00  0.00    +0.000 OA
BRANCH  17  18
ATOM     18  C   UNL     1       9.312  10.354  19.035  0.00  0.00    +0.000 A 
ATOM     19  C   UNL     1       9.987  11.079  18.056  0.00  0.00    +0.000 A 
ATOM     20  C   UNL     1      10.344  12.404  18.295  0.00  0.00    +0.000 A 
ATOM     21  C   UNL     1      10.020  13.018  19.508  0.00  0.00    +0.000 A 
ATOM     22  C   UNL     1       9.342  12.323  20.514  0.00  0.00    +0.000 A 
ATOM     23  C   UNL     1       9.011  10.976  20.261  0.00  0.00    +0.000 A 
BRANCH  22  24
ATOM     24  N   UNL     1       8.968  12.967  21.731  0.00  0.00    +0.000 N 
ATOM     25  C   UNL     1       8.988  14.401  21.900  0.00  0.00    +0.000 C 
ATOM     26  C   UNL     1       9.006  14.601  23.401  0.00  0.00    +0.000 C 
ATOM     27  C   UNL     1       8.240  13.409  23.933  0.00  0.00    +0.000 C 
ATOM     28  C   UNL     1       8.489  12.339  22.894  0.00  0.00    +0.000 C 
ATOM     29  O   UNL     1       8.247  11.160  23.100  0.00  0.00    +0.000 OA
ENDBRANCH  22  24
ENDBRANCH  17  18
ENDBRANCH  16  17
ENDBRANCH   2  16
TORSDOF 6
ENDMDL
MODEL 9
REMARK VINA RESULT:      -8.0      2.598      8.390
REMARK  Name = 
REMARK  7 active torsions:
REMARK  status: ('A' for Active; 'I' for Inactive)
REMARK    1  A    between atoms: C_1  and  C_2
REMARK    2  A    between atoms: C_2  and  N_3
REMARK    3  A    between atoms: C_2  and  C_20
REMARK    4  A    between atoms: C_4  and  C_6
REMARK    5  A    between atoms: C_6  and  O_7
REMARK    6  A    between atoms: O_7  and  C_8
REMARK    7  A    between atoms: C_12  and  N_13
REMARK                            x       y       z     vdW  Elec       q    Type
REMARK                         _______ _______ _______ _____ _____    ______ ____
ROOT
ATOM      1  N   UNL     1       2.355   5.900  20.522  0.00  0.00    +0.000 N 
ATOM      2  C   UNL     1       1.810   4.638  20.661  0.00  0.00    +0.000 C 
ATOM      3  O   UNL     1       0.776   4.298  20.093  0.00  0.00    +0.000 OA
ATOM      4  H   UNL     1       3.240   6.123  20.959  0.00  0.00    +0.000 HD
ENDROOT
BRANCH   1   6
ATOM      5  C   UNL     1       2.802   7.453  18.653  0.00  0.00    +0.000 C 
ATOM      6  C   UNL     1       1.770   6.895  19.637  0.00  0.00    +0.000 C 
BRANCH   6   7
ATOM      7  C   UNL     1       1.197   7.993  20.472  0.00  0.00    +0.000 A 
ATOM      8  C   UNL     1       0.703   8.039  21.761  0.00  0.00    +0.000 A 
ATOM      9  C   UNL     1       0.197   9.352  21.959  0.00  0.00    +0.000 A 
ATOM     10  C   UNL     1      -0.461  10.031  22.999  0.00  0.00    +0.000 A 
ATOM     11  C   UNL     1      -0.845  11.367  22.796  0.00  0.00    +0.000 A 
ATOM     12  C   UNL     1      -0.570  12.019  21.591  0.00  0.00    +0.000 A 
ATOM     13  C   UNL     1       0.094  11.362  20.549  0.00  0.00    +0.000 A 
ATOM     14  C   UNL     1       0.450  10.034  20.777  0.00  0.00    +0.000 A 
ATOM     15  O   UNL     1       1.073   9.220  19.881  0.00  0.00    +0.000 OA
ENDBRANCH   6   7
ENDBRANCH   1   6
BRANCH   2  16
ATOM     16  C   UNL     1       2.607   3.676  21.554  0.00  0.00    +0.000 C 
BRANCH  16  17
ATOM     17  O   UNL     1       3.257   2.666  20.789  0.00  0.00    +0.000 OA
BRANCH  17  18
ATOM     18  C   UNL     1       3.665   3.012  19.523  0.00  0.00    +0.000 A 
ATOM     19  C   UNL     1       3.152   2.493  18.337  0.00  0.00    +0.000 A 
ATOM     20  C   UNL     1       3.636   2.949  17.113  0.00  0.00    +0.000 A 
ATOM     21  C   UNL     1       4.626   3.933  17.064  0.00  0.00    +0.000 A 
ATOM     22  C   UNL     1       5.165   4.479  18.233  0.00  0.00    +0.000 A 
ATOM     23  C   UNL     1       4.678   3.987  19.462  0.00  0.00    +0.000 A 
BRANCH  22  24
ATOM     24  N   UNL     1       6.139   5.520  18.180  0.00  0.00    +0.000 N 
ATOM     25  C   UNL     1       6.132   6.553  17.171  0.00  0.00    +0.000 C 
ATOM     26  C   UNL     1       7.542   7.107  17.192  0.00  0.00    +0.000 C 
ATOM     27  C   UNL     1       7.976   6.933  18.631  0.00  0.00    +0.000 C 
ATOM     28  C   UNL     1       7.188   5.729  19.093  0.00  0.00    +0.000 C 
ATOM     29  O   UNL     1       7.459   5.125  20.120  0.00  0.00    +0.000 OA
ENDBRANCH  22  24
ENDBRANCH  17  18
ENDBRANCH  16  17
ENDBRANCH   2  16
TORSDOF 6
ENDMDL
