MODEL 1
REMARK VINA RESULT:      -8.5      0.000      0.000
REMARK  Name = 
REMARK  4 active torsions:
REMARK  status: ('A' for Active; 'I' for Inactive)
REMARK    1  A    between atoms: C_1  and  C_2
REMARK    2  A    between atoms: C_2  and  C_3
REMARK    3  A    between atoms: C_9  and  C_10
REMARK    4  A    between atoms: N_12  and  C_13
REMARK                            x       y       z     vdW  Elec       q    Type
REMARK                         _______ _______ _______ _____ _____    ______ ____
ROOT
ATOM      1  C   UNL     1       1.938   8.652  18.544  0.00  0.00    +0.000 C 
ATOM      2  O   UNL     1       2.322   8.874  17.392  0.00  0.00    +0.000 OA
ATOM      3  N   UNL     1       2.023   7.430  19.208  0.00  0.00    +0.000 N 
ATOM      4  H   UNL     1       1.495   7.339  20.069  0.00  0.00    +0.000 HD
ENDROOT
BRANCH   1  13
ATOM      5  C   UNL     1      -0.208  13.802  22.076  0.00  0.00    +0.000 C 
ATOM      6  C   UNL     1      -1.005  12.645  21.478  0.00  0.00    +0.000 C 
ATOM      7  C   UNL     1      -2.277  13.139  20.788  0.00  0.00    +0.000 C 
ATOM      8  C   UNL     1      -1.372  11.639  22.601  0.00  0.00    +0.000 C 
ATOM      9  O   UNL     1      -2.063  11.850  23.585  0.00  0.00    +0.000 OA
ATOM     10  N   UNL     1      -0.762  10.430  22.288  0.00  0.00    +0.000 N 
ATOM     11  C   UNL     1      -0.059  10.504  21.098  0.00  0.00    +0.000 A 
ATOM     12  C   UNL     1       0.636   9.490  20.474  0.00  0.00    +0.000 A 
ATOM     13  C   UNL     1       1.262   9.773  19.244  0.00  0.00    +0.000 A 
ATOM     14  C   UNL     1       1.168  11.069  18.692  0.00  0.00    +0.000 A 
ATOM     15  C   UNL     1       0.459  12.085  19.354  0.00  0.00    +0.000 A 
ATOM     16  C   UNL     1      -0.157  11.786  20.561  0.00  0.00    +0.000 A 
ATOM     17  H   UNL     1      -0.859   9.608  22.865  0.00  0.00    +0.000 HD
ENDBRANCH   1  13
BRANCH   3  18
ATOM     18  C   UNL     1       2.466   6.222  18.615  0.00  0.00    +0.000 A 
ATOM     19  C   UNL     1       1.638   5.429  17.802  0.00  0.00    +0.000 A 
ATOM     20  C   UNL     1       1.956   4.096  17.523  0.00  0.00    +0.000 A 
ATOM     21  C   UNL     1       3.122   3.557  18.045  0.00  0.00    +0.000 A 
ATOM     22  C   UNL     1       4.056   4.426  18.617  0.00  0.00    +0.000 A 
ATOM     23  C   UNL     1       3.740   5.751  18.925  0.00  0.00    +0.000 A 
ATOM     24  C   UNL     1       5.329   3.809  19.023  0.00  0.00    +0.000 C 
ATOM     25  O   UNL     1       6.406   4.240  18.655  0.00  0.00    +0.000 OA
ATOM     26  N   UNL     1       5.147   2.694  19.817  0.00  0.00    +0.000 N 
ATOM     27  C   UNL     1       4.180   1.700  19.350  0.00  0.00    +0.000 C 
ATOM     28  C   UNL     1       3.423   2.082  18.059  0.00  0.00    +0.000 C 
ATOM     29  H   UNL     1       4.871   3.010  20.742  0.00  0.00    +0.000 HD
ENDBRANCH   3  18
TORSDOF 2
ENDMDL
MODEL 2
REMARK VINA RESULT:      -8.4      2.309      9.207
REMARK  Name = 
REMARK  4 active torsions:
REMARK  status: ('A' for Active; 'I' for Inactive)
REMARK    1  A    between atoms: C_1  and  C_2
REMARK    2  A    between atoms: C_2  and  C_3
REMARK    3  A    between atoms: C_9  and  C_10
REMARK    4  A    between atoms: N_12  and  C_13
REMARK                            x       y       z     vdW  Elec       q    Type
REMARK                         _______ _______ _______ _____ _____    ______ ____
ROOT
ATOM      1  C   UNL     1       2.073   7.674  19.525  0.00  0.00    +0.000 C 
ATOM      2  O   UNL     1       1.549   7.211  20.542  0.00  0.00    +0.000 OA
ATOM      3  N   UNL     1       1.705   8.857  18.889  0.00  0.00    +0.000 N 
ATOM      4  H   UNL     1       2.083   9.015  17.961  0.00  0.00    +0.000 HD
ENDROOT
BRANCH   1  13
ATOM      5  C   UNL     1       7.425   4.557  17.237  0.00  0.00    +0.000 C 
ATOM      6  C   UNL     1       6.036   4.669  16.614  0.00  0.00    +0.000 C 
ATOM      7  C   UNL     1       5.552   3.321  16.079  0.00  0.00    +0.000 C 
ATOM      8  C   UNL     1       6.071   5.710  15.464  0.00  0.00    +0.000 C 
ATOM      9  O   UNL     1       6.730   5.655  14.438  0.00  0.00    +0.000 OA
ATOM     10  N   UNL     1       5.205   6.741  15.813  0.00  0.00    +0.000 N 
ATOM     11  C   UNL     1       4.593   6.503  17.032  0.00  0.00    +0.000 A 
ATOM     12  C   UNL     1       3.659   7.296  17.665  0.00  0.00    +0.000 A 
ATOM     13  C   UNL     1       3.136   6.852  18.895  0.00  0.00    +0.000 A 
ATOM     14  C   UNL     1       3.579   5.629  19.444  0.00  0.00    +0.000 A 
ATOM     15  C   UNL     1       4.538   4.846  18.780  0.00  0.00    +0.000 A 
ATOM     16  C   UNL     1       5.036   5.295  17.566  0.00  0.00    +0.000 A 
ATOM     17  H   UNL     1       5.045   7.539  15.218  0.00  0.00    +0.000 HD
ENDBRANCH   1  13
BRANCH   3  18
ATOM     18  C   UNL     1       0.592   9.654  19.254  0.00  0.00    +0.000 A 
ATOM     19  C   UNL     1      -0.419  10.007  18.343  0.00  0.00    +0.000 A 
ATOM     20  C   UNL     1      -1.300  11.060  18.609  0.00  0.00    +0.000 A 
ATOM     21  C   UNL     1      -1.183  11.754  19.803  0.00  0.00    +0.000 A 
ATOM     22  C   UNL     1      -0.360  11.222  20.800  0.00  0.00    +0.000 A 
ATOM     23  C   UNL     1       0.544  10.189  20.540  0.00  0.00    +0.000 A 
ATOM     24  C   UNL     1      -0.389  11.930  22.090  0.00  0.00    +0.000 C 
ATOM     25  O   UNL     1      -0.612  11.358  23.141  0.00  0.00    +0.000 OA
ATOM     26  N   UNL     1      -0.178  13.288  21.953  0.00  0.00    +0.000 N 
ATOM     27  C   UNL     1      -0.961  13.980  20.929  0.00  0.00    +0.000 C 
ATOM     28  C   UNL     1      -1.867  13.068  20.073  0.00  0.00    +0.000 C 
ATOM     29  H   UNL     1       0.809  13.433  21.764  0.00  0.00    +0.000 HD
ENDBRANCH   3  18
TORSDOF 2
ENDMDL
MODEL 3
REMARK VINA RESULT:      -8.3      2.068      2.421
REMARK  Name = 
REMARK  4 active torsions:
REMARK  status: ('A' for Active; 'I' for Inactive)
REMARK    1  A    between atoms: C_1  and  C_2
REMARK    2  A    between atoms: C_2  and  C_3
REMARK    3  A    between atoms: C_9  and  C_10
REMARK    4  A    between atoms: N_12  and  C_13
REMARK                            x       y       z     vdW  Elec       q    Type
REMARK                         _______ _______ _______ _____ _____    ______ ____
ROOT
ATOM      1  C   UNL     1       1.053   9.421  19.602  0.00  0.00    +0.000 C 
ATOM      2  O   UNL     1       0.965   9.367  18.372  0.00  0.00    +0.000 OA
ATOM      3  N   UNL     1       1.595   8.433  20.421  0.00  0.00    +0.000 N 
ATOM      4  H   UNL     1       1.425   8.521  21.417  0.00  0.00    +0.000 HD
ENDROOT
BRANCH   1  13
ATOM      5  C   UNL     1      -0.784  14.728  23.074  0.00  0.00    +0.000 C 
ATOM      6  C   UNL     1      -1.648  13.746  22.286  0.00  0.00    +0.000 C 
ATOM      7  C   UNL     1      -2.692  14.473  21.439  0.00  0.00    +0.000 C 
ATOM      8  C   UNL     1      -2.353  12.776  23.272  0.00  0.00    +0.000 C 
ATOM      9  O   UNL     1      -3.154  13.066  24.147  0.00  0.00    +0.000 OA
ATOM     10  N   UNL     1      -1.903  11.493  22.982  0.00  0.00    +0.000 N 
ATOM     11  C   UNL     1      -1.011  11.491  21.924  0.00  0.00    +0.000 A 
ATOM     12  C   UNL     1      -0.396  10.397  21.353  0.00  0.00    +0.000 A 
ATOM     13  C   UNL     1       0.461  10.614  20.257  0.00  0.00    +0.000 A 
ATOM     14  C   UNL     1       0.671  11.927  19.780  0.00  0.00    +0.000 A 
ATOM     15  C   UNL     1       0.036  13.023  20.387  0.00  0.00    +0.000 A 
ATOM     16  C   UNL     1      -0.810  12.789  21.460  0.00  0.00    +0.000 A 
ATOM     17  H   UNL     1      -2.226  10.679  23.483  0.00  0.00    +0.000 HD
ENDBRANCH   1  13
BRANCH   3  18
ATOM     18  C   UNL     1       2.026   7.161  19.969  0.00  0.00    +0.000 A 
ATOM     19  C   UNL     1       2.617   6.964  18.710  0.00  0.00    +0.000 A 
ATOM     20  C   UNL     1       2.709   5.690  18.142  0.00  0.00    +0.000 A 
ATOM     21  C   UNL     1       2.223   4.600  18.847  0.00  0.00    +0.000 A 
ATOM     22  C   UNL     1       1.890   4.777  20.193  0.00  0.00    +0.000 A 
ATOM     23  C   UNL     1       1.769   6.046  20.765  0.00  0.00    +0.000 A 
ATOM     24  C   UNL     1       1.515   3.553  20.919  0.00  0.00    +0.000 C 
ATOM     25  O   UNL     1       2.051   3.226  21.963  0.00  0.00    +0.000 OA
ATOM     26  N   UNL     1       0.539   2.827  20.265  0.00  0.00    +0.000 N 
ATOM     27  C   UNL     1       0.745   2.578  18.838  0.00  0.00    +0.000 C 
ATOM     28  C   UNL     1       2.001   3.243  18.233  0.00  0.00    +0.000 C 
ATOM     29  H   UNL     1      -0.345   3.311  20.389  0.00  0.00    +0.000 HD
ENDBRANCH   3  18
TORSDOF 2
ENDMDL
MODEL 4
REMARK VINA RESULT:      -8.3      2.072      2.758
REMARK  Name = 
REMARK  4 active torsions:
REMARK  status: ('A' for Active; 'I' for Inactive)
REMARK    1  A    between atoms: C_1  and  C_2
REMARK    2  A    between atoms: C_2  and  C_3
REMARK    3  A    between atoms: C_9  and  C_10
REMARK    4  A    between atoms: N_12  and  C_13
REMARK                            x       y       z     vdW  Elec       q    Type
REMARK                         _______ _______ _______ _____ _____    ______ ____
ROOT
ATOM      1  C   UNL     1       1.051   8.942  20.182  0.00  0.00    +0.000 C 
ATOM      2  O   UNL     1       1.291   9.259  19.014  0.00  0.00    +0.000 OA
ATOM      3  N   UNL     1       1.471   7.771  20.809  0.00  0.00    +0.000 N 
ATOM      4  H   UNL     1       1.039   7.548  21.699  0.00  0.00    +0.000 HD
ENDROOT
BRANCH   1  13
ATOM      5  C   UNL     1      -3.547  12.375  23.450  0.00  0.00    +0.000 C 
ATOM      6  C   UNL     1      -2.258  12.869  22.796  0.00  0.00    +0.000 C 
ATOM      7  C   UNL     1      -1.505  13.838  23.707  0.00  0.00    +0.000 C 
ATOM      8  C   UNL     1      -2.599  13.568  21.453  0.00  0.00    +0.000 C 
ATOM      9  O   UNL     1      -3.283  14.566  21.292  0.00  0.00    +0.000 OA
ATOM     10  N   UNL     1      -1.980  12.842  20.441  0.00  0.00    +0.000 N 
ATOM     11  C   UNL     1      -1.262  11.772  20.946  0.00  0.00    +0.000 A 
ATOM     12  C   UNL     1      -0.504  10.865  20.235  0.00  0.00    +0.000 A 
ATOM     13  C   UNL     1       0.175   9.861  20.951  0.00  0.00    +0.000 A 
ATOM     14  C   UNL     1       0.061   9.804  22.358  0.00  0.00    +0.000 A 
ATOM     15  C   UNL     1      -0.725  10.737  23.055  0.00  0.00    +0.000 A 
ATOM     16  C   UNL     1      -1.381  11.723  22.333  0.00  0.00    +0.000 A 
ATOM     17  H   UNL     1      -2.043  13.104  19.469  0.00  0.00    +0.000 HD
ENDBRANCH   1  13
BRANCH   3  18
ATOM     18  C   UNL     1       2.149   6.710  20.159  0.00  0.00    +0.000 A 
ATOM     19  C   UNL     1       2.777   6.863  18.911  0.00  0.00    +0.000 A 
ATOM     20  C   UNL     1       3.123   5.754  18.132  0.00  0.00    +0.000 A 
ATOM     21  C   UNL     1       2.857   4.482  18.613  0.00  0.00    +0.000 A 
ATOM     22  C   UNL     1       2.486   4.344  19.953  0.00  0.00    +0.000 A 
ATOM     23  C   UNL     1       2.112   5.440  20.734  0.00  0.00    +0.000 A 
ATOM     24  C   UNL     1       2.355   2.959  20.435  0.00  0.00    +0.000 C 
ATOM     25  O   UNL     1       2.936   2.558  21.427  0.00  0.00    +0.000 OA
ATOM     26  N   UNL     1       1.547   2.190  19.622  0.00  0.00    +0.000 N 
ATOM     27  C   UNL     1       1.808   2.248  18.184  0.00  0.00    +0.000 C 
ATOM     28  C   UNL     1       2.913   3.242  17.760  0.00  0.00    +0.000 C 
ATOM     29  H   UNL     1       0.583   2.463  19.791  0.00  0.00    +0.000 HD
ENDBRANCH   3  18
TORSDOF 2
ENDMDL
MODEL 5
REMARK VINA RESULT:      -8.3      1.932      9.042
REMARK  Name = 
REMARK  4 active torsions:
REMARK  status: ('A' for Active; 'I' for Inactive)
REMARK    1  A    between atoms: C_1  and  C_2
REMARK    2  A    between atoms: C_2  and  C_3
REMARK    3  A    between atoms: C_9  and  C_10
REMARK    4  A    between atoms: N_12  and  C_13
REMARK                            x       y       z     vdW  Elec       q    Type
REMARK                         _______ _______ _______ _____ _____    ______ ____
ROOT
ATOM      1  C   UNL     1       1.296   8.845  19.390  0.00  0.00    +0.000 C 
ATOM      2  O   UNL     1       0.809   9.574  18.521  0.00  0.00    +0.000 OA
ATOM      3  N   UNL     1       1.092   8.972  20.763  0.00  0.00    +0.000 N 
ATOM      4  H   UNL     1       1.705   8.435  21.367  0.00  0.00    +0.000 HD
ENDROOT
BRANCH   1  13
ATOM      5  C   UNL     1       4.726   3.827  16.811  0.00  0.00    +0.000 C 
ATOM      6  C   UNL     1       4.995   4.624  18.086  0.00  0.00    +0.000 C 
ATOM      7  C   UNL     1       6.471   5.004  18.207  0.00  0.00    +0.000 C 
ATOM      8  C   UNL     1       4.566   3.782  19.317  0.00  0.00    +0.000 C 
ATOM      9  O   UNL     1       5.021   2.706  19.672  0.00  0.00    +0.000 OA
ATOM     10  N   UNL     1       3.549   4.479  19.959  0.00  0.00    +0.000 N 
ATOM     11  C   UNL     1       3.268   5.676  19.323  0.00  0.00    +0.000 A 
ATOM     12  C   UNL     1       2.344   6.626  19.703  0.00  0.00    +0.000 A 
ATOM     13  C   UNL     1       2.236   7.795  18.925  0.00  0.00    +0.000 A 
ATOM     14  C   UNL     1       3.060   7.960  17.790  0.00  0.00    +0.000 A 
ATOM     15  C   UNL     1       3.987   6.971  17.423  0.00  0.00    +0.000 A 
ATOM     16  C   UNL     1       4.084   5.830  18.205  0.00  0.00    +0.000 A 
ATOM     17  H   UNL     1       3.106   4.140  20.801  0.00  0.00    +0.000 HD
ENDBRANCH   1  13
BRANCH   3  18
ATOM     18  C   UNL     1       0.380  10.031  21.376  0.00  0.00    +0.000 A 
ATOM     19  C   UNL     1      -0.177   9.925  22.662  0.00  0.00    +0.000 A 
ATOM     20  C   UNL     1      -1.158  10.818  23.104  0.00  0.00    +0.000 A 
ATOM     21  C   UNL     1      -1.573  11.837  22.261  0.00  0.00    +0.000 A 
ATOM     22  C   UNL     1      -0.825  12.088  21.107  0.00  0.00    +0.000 A 
ATOM     23  C   UNL     1       0.138  11.190  20.640  0.00  0.00    +0.000 A 
ATOM     24  C   UNL     1      -1.235  13.269  20.330  0.00  0.00    +0.000 C 
ATOM     25  O   UNL     1      -0.449  14.145  20.016  0.00  0.00    +0.000 OA
ATOM     26  N   UNL     1      -2.587  13.275  20.049  0.00  0.00    +0.000 N 
ATOM     27  C   UNL     1      -3.496  13.009  21.164  0.00  0.00    +0.000 C 
ATOM     28  C   UNL     1      -2.805  12.668  22.503  0.00  0.00    +0.000 C 
ATOM     29  H   UNL     1      -2.756  12.591  19.317  0.00  0.00    +0.000 HD
ENDBRANCH   3  18
TORSDOF 2
ENDMDL
MODEL 6
REMARK VINA RESULT:      -8.2      6.459      7.957
REMARK  Name = 
REMARK  4 active torsions:
REMARK  status: ('A' for Active; 'I' for Inactive)
REMARK    1  A    between atoms: C_1  and  C_2
REMARK    2  A    between atoms: C_2  and  C_3
REMARK    3  A    between atoms: C_9  and  C_10
REMARK    4  A    between atoms: N_12  and  C_13
REMARK                            x       y       z     vdW  Elec       q    Type
REMARK                         _______ _______ _______ _____ _____    ______ ____
ROOT
ATOM      1  C   UNL     1       7.715   8.487  17.667  0.00  0.00    +0.000 C 
ATOM      2  O   UNL     1       6.854   8.777  16.831  0.00  0.00    +0.000 OA
ATOM      3  N   UNL     1       7.999   7.203  18.127  0.00  0.00    +0.000 N 
ATOM      4  H   UNL     1       8.587   7.132  18.951  0.00  0.00    +0.000 HD
ENDROOT
BRANCH   1  13
ATOM      5  C   UNL     1      10.143  13.752  20.825  0.00  0.00    +0.000 C 
ATOM      6  C   UNL     1      10.661  13.061  19.565  0.00  0.00    +0.000 C 
ATOM      7  C   UNL     1      12.177  12.872  19.613  0.00  0.00    +0.000 C 
ATOM      8  C   UNL     1      10.275  13.904  18.321  0.00  0.00    +0.000 C 
ATOM      9  O   UNL     1      10.626  15.044  18.063  0.00  0.00    +0.000 OA
ATOM     10  N   UNL     1       9.438  13.120  17.534  0.00  0.00    +0.000 N 
ATOM     11  C   UNL     1       9.241  11.868  18.088  0.00  0.00    +0.000 A 
ATOM     12  C   UNL     1       8.498  10.830  17.564  0.00  0.00    +0.000 A 
ATOM     13  C   UNL     1       8.450   9.620  18.282  0.00  0.00    +0.000 A 
ATOM     14  C   UNL     1       9.149   9.500  19.503  0.00  0.00    +0.000 A 
ATOM     15  C   UNL     1       9.892  10.577  20.016  0.00  0.00    +0.000 A 
ATOM     16  C   UNL     1       9.933  11.759  19.293  0.00  0.00    +0.000 A 
ATOM     17  H   UNL     1       9.058  13.444  16.657  0.00  0.00    +0.000 HD
ENDBRANCH   1  13
BRANCH   3  18
ATOM     18  C   UNL     1       7.262   6.043  17.783  0.00  0.00    +0.000 A 
ATOM     19  C   UNL     1       7.136   5.590  16.458  0.00  0.00    +0.000 A 
ATOM     20  C   UNL     1       6.140   4.679  16.094  0.00  0.00    +0.000 A 
ATOM     21  C   UNL     1       5.274   4.201  17.065  0.00  0.00    +0.000 A 
ATOM     22  C   UNL     1       5.581   4.450  18.406  0.00  0.00    +0.000 A 
ATOM     23  C   UNL     1       6.555   5.377  18.783  0.00  0.00    +0.000 A 
ATOM     24  C   UNL     1       4.700   3.797  19.389  0.00  0.00    +0.000 C 
ATOM     25  O   UNL     1       5.134   3.103  20.290  0.00  0.00    +0.000 OA
ATOM     26  N   UNL     1       3.363   4.034  19.141  0.00  0.00    +0.000 N 
ATOM     27  C   UNL     1       2.898   3.831  17.768  0.00  0.00    +0.000 C 
ATOM     28  C   UNL     1       4.002   3.458  16.754  0.00  0.00    +0.000 C 
ATOM     29  H   UNL     1       3.158   4.989  19.418  0.00  0.00    +0.000 HD
ENDBRANCH   3  18
TORSDOF 2
ENDMDL
MODEL 7
REMARK VINA RESULT:      -8.2      2.760      9.072
REMARK  Name = 
REMARK  4 active torsions:
REMARK  status: ('A' for Active; 'I' for Inactive)
REMARK    1  A    between atoms: C_1  and  C_2
REMARK    2  A    between atoms: C_2  and  C_3
REMARK    3  A    between atoms: C_9  and  C_10
REMARK    4  A    between atoms: N_12  and  C_13
REMARK                            x       y       z     vdW  Elec       q    Type
REMARK                         _______ _______ _______ _____ _____    ______ ____
ROOT
ATOM      1  C   UNL     1       1.110   9.035  19.289  0.00  0.00    +0.000 C 
ATOM      2  O   UNL     1       0.717   8.968  20.457  0.00  0.00    +0.000 OA
ATOM      3  N   UNL     1       0.668   9.948  18.335  0.00  0.00    +0.000 N 
ATOM      4  H   UNL     1       0.928   9.765  17.371  0.00  0.00    +0.000 HD
ENDROOT
BRANCH   1  13
ATOM      5  C   UNL     1       4.702   4.053  16.864  0.00  0.00    +0.000 C 
ATOM      6  C   UNL     1       4.939   4.891  18.119  0.00  0.00    +0.000 C 
ATOM      7  C   UNL     1       6.403   5.317  18.240  0.00  0.00    +0.000 C 
ATOM      8  C   UNL     1       4.526   4.069  19.370  0.00  0.00    +0.000 C 
ATOM      9  O   UNL     1       5.010   3.017  19.755  0.00  0.00    +0.000 OA
ATOM     10  N   UNL     1       3.485   4.753  19.987  0.00  0.00    +0.000 N 
ATOM     11  C   UNL     1       3.174   5.924  19.318  0.00  0.00    +0.000 A 
ATOM     12  C   UNL     1       2.220   6.857  19.667  0.00  0.00    +0.000 A 
ATOM     13  C   UNL     1       2.084   8.001  18.857  0.00  0.00    +0.000 A 
ATOM     14  C   UNL     1       2.910   8.160  17.723  0.00  0.00    +0.000 A 
ATOM     15  C   UNL     1       3.868   7.189  17.388  0.00  0.00    +0.000 A 
ATOM     16  C   UNL     1       3.993   6.072  18.200  0.00  0.00    +0.000 A 
ATOM     17  H   UNL     1       3.047   4.423  20.834  0.00  0.00    +0.000 HD
ENDBRANCH   1  13
BRANCH   3  18
ATOM     18  C   UNL     1      -0.388  10.871  18.533  0.00  0.00    +0.000 A 
ATOM     19  C   UNL     1      -0.382  11.819  19.571  0.00  0.00    +0.000 A 
ATOM     20  C   UNL     1      -1.555  12.467  19.969  0.00  0.00    +0.000 A 
ATOM     21  C   UNL     1      -2.741  12.180  19.313  0.00  0.00    +0.000 A 
ATOM     22  C   UNL     1      -2.680  11.449  18.123  0.00  0.00    +0.000 A 
ATOM     23  C   UNL     1      -1.522  10.775  17.728  0.00  0.00    +0.000 A 
ATOM     24  C   UNL     1      -3.956  11.299  17.405  0.00  0.00    +0.000 C 
ATOM     25  O   UNL     1      -4.080  11.599  16.231  0.00  0.00    +0.000 OA
ATOM     26  N   UNL     1      -4.969  10.829  18.216  0.00  0.00    +0.000 N 
ATOM     27  C   UNL     1      -5.142  11.491  19.510  0.00  0.00    +0.000 C 
ATOM     28  C   UNL     1      -4.097  12.584  19.829  0.00  0.00    +0.000 C 
ATOM     29  H   UNL     1      -4.808   9.839  18.374  0.00  0.00    +0.000 HD
ENDBRANCH   3  18
TORSDOF 2
ENDMDL
MODEL 8
REMARK VINA RESULT:      -8.2      2.438      3.132
REMARK  Name = 
REMARK  4 active torsions:
REMARK  status: ('A' for Active; 'I' for Inactive)
REMARK    1  A    between atoms: C_1  and  C_2
REMARK    2  A    between atoms: C_2  and  C_3
REMARK    3  A    between atoms: C_9  and  C_10
REMARK    4  A    between atoms: N_12  and  C_13
REMARK                            x       y       z     vdW  Elec       q    Type
REMARK                         _______ _______ _______ _____ _____    ______ ____
ROOT
ATOM      1  C   UNL     1       0.956   9.470  21.833  0.00  0.00    +0.000 C 
ATOM      2  O   UNL     1       1.891   9.326  22.626  0.00  0.00    +0.000 OA
ATOM      3  N   UNL     1       0.676   8.641  20.749  0.00  0.00    +0.000 N 
ATOM      4  H   UNL     1       0.003   8.986  20.072  0.00  0.00    +0.000 HD
ENDROOT
BRANCH   1  13
ATOM      5  C   UNL     1      -2.214  15.047  23.397  0.00  0.00    +0.000 C 
ATOM      6  C   UNL     1      -2.732  13.822  22.647  0.00  0.00    +0.000 C 
ATOM      7  C   UNL     1      -3.535  14.222  21.409  0.00  0.00    +0.000 C 
ATOM      8  C   UNL     1      -3.619  12.974  23.598  0.00  0.00    +0.000 C 
ATOM      9  O   UNL     1      -4.660  13.316  24.137  0.00  0.00    +0.000 OA
ATOM     10  N   UNL     1      -3.008  11.733  23.736  0.00  0.00    +0.000 N 
ATOM     11  C   UNL     1      -1.848  11.648  22.986  0.00  0.00    +0.000 A 
ATOM     12  C   UNL     1      -1.012  10.559  22.863  0.00  0.00    +0.000 A 
ATOM     13  C   UNL     1       0.109  10.675  22.019  0.00  0.00    +0.000 A 
ATOM     14  C   UNL     1       0.349  11.886  21.334  0.00  0.00    +0.000 A 
ATOM     15  C   UNL     1      -0.517  12.982  21.484  0.00  0.00    +0.000 A 
ATOM     16  C   UNL     1      -1.620  12.847  22.314  0.00  0.00    +0.000 A 
ATOM     17  H   UNL     1      -3.401  10.996  24.302  0.00  0.00    +0.000 HD
ENDBRANCH   1  13
BRANCH   3  18
ATOM     18  C   UNL     1       1.495   7.565  20.325  0.00  0.00    +0.000 A 
ATOM     19  C   UNL     1       2.336   7.650  19.203  0.00  0.00    +0.000 A 
ATOM     20  C   UNL     1       2.855   6.502  18.597  0.00  0.00    +0.000 A 
ATOM     21  C   UNL     1       2.545   5.259  19.127  0.00  0.00    +0.000 A 
ATOM     22  C   UNL     1       1.937   5.209  20.385  0.00  0.00    +0.000 A 
ATOM     23  C   UNL     1       1.392   6.344  20.989  0.00  0.00    +0.000 A 
ATOM     24  C   UNL     1       1.763   3.861  20.951  0.00  0.00    +0.000 C 
ATOM     25  O   UNL     1       2.164   3.566  22.062  0.00  0.00    +0.000 OA
ATOM     26  N   UNL     1       1.144   2.994  20.073  0.00  0.00    +0.000 N 
ATOM     27  C   UNL     1       1.664   2.952  18.707  0.00  0.00    +0.000 C 
ATOM     28  C   UNL     1       2.796   3.961  18.407  0.00  0.00    +0.000 C 
ATOM     29  H   UNL     1       0.158   3.235  20.041  0.00  0.00    +0.000 HD
ENDBRANCH   3  18
TORSDOF 2
ENDMDL
MODEL 9
REMARK VINA RESULT:      -8.2      2.698      8.699
REMARK  Name = 
REMARK  4 active torsions:
REMARK  status: ('A' for Active; 'I' for Inactive)
REMARK    1  A    between atoms: C_1  and  C_2
REMARK    2  A    between atoms: C_2  and  C_3
REMARK    3  A    between atoms: C_9  and  C_10
REMARK    4  A    between atoms: N_12  and  C_13
REMARK                            x       y       z     vdW  Elec       q    Type
REMARK                         _______ _______ _______ _____ _____    ______ ____
ROOT
ATOM      1  C   UNL     1       1.778   9.099  18.508  0.00  0.00    +0.000 C 
ATOM      2  O   UNL     1       2.419   9.683  17.630  0.00  0.00    +0.000 OA
ATOM      3  N   UNL     1       0.875   9.696  19.386  0.00  0.00    +0.000 N 
ATOM      4  H   UNL     1       0.572   9.139  20.178  0.00  0.00    +0.000 HD
ENDROOT
BRANCH   1  13
ATOM      5  C   UNL     1       2.090   2.525  19.031  0.00  0.00    +0.000 C 
ATOM      6  C   UNL     1       2.973   3.586  19.683  0.00  0.00    +0.000 C 
ATOM      7  C   UNL     1       4.454   3.217  19.588  0.00  0.00    +0.000 C 
ATOM      8  C   UNL     1       2.566   3.750  21.171  0.00  0.00    +0.000 C 
ATOM      9  O   UNL     1       2.617   2.902  22.048  0.00  0.00    +0.000 OA
ATOM     10  N   UNL     1       2.120   5.056  21.336  0.00  0.00    +0.000 N 
ATOM     11  C   UNL     1       2.199   5.776  20.157  0.00  0.00    +0.000 A 
ATOM     12  C   UNL     1       1.872   7.102  19.965  0.00  0.00    +0.000 A 
ATOM     13  C   UNL     1       2.057   7.652  18.681  0.00  0.00    +0.000 A 
ATOM     14  C   UNL     1       2.559   6.844  17.638  0.00  0.00    +0.000 A 
ATOM     15  C   UNL     1       2.877   5.494  17.861  0.00  0.00    +0.000 A 
ATOM     16  C   UNL     1       2.695   4.972  19.133  0.00  0.00    +0.000 A 
ATOM     17  H   UNL     1       1.807   5.414  22.226  0.00  0.00    +0.000 HD
ENDBRANCH   1  13
BRANCH   3  18
ATOM     18  C   UNL     1       0.641  11.090  19.475  0.00  0.00    +0.000 A 
ATOM     19  C   UNL     1      -0.331  11.746  18.701  0.00  0.00    +0.000 A 
ATOM     20  C   UNL     1      -0.311  13.135  18.535  0.00  0.00    +0.000 A 
ATOM     21  C   UNL     1       0.676  13.876  19.165  0.00  0.00    +0.000 A 
ATOM     22  C   UNL     1       1.460  13.246  20.136  0.00  0.00    +0.000 A 
ATOM     23  C   UNL     1       1.469  11.857  20.292  0.00  0.00    +0.000 A 
ATOM     24  C   UNL     1       2.392  14.121  20.864  0.00  0.00    +0.000 C 
ATOM     25  O   UNL     1       2.420  14.174  22.080  0.00  0.00    +0.000 OA
ATOM     26  N   UNL     1       3.177  14.879  20.017  0.00  0.00    +0.000 N 
ATOM     27  C   UNL     1       2.492  15.586  18.935  0.00  0.00    +0.000 C 
ATOM     28  C   UNL     1       0.974  15.315  18.836  0.00  0.00    +0.000 C 
ATOM     29  H   UNL     1       3.882  14.268  19.615  0.00  0.00    +0.000 HD
ENDBRANCH   3  18
TORSDOF 2
ENDMDL
