MODEL 1
REMARK VINA RESULT:      -8.7      0.000      0.000
REMARK  Name = 
REMARK  4 active torsions:
REMARK  status: ('A' for Active; 'I' for Inactive)
REMARK    1  A    between atoms: N_3  and  C_4
REMARK    2  A    between atoms: C_4  and  C_5
REMARK    3  A    between atoms: C_9  and  C_10
REMARK    4  A    between atoms: N_17  and  C_18
REMARK                            x       y       z     vdW  Elec       q    Type
REMARK                         _______ _______ _______ _____ _____    ______ ____
ROOT
ATOM      1  O   UNL     1       1.268   5.614  20.412  0.00  0.00    +0.000 OA
ATOM      2  C   UNL     1       2.091   6.508  20.266  0.00  0.00    +0.000 C 
ATOM      3  N   UNL     1       1.923   7.792  20.708  0.00  0.00    +0.000 N 
ATOM      4  N   UNL     1       3.308   6.338  19.661  0.00  0.00    +0.000 N 
ATOM      5  H   UNL     1       2.659   8.466  20.575  0.00  0.00    +0.000 HD
ATOM      6  H   UNL     1       3.786   7.177  19.380  0.00  0.00    +0.000 HD
ENDROOT
BRANCH   4   7
ATOM      7  C   UNL     1       3.721   5.077  19.047  0.00  0.00    +0.000 C 
ATOM      8  C   UNL     1       5.115   4.673  19.545  0.00  0.00    +0.000 C 
ATOM      9  C   UNL     1       6.210   5.613  19.038  0.00  0.00    +0.000 C 
ATOM     10  C   UNL     1       6.147   5.790  17.539  0.00  0.00    +0.000 C 
ATOM     11  C   UNL     1       4.777   6.129  16.993  0.00  0.00    +0.000 C 
ATOM     12  C   UNL     1       3.720   5.154  17.513  0.00  0.00    +0.000 C 
ATOM     13  C   UNL     1       7.348   6.442  16.868  0.00  0.00    +0.000 C 
ATOM     14  C   UNL     1       7.077   4.997  16.682  0.00  0.00    +0.000 C 
ATOM     15  F   UNL     1       7.919   4.060  17.233  0.00  0.00    +0.000 F 
ATOM     16  F   UNL     1       6.683   4.525  15.453  0.00  0.00    +0.000 F 
ENDBRANCH   4   7
BRANCH   3  17
ATOM     17  C   UNL     1       0.740   8.222  21.420  0.00  0.00    +0.000 C 
BRANCH  17  18
ATOM     18  C   UNL     1       0.202   9.532  20.895  0.00  0.00    +0.000 A 
ATOM     19  C   UNL     1       0.669  10.754  21.395  0.00  0.00    +0.000 A 
ATOM     20  C   UNL     1       0.208  11.955  20.857  0.00  0.00    +0.000 A 
ATOM     21  C   UNL     1      -0.713  11.947  19.807  0.00  0.00    +0.000 A 
ATOM     22  C   UNL     1      -1.198  10.743  19.265  0.00  0.00    +0.000 A 
ATOM     23  C   UNL     1      -0.730   9.543  19.842  0.00  0.00    +0.000 A 
BRANCH  22  24
ATOM     24  C   UNL     1      -2.119  10.730  18.107  0.00  0.00    +0.000 A 
ATOM     25  C   UNL     1      -1.894   9.934  16.975  0.00  0.00    +0.000 A 
ATOM     26  C   UNL     1      -2.768   9.982  15.886  0.00  0.00    +0.000 A 
ATOM     27  C   UNL     1      -3.862  10.824  15.957  0.00  0.00    +0.000 A 
ATOM     28  N   UNL     1      -4.135  11.600  17.019  0.00  0.00    +0.000 NA
ATOM     29  C   UNL     1      -3.259  11.538  18.056  0.00  0.00    +0.000 A 
ENDBRANCH  22  24
ENDBRANCH  17  18
ENDBRANCH   3  17
TORSDOF 4
ENDMDL
MODEL 2
REMARK VINA RESULT:      -8.3      2.407      3.601
REMARK  Name = 
REMARK  4 active torsions:
REMARK  status: ('A' for Active; 'I' for Inactive)
REMARK    1  A    between atoms: N_3  and  C_4
REMARK    2  A    between atoms: C_4  and  C_5
REMARK    3  A    between atoms: C_9  and  C_10
REMARK    4  A    between atoms: N_17  and  C_18
REMARK                            x       y       z     vdW  Elec       q    Type
REMARK                         _______ _______ _______ _____ _____    ______ ____
ROOT
ATOM      1  O   UNL     1       1.159   5.632  20.311  0.00  0.00    +0.000 OA
ATOM      2  C   UNL     1       2.054   6.463  20.386  0.00  0.00    +0.000 C 
ATOM      3  N   UNL     1       1.941   7.662  21.036  0.00  0.00    +0.000 N 
ATOM      4  N   UNL     1       3.303   6.294  19.850  0.00  0.00    +0.000 N 
ATOM      5  H   UNL     1       2.734   8.282  21.077  0.00  0.00    +0.000 HD
ATOM      6  H   UNL     1       3.863   7.125  19.757  0.00  0.00    +0.000 HD
ENDROOT
BRANCH   4   7
ATOM      7  C   UNL     1       3.675   5.126  19.054  0.00  0.00    +0.000 C 
ATOM      8  C   UNL     1       5.037   4.585  19.505  0.00  0.00    +0.000 C 
ATOM      9  C   UNL     1       6.185   5.540  19.169  0.00  0.00    +0.000 C 
ATOM     10  C   UNL     1       6.164   5.951  17.716  0.00  0.00    +0.000 C 
ATOM     11  C   UNL     1       4.824   6.433  17.206  0.00  0.00    +0.000 C 
ATOM     12  C   UNL     1       3.714   5.440  17.550  0.00  0.00    +0.000 C 
ATOM     13  C   UNL     1       7.409   6.641  17.175  0.00  0.00    +0.000 C 
ATOM     14  C   UNL     1       7.079   5.257  16.761  0.00  0.00    +0.000 C 
ATOM     15  F   UNL     1       7.866   4.207  17.173  0.00  0.00    +0.000 F 
ATOM     16  F   UNL     1       6.694   5.000  15.467  0.00  0.00    +0.000 F 
ENDBRANCH   4   7
BRANCH   3  17
ATOM     17  C   UNL     1       0.736   8.064  21.724  0.00  0.00    +0.000 C 
BRANCH  17  18
ATOM     18  C   UNL     1       0.232   9.409  21.256  0.00  0.00    +0.000 A 
ATOM     19  C   UNL     1       0.294   9.770  19.905  0.00  0.00    +0.000 A 
ATOM     20  C   UNL     1      -0.233  10.989  19.479  0.00  0.00    +0.000 A 
ATOM     21  C   UNL     1      -0.835  11.853  20.396  0.00  0.00    +0.000 A 
ATOM     22  C   UNL     1      -0.932  11.524  21.760  0.00  0.00    +0.000 A 
ATOM     23  C   UNL     1      -0.373  10.294  22.167  0.00  0.00    +0.000 A 
BRANCH  22  24
ATOM     24  C   UNL     1      -1.632  12.405  22.722  0.00  0.00    +0.000 A 
ATOM     25  C   UNL     1      -2.900  12.100  23.235  0.00  0.00    +0.000 A 
ATOM     26  C   UNL     1      -3.544  12.978  24.111  0.00  0.00    +0.000 A 
ATOM     27  C   UNL     1      -2.896  14.147  24.464  0.00  0.00    +0.000 A 
ATOM     28  N   UNL     1      -1.677  14.486  24.014  0.00  0.00    +0.000 NA
ATOM     29  C   UNL     1      -1.084  13.616  23.156  0.00  0.00    +0.000 A 
ENDBRANCH  22  24
ENDBRANCH  17  18
ENDBRANCH   3  17
TORSDOF 4
ENDMDL
MODEL 3
REMARK VINA RESULT:      -8.3      2.806      3.195
REMARK  Name = 
REMARK  4 active torsions:
REMARK  status: ('A' for Active; 'I' for Inactive)
REMARK    1  A    between atoms: N_3  and  C_4
REMARK    2  A    between atoms: C_4  and  C_5
REMARK    3  A    between atoms: C_9  and  C_10
REMARK    4  A    between atoms: N_17  and  C_18
REMARK                            x       y       z     vdW  Elec       q    Type
REMARK                         _______ _______ _______ _____ _____    ______ ____
ROOT
ATOM      1  O   UNL     1       1.719   5.090  20.841  0.00  0.00    +0.000 OA
ATOM      2  C   UNL     1       2.118   6.116  20.307  0.00  0.00    +0.000 C 
ATOM      3  N   UNL     1       1.698   7.375  20.644  0.00  0.00    +0.000 N 
ATOM      4  N   UNL     1       3.061   6.147  19.314  0.00  0.00    +0.000 N 
ATOM      5  H   UNL     1       2.095   8.174  20.177  0.00  0.00    +0.000 HD
ATOM      6  H   UNL     1       3.126   7.003  18.790  0.00  0.00    +0.000 HD
ENDROOT
BRANCH   4   7
ATOM      7  C   UNL     1       3.635   4.938  18.725  0.00  0.00    +0.000 C 
ATOM      8  C   UNL     1       4.924   4.549  19.459  0.00  0.00    +0.000 C 
ATOM      9  C   UNL     1       6.056   5.550  19.221  0.00  0.00    +0.000 C 
ATOM     10  C   UNL     1       6.270   5.815  17.749  0.00  0.00    +0.000 C 
ATOM     11  C   UNL     1       5.016   6.142  16.969  0.00  0.00    +0.000 C 
ATOM     12  C   UNL     1       3.921   5.106  17.225  0.00  0.00    +0.000 C 
ATOM     13  C   UNL     1       7.549   6.542  17.356  0.00  0.00    +0.000 C 
ATOM     14  C   UNL     1       7.378   5.103  17.046  0.00  0.00    +0.000 C 
ATOM     15  F   UNL     1       8.138   4.161  17.698  0.00  0.00    +0.000 F 
ATOM     16  F   UNL     1       7.244   4.693  15.741  0.00  0.00    +0.000 F 
ENDBRANCH   4   7
BRANCH   3  17
ATOM     17  C   UNL     1       0.737   7.620  21.695  0.00  0.00    +0.000 C 
BRANCH  17  18
ATOM     18  C   UNL     1       0.344   9.076  21.782  0.00  0.00    +0.000 A 
ATOM     19  C   UNL     1      -0.566   9.519  22.750  0.00  0.00    +0.000 A 
ATOM     20  C   UNL     1      -0.870  10.876  22.858  0.00  0.00    +0.000 A 
ATOM     21  C   UNL     1      -0.261  11.802  22.010  0.00  0.00    +0.000 A 
ATOM     22  C   UNL     1       0.669  11.403  21.032  0.00  0.00    +0.000 A 
ATOM     23  C   UNL     1       0.943  10.022  20.932  0.00  0.00    +0.000 A 
BRANCH  22  24
ATOM     24  C   UNL     1       1.369  12.389  20.180  0.00  0.00    +0.000 A 
ATOM     25  C   UNL     1       1.462  12.250  18.788  0.00  0.00    +0.000 A 
ATOM     26  C   UNL     1       2.166  13.183  18.024  0.00  0.00    +0.000 A 
ATOM     27  C   UNL     1       2.760  14.250  18.673  0.00  0.00    +0.000 A 
ATOM     28  N   UNL     1       2.695  14.442  20.001  0.00  0.00    +0.000 NA
ATOM     29  C   UNL     1       2.012  13.510  20.715  0.00  0.00    +0.000 A 
ENDBRANCH  22  24
ENDBRANCH  17  18
ENDBRANCH   3  17
TORSDOF 4
ENDMDL
MODEL 4
REMARK VINA RESULT:      -8.2      2.828      3.204
REMARK  Name = 
REMARK  4 active torsions:
REMARK  status: ('A' for Active; 'I' for Inactive)
REMARK    1  A    between atoms: N_3  and  C_4
REMARK    2  A    between atoms: C_4  and  C_5
REMARK    3  A    between atoms: C_9  and  C_10
REMARK    4  A    between atoms: N_17  and  C_18
REMARK                            x       y       z     vdW  Elec       q    Type
REMARK                         _______ _______ _______ _____ _____    ______ ____
ROOT
ATOM      1  O   UNL     1       2.134   4.875  21.039  0.00  0.00    +0.000 OA
ATOM      2  C   UNL     1       2.506   5.895  20.475  0.00  0.00    +0.000 C 
ATOM      3  N   UNL     1       1.832   7.086  20.508  0.00  0.00    +0.000 N 
ATOM      4  N   UNL     1       3.666   5.991  19.752  0.00  0.00    +0.000 N 
ATOM      5  H   UNL     1       2.218   7.890  20.040  0.00  0.00    +0.000 HD
ATOM      6  H   UNL     1       3.743   6.786  19.139  0.00  0.00    +0.000 HD
ENDROOT
BRANCH   4   7
ATOM      7  C   UNL     1       4.548   4.851  19.509  0.00  0.00    +0.000 C 
ATOM      8  C   UNL     1       5.957   5.335  19.148  0.00  0.00    +0.000 C 
ATOM      9  C   UNL     1       6.004   6.031  17.786  0.00  0.00    +0.000 C 
ATOM     10  C   UNL     1       5.373   5.187  16.703  0.00  0.00    +0.000 C 
ATOM     11  C   UNL     1       4.006   4.634  17.038  0.00  0.00    +0.000 C 
ATOM     12  C   UNL     1       4.013   3.934  18.398  0.00  0.00    +0.000 C 
ATOM     13  C   UNL     1       5.623   5.611  15.263  0.00  0.00    +0.000 C 
ATOM     14  C   UNL     1       6.262   4.390  15.807  0.00  0.00    +0.000 C 
ATOM     15  F   UNL     1       7.621   4.353  16.009  0.00  0.00    +0.000 F 
ATOM     16  F   UNL     1       5.881   3.152  15.346  0.00  0.00    +0.000 F 
ENDBRANCH   4   7
BRANCH   3  17
ATOM     17  C   UNL     1       0.599   7.263  21.241  0.00  0.00    +0.000 C 
BRANCH  17  18
ATOM     18  C   UNL     1       0.290   8.718  21.497  0.00  0.00    +0.000 A 
ATOM     19  C   UNL     1      -0.478   9.109  22.601  0.00  0.00    +0.000 A 
ATOM     20  C   UNL     1      -0.702  10.460  22.858  0.00  0.00    +0.000 A 
ATOM     21  C   UNL     1      -0.153  11.435  22.023  0.00  0.00    +0.000 A 
ATOM     22  C   UNL     1       0.635  11.089  20.910  0.00  0.00    +0.000 A 
ATOM     23  C   UNL     1       0.829   9.714  20.662  0.00  0.00    +0.000 A 
BRANCH  22  24
ATOM     24  C   UNL     1       1.277  12.120  20.064  0.00  0.00    +0.000 A 
ATOM     25  C   UNL     1       1.759  11.845  18.777  0.00  0.00    +0.000 A 
ATOM     26  C   UNL     1       2.394  12.837  18.027  0.00  0.00    +0.000 A 
ATOM     27  C   UNL     1       2.526  14.097  18.581  0.00  0.00    +0.000 A 
ATOM     28  N   UNL     1       2.074  14.423  19.804  0.00  0.00    +0.000 NA
ATOM     29  C   UNL     1       1.471  13.431  20.510  0.00  0.00    +0.000 A 
ENDBRANCH  22  24
ENDBRANCH  17  18
ENDBRANCH   3  17
TORSDOF 4
ENDMDL
MODEL 5
REMARK VINA RESULT:      -8.2      2.957      4.464
REMARK  Name = 
REMARK  4 active torsions:
REMARK  status: ('A' for Active; 'I' for Inactive)
REMARK    1  A    between atoms: N_3  and  C_4
REMARK    2  A    between atoms: C_4  and  C_5
REMARK    3  A    between atoms: C_9  and  C_10
REMARK    4  A    between atoms: N_17  and  C_18
REMARK                            x       y       z     vdW  Elec       q    Type
REMARK                         _______ _______ _______ _____ _____    ______ ____
ROOT
ATOM      1  O   UNL     1       2.728   8.832  17.847  0.00  0.00    +0.000 OA
ATOM      2  C   UNL     1       2.014   8.473  18.774  0.00  0.00    +0.000 C 
ATOM      3  N   UNL     1       1.013   9.234  19.316  0.00  0.00    +0.000 N 
ATOM      4  N   UNL     1       2.102   7.248  19.379  0.00  0.00    +0.000 N 
ATOM      5  H   UNL     1       0.449   8.857  20.061  0.00  0.00    +0.000 HD
ATOM      6  H   UNL     1       1.646   7.159  20.271  0.00  0.00    +0.000 HD
ENDROOT
BRANCH   4   7
ATOM      7  C   UNL     1       3.124   6.261  19.032  0.00  0.00    +0.000 C 
ATOM      8  C   UNL     1       2.792   5.600  17.689  0.00  0.00    +0.000 C 
ATOM      9  C   UNL     1       1.549   4.711  17.768  0.00  0.00    +0.000 C 
ATOM     10  C   UNL     1       1.638   3.723  18.907  0.00  0.00    +0.000 C 
ATOM     11  C   UNL     1       2.025   4.320  20.242  0.00  0.00    +0.000 C 
ATOM     12  C   UNL     1       3.280   5.184  20.117  0.00  0.00    +0.000 C 
ATOM     13  C   UNL     1       0.627   2.585  18.916  0.00  0.00    +0.000 C 
ATOM     14  C   UNL     1       2.052   2.321  18.610  0.00  0.00    +0.000 C 
ATOM     15  F   UNL     1       2.429   1.949  17.340  0.00  0.00    +0.000 F 
ATOM     16  F   UNL     1       2.824   1.604  19.494  0.00  0.00    +0.000 F 
ENDBRANCH   4   7
BRANCH   3  17
ATOM     17  C   UNL     1       0.685  10.553  18.827  0.00  0.00    +0.000 C 
BRANCH  17  18
ATOM     18  C   UNL     1      -0.766  10.669  18.425  0.00  0.00    +0.000 A 
ATOM     19  C   UNL     1      -1.287   9.897  17.378  0.00  0.00    +0.000 A 
ATOM     20  C   UNL     1      -2.643   9.970  17.061  0.00  0.00    +0.000 A 
ATOM     21  C   UNL     1      -3.492  10.803  17.790  0.00  0.00    +0.000 A 
ATOM     22  C   UNL     1      -3.014  11.586  18.857  0.00  0.00    +0.000 A 
ATOM     23  C   UNL     1      -1.635  11.508  19.144  0.00  0.00    +0.000 A 
BRANCH  22  24
ATOM     24  C   UNL     1      -3.924  12.416  19.678  0.00  0.00    +0.000 A 
ATOM     25  C   UNL     1      -5.317  12.374  19.534  0.00  0.00    +0.000 A 
ATOM     26  C   UNL     1      -6.139  13.203  20.301  0.00  0.00    +0.000 A 
ATOM     27  C   UNL     1      -5.544  14.058  21.210  0.00  0.00    +0.000 A 
ATOM     28  N   UNL     1      -4.216  14.135  21.400  0.00  0.00    +0.000 NA
ATOM     29  C   UNL     1      -3.447  13.322  20.630  0.00  0.00    +0.000 A 
ENDBRANCH  22  24
ENDBRANCH  17  18
ENDBRANCH   3  17
TORSDOF 4
ENDMDL
MODEL 6
REMARK VINA RESULT:      -8.2      6.090      9.021
REMARK  Name = 
REMARK  4 active torsions:
REMARK  status: ('A' for Active; 'I' for Inactive)
REMARK    1  A    between atoms: N_3  and  C_4
REMARK    2  A    between atoms: C_4  and  C_5
REMARK    3  A    between atoms: C_9  and  C_10
REMARK    4  A    between atoms: N_17  and  C_18
REMARK                            x       y       z     vdW  Elec       q    Type
REMARK                         _______ _______ _______ _____ _____    ______ ____
ROOT
ATOM      1  O   UNL     1       7.729   6.723  16.369  0.00  0.00    +0.000 OA
ATOM      2  C   UNL     1       7.156   7.218  17.330  0.00  0.00    +0.000 C 
ATOM      3  N   UNL     1       7.478   8.429  17.881  0.00  0.00    +0.000 N 
ATOM      4  N   UNL     1       6.094   6.637  17.972  0.00  0.00    +0.000 N 
ATOM      5  H   UNL     1       6.940   8.782  18.656  0.00  0.00    +0.000 HD
ATOM      6  H   UNL     1       5.870   7.005  18.881  0.00  0.00    +0.000 HD
ENDROOT
BRANCH   4   7
ATOM      7  C   UNL     1       5.582   5.313  17.623  0.00  0.00    +0.000 C 
ATOM      8  C   UNL     1       4.225   5.436  16.918  0.00  0.00    +0.000 C 
ATOM      9  C   UNL     1       3.123   5.932  17.857  0.00  0.00    +0.000 C 
ATOM     10  C   UNL     1       3.059   5.116  19.127  0.00  0.00    +0.000 C 
ATOM     11  C   UNL     1       4.385   4.915  19.826  0.00  0.00    +0.000 C 
ATOM     12  C   UNL     1       5.448   4.402  18.853  0.00  0.00    +0.000 C 
ATOM     13  C   UNL     1       1.827   5.296  20.003  0.00  0.00    +0.000 C 
ATOM     14  C   UNL     1       2.028   4.043  19.239  0.00  0.00    +0.000 C 
ATOM     15  F   UNL     1       1.205   3.741  18.179  0.00  0.00    +0.000 F 
ATOM     16  F   UNL     1       2.293   2.869  19.902  0.00  0.00    +0.000 F 
ENDBRANCH   4   7
BRANCH   3  17
ATOM     17  C   UNL     1       8.536   9.265  17.360  0.00  0.00    +0.000 C 
BRANCH  17  18
ATOM     18  C   UNL     1       8.923  10.362  18.323  0.00  0.00    +0.000 A 
ATOM     19  C   UNL     1       9.192  10.079  19.668  0.00  0.00    +0.000 A 
ATOM     20  C   UNL     1       9.609  11.093  20.529  0.00  0.00    +0.000 A 
ATOM     21  C   UNL     1       9.772  12.396  20.054  0.00  0.00    +0.000 A 
ATOM     22  C   UNL     1       9.526  12.723  18.708  0.00  0.00    +0.000 A 
ATOM     23  C   UNL     1       9.086  11.682  17.863  0.00  0.00    +0.000 A 
BRANCH  22  24
ATOM     24  C   UNL     1       9.766  14.086  18.185  0.00  0.00    +0.000 A 
ATOM     25  C   UNL     1       8.867  15.141  18.393  0.00  0.00    +0.000 A 
ATOM     26  C   UNL     1       9.113  16.404  17.848  0.00  0.00    +0.000 A 
ATOM     27  C   UNL     1      10.266  16.588  17.109  0.00  0.00    +0.000 A 
ATOM     28  N   UNL     1      11.169  15.619  16.887  0.00  0.00    +0.000 NA
ATOM     29  C   UNL     1      10.895  14.401  17.422  0.00  0.00    +0.000 A 
ENDBRANCH  22  24
ENDBRANCH  17  18
ENDBRANCH   3  17
TORSDOF 4
ENDMDL
MODEL 7
REMARK VINA RESULT:      -8.0      4.476      9.200
REMARK  Name = 
REMARK  4 active torsions:
REMARK  status: ('A' for Active; 'I' for Inactive)
REMARK    1  A    between atoms: N_3  and  C_4
REMARK    2  A    between atoms: C_4  and  C_5
REMARK    3  A    between atoms: C_9  and  C_10
REMARK    4  A    between atoms: N_17  and  C_18
REMARK                            x       y       z     vdW  Elec       q    Type
REMARK                         _______ _______ _______ _____ _____    ______ ____
ROOT
ATOM      1  O   UNL     1       1.360  10.162  19.025  0.00  0.00    +0.000 OA
ATOM      2  C   UNL     1       0.384   9.722  19.619  0.00  0.00    +0.000 C 
ATOM      3  N   UNL     1       0.440   8.756  20.587  0.00  0.00    +0.000 N 
ATOM      4  N   UNL     1      -0.898  10.158  19.413  0.00  0.00    +0.000 N 
ATOM      5  H   UNL     1      -0.406   8.466  21.050  0.00  0.00    +0.000 HD
ATOM      6  H   UNL     1      -1.631   9.565  19.766  0.00  0.00    +0.000 HD
ENDROOT
BRANCH   4   7
ATOM      7  C   UNL     1      -1.248  11.145  18.393  0.00  0.00    +0.000 C 
ATOM      8  C   UNL     1      -2.111  12.258  19.002  0.00  0.00    +0.000 C 
ATOM      9  C   UNL     1      -3.499  11.761  19.411  0.00  0.00    +0.000 C 
ATOM     10  C   UNL     1      -4.188  11.030  18.283  0.00  0.00    +0.000 C 
ATOM     11  C   UNL     1      -3.354   9.964  17.608  0.00  0.00    +0.000 C 
ATOM     12  C   UNL     1      -1.984  10.511  17.203  0.00  0.00    +0.000 C 
ATOM     13  C   UNL     1      -5.677  10.756  18.444  0.00  0.00    +0.000 C 
ATOM     14  C   UNL     1      -5.200  11.762  17.466  0.00  0.00    +0.000 C 
ATOM     15  F   UNL     1      -5.445  13.099  17.676  0.00  0.00    +0.000 F 
ATOM     16  F   UNL     1      -5.331  11.526  16.118  0.00  0.00    +0.000 F 
ENDBRANCH   4   7
BRANCH   3  17
ATOM     17  C   UNL     1       1.683   8.161  21.022  0.00  0.00    +0.000 C 
BRANCH  17  18
ATOM     18  C   UNL     1       1.943   6.831  20.358  0.00  0.00    +0.000 A 
ATOM     19  C   UNL     1       1.231   5.685  20.735  0.00  0.00    +0.000 A 
ATOM     20  C   UNL     1       1.439   4.478  20.069  0.00  0.00    +0.000 A 
ATOM     21  C   UNL     1       2.350   4.405  19.013  0.00  0.00    +0.000 A 
ATOM     22  C   UNL     1       3.077   5.534  18.592  0.00  0.00    +0.000 A 
ATOM     23  C   UNL     1       2.862   6.737  19.297  0.00  0.00    +0.000 A 
BRANCH  22  24
ATOM     24  C   UNL     1       3.991   5.477  17.429  0.00  0.00    +0.000 A 
ATOM     25  C   UNL     1       4.354   4.271  16.816  0.00  0.00    +0.000 A 
ATOM     26  C   UNL     1       5.251   4.259  15.745  0.00  0.00    +0.000 A 
ATOM     27  C   UNL     1       5.762   5.464  15.301  0.00  0.00    +0.000 A 
ATOM     28  N   UNL     1       5.441   6.651  15.841  0.00  0.00    +0.000 NA
ATOM     29  C   UNL     1       4.575   6.626  16.888  0.00  0.00    +0.000 A 
ENDBRANCH  22  24
ENDBRANCH  17  18
ENDBRANCH   3  17
TORSDOF 4
ENDMDL
MODEL 8
REMARK VINA RESULT:      -8.0      5.366      9.955
REMARK  Name = 
REMARK  4 active torsions:
REMARK  status: ('A' for Active; 'I' for Inactive)
REMARK    1  A    between atoms: N_3  and  C_4
REMARK    2  A    between atoms: C_4  and  C_5
REMARK    3  A    between atoms: C_9  and  C_10
REMARK    4  A    between atoms: N_17  and  C_18
REMARK                            x       y       z     vdW  Elec       q    Type
REMARK                         _______ _______ _______ _____ _____    ______ ____
ROOT
ATOM      1  O   UNL     1       1.541  12.382  18.555  0.00  0.00    +0.000 OA
ATOM      2  C   UNL     1       0.834  11.522  19.064  0.00  0.00    +0.000 C 
ATOM      3  N   UNL     1       0.915  10.187  18.774  0.00  0.00    +0.000 N 
ATOM      4  N   UNL     1      -0.119  11.776  20.014  0.00  0.00    +0.000 N 
ATOM      5  H   UNL     1       0.316   9.536  19.256  0.00  0.00    +0.000 HD
ATOM      6  H   UNL     1      -0.794  11.047  20.172  0.00  0.00    +0.000 HD
ENDROOT
BRANCH   4   7
ATOM      7  C   UNL     1      -0.451  13.127  20.465  0.00  0.00    +0.000 C 
ATOM      8  C   UNL     1      -0.072  13.304  21.940  0.00  0.00    +0.000 C 
ATOM      9  C   UNL     1      -0.948  12.466  22.873  0.00  0.00    +0.000 C 
ATOM     10  C   UNL     1      -2.419  12.688  22.610  0.00  0.00    +0.000 C 
ATOM     11  C   UNL     1      -2.832  12.584  21.159  0.00  0.00    +0.000 C 
ATOM     12  C   UNL     1      -1.940  13.452  20.269  0.00  0.00    +0.000 C 
ATOM     13  C   UNL     1      -3.395  12.163  23.654  0.00  0.00    +0.000 C 
ATOM     14  C   UNL     1      -3.174  13.620  23.498  0.00  0.00    +0.000 C 
ATOM     15  F   UNL     1      -2.532  14.330  24.485  0.00  0.00    +0.000 F 
ATOM     16  F   UNL     1      -4.177  14.418  23.003  0.00  0.00    +0.000 F 
ENDBRANCH   4   7
BRANCH   3  17
ATOM     17  C   UNL     1       1.872   9.650  17.834  0.00  0.00    +0.000 C 
BRANCH  17  18
ATOM     18  C   UNL     1       2.443   8.329  18.291  0.00  0.00    +0.000 A 
ATOM     19  C   UNL     1       1.931   7.674  19.418  0.00  0.00    +0.000 A 
ATOM     20  C   UNL     1       2.427   6.426  19.791  0.00  0.00    +0.000 A 
ATOM     21  C   UNL     1       3.431   5.815  19.037  0.00  0.00    +0.000 A 
ATOM     22  C   UNL     1       3.965   6.430  17.890  0.00  0.00    +0.000 A 
ATOM     23  C   UNL     1       3.459   7.702  17.547  0.00  0.00    +0.000 A 
BRANCH  22  24
ATOM     24  C   UNL     1       4.978   5.754  17.049  0.00  0.00    +0.000 A 
ATOM     25  C   UNL     1       4.779   4.475  16.513  0.00  0.00    +0.000 A 
ATOM     26  C   UNL     1       5.777   3.856  15.756  0.00  0.00    +0.000 A 
ATOM     27  C   UNL     1       6.959   4.541  15.542  0.00  0.00    +0.000 A 
ATOM     28  N   UNL     1       7.202   5.772  16.020  0.00  0.00    +0.000 NA
ATOM     29  C   UNL     1       6.215   6.340  16.761  0.00  0.00    +0.000 A 
ENDBRANCH  22  24
ENDBRANCH  17  18
ENDBRANCH   3  17
TORSDOF 4
ENDMDL
MODEL 9
REMARK VINA RESULT:      -7.9      2.720      3.857
REMARK  Name = 
REMARK  4 active torsions:
REMARK  status: ('A' for Active; 'I' for Inactive)
REMARK    1  A    between atoms: N_3  and  C_4
REMARK    2  A    between atoms: C_4  and  C_5
REMARK    3  A    between atoms: C_9  and  C_10
REMARK    4  A    between atoms: N_17  and  C_18
REMARK                            x       y       z     vdW  Elec       q    Type
REMARK                         _______ _______ _______ _____ _____    ______ ____
ROOT
ATOM      1  O   UNL     1       2.949   8.503  17.743  0.00  0.00    +0.000 OA
ATOM      2  C   UNL     1       2.222   8.249  18.694  0.00  0.00    +0.000 C 
ATOM      3  N   UNL     1       1.254   9.090  19.173  0.00  0.00    +0.000 N 
ATOM      4  N   UNL     1       2.261   7.073  19.396  0.00  0.00    +0.000 N 
ATOM      5  H   UNL     1       0.676   8.798  19.944  0.00  0.00    +0.000 HD
ATOM      6  H   UNL     1       1.803   7.075  20.292  0.00  0.00    +0.000 HD
ENDROOT
BRANCH   4   7
ATOM      7  C   UNL     1       3.242   6.021  19.130  0.00  0.00    +0.000 C 
ATOM      8  C   UNL     1       2.981   5.384  17.760  0.00  0.00    +0.000 C 
ATOM      9  C   UNL     1       1.680   4.579  17.729  0.00  0.00    +0.000 C 
ATOM     10  C   UNL     1       1.607   3.588  18.866  0.00  0.00    +0.000 C 
ATOM     11  C   UNL     1       1.918   4.157  20.232  0.00  0.00    +0.000 C 
ATOM     12  C   UNL     1       3.233   4.936  20.218  0.00  0.00    +0.000 C 
ATOM     13  C   UNL     1       0.526   2.519  18.782  0.00  0.00    +0.000 C 
ATOM     14  C   UNL     1       1.952   2.160  18.596  0.00  0.00    +0.000 C 
ATOM     15  F   UNL     1       2.409   1.765  17.360  0.00  0.00    +0.000 F 
ATOM     16  F   UNL     1       2.597   1.394  19.538  0.00  0.00    +0.000 F 
ENDBRANCH   4   7
BRANCH   3  17
ATOM     17  C   UNL     1       0.979  10.379  18.578  0.00  0.00    +0.000 C 
BRANCH  17  18
ATOM     18  C   UNL     1      -0.097  11.133  19.322  0.00  0.00    +0.000 A 
ATOM     19  C   UNL     1       0.208  11.888  20.461  0.00  0.00    +0.000 A 
ATOM     20  C   UNL     1      -0.786  12.628  21.099  0.00  0.00    +0.000 A 
ATOM     21  C   UNL     1      -2.090  12.632  20.601  0.00  0.00    +0.000 A 
ATOM     22  C   UNL     1      -2.438  11.899  19.452  0.00  0.00    +0.000 A 
ATOM     23  C   UNL     1      -1.418  11.142  18.837  0.00  0.00    +0.000 A 
BRANCH  22  24
ATOM     24  C   UNL     1      -3.802  11.956  18.880  0.00  0.00    +0.000 A 
ATOM     25  C   UNL     1      -4.910  12.394  19.617  0.00  0.00    +0.000 A 
ATOM     26  C   UNL     1      -6.187  12.395  19.051  0.00  0.00    +0.000 A 
ATOM     27  C   UNL     1      -6.328  11.963  17.746  0.00  0.00    +0.000 A 
ATOM     28  N   UNL     1      -5.303  11.544  16.987  0.00  0.00    +0.000 NA
ATOM     29  C   UNL     1      -4.076  11.545  17.571  0.00  0.00    +0.000 A 
ENDBRANCH  22  24
ENDBRANCH  17  18
ENDBRANCH   3  17
TORSDOF 4
ENDMDL
