MODEL 1
REMARK VINA RESULT:      -9.4      0.000      0.000
REMARK  Name = 
REMARK  7 active torsions:
REMARK  status: ('A' for Active; 'I' for Inactive)
REMARK    1  A    between atoms: C_1  and  N_2
REMARK    2  A    between atoms: C_6  and  C_7
REMARK    3  A    between atoms: C_7  and  C_8
REMARK    4  A    between atoms: C_8  and  C_9
REMARK    5  A    between atoms: C_13  and  N_14
REMARK    6  A    between atoms: C_19  and  C_20
REMARK    7  A    between atoms: C_23  and  C_24
REMARK                            x       y       z     vdW  Elec       q    Type
REMARK                         _______ _______ _______ _____ _____    ______ ____
ROOT
ATOM      1  N   UNL     1       2.221   7.338  19.479  0.00  0.00    +0.000 N 
ATOM      2  C   UNL     1       1.542   7.717  20.711  0.00  0.00    +0.000 C 
ATOM      3  C   UNL     1       0.959   9.058  20.385  0.00  0.00    +0.000 A 
ATOM      4  C   UNL     1       1.266   9.387  19.067  0.00  0.00    +0.000 A 
ATOM      5  C   UNL     1       0.855  10.556  18.456  0.00  0.00    +0.000 A 
ATOM      6  C   UNL     1       0.091  11.439  19.219  0.00  0.00    +0.000 A 
ATOM      7  C   UNL     1      -0.221  11.132  20.563  0.00  0.00    +0.000 A 
ATOM      8  C   UNL     1       0.212   9.932  21.169  0.00  0.00    +0.000 A 
ATOM      9  C   UNL     1       2.073   8.309  18.489  0.00  0.00    +0.000 C 
ATOM     10  O   UNL     1       2.487   8.355  17.348  0.00  0.00    +0.000 OA
ENDROOT
BRANCH   1  15
ATOM     11  C   UNL     1       4.685   4.800  18.264  0.00  0.00    +0.000 A 
ATOM     12  C   UNL     1       4.350   3.757  19.117  0.00  0.00    +0.000 A 
ATOM     13  N   UNL     1       3.392   3.836  20.059  0.00  0.00    +0.000 NA
ATOM     14  C   UNL     1       2.735   5.022  20.167  0.00  0.00    +0.000 A 
ATOM     15  C   UNL     1       2.960   6.133  19.354  0.00  0.00    +0.000 A 
ATOM     16  C   UNL     1       3.961   5.994  18.385  0.00  0.00    +0.000 A 
BRANCH  11  17
ATOM     17  C   UNL     1       5.794   4.658  17.256  0.00  0.00    +0.000 C 
BRANCH  17  18
ATOM     18  C   UNL     1       5.314   4.590  15.803  0.00  0.00    +0.000 C 
BRANCH  18  24
ATOM     19  C   UNL     1       5.544   3.484  12.888  0.00  0.00    +0.000 C 
ATOM     20  N   UNL     1       6.481   4.350  13.552  0.00  0.00    +0.000 N 
ATOM     21  C   UNL     1       7.642   4.820  13.023  0.00  0.00    +0.000 A 
ATOM     22  N   UNL     1       8.236   5.600  13.896  0.00  0.00    +0.000 NA
ATOM     23  N   UNL     1       7.459   5.624  15.028  0.00  0.00    +0.000 NA
ATOM     24  C   UNL     1       6.400   4.864  14.821  0.00  0.00    +0.000 A 
ENDBRANCH  18  24
ENDBRANCH  17  18
ENDBRANCH  11  17
ENDBRANCH   1  15
BRANCH   8  25
ATOM     25  C   UNL     1      -0.131   9.649  22.610  0.00  0.00    +0.000 C 
ATOM     26  F   UNL     1      -0.948   8.575  22.775  0.00  0.00    +0.000 F 
ATOM     27  F   UNL     1       0.977   9.398  23.359  0.00  0.00    +0.000 F 
ATOM     28  F   UNL     1      -0.761  10.697  23.205  0.00  0.00    +0.000 F 
ENDBRANCH   8  25
BRANCH   6  29
ATOM     29  C   UNL     1      -0.416  12.713  18.667  0.00  0.00    +0.000 C 
ATOM     30  N   UNL     1      -0.967  12.879  17.512  0.00  0.00    +0.000 NA
ATOM     31  H   UNL     1      -1.036  12.017  16.964  0.00  0.00    +0.000 HD
ENDBRANCH   6  29
TORSDOF 6
ENDMDL
MODEL 2
REMARK VINA RESULT:      -9.3      1.443      2.123
REMARK  Name = 
REMARK  7 active torsions:
REMARK  status: ('A' for Active; 'I' for Inactive)
REMARK    1  A    between atoms: C_1  and  N_2
REMARK    2  A    between atoms: C_6  and  C_7
REMARK    3  A    between atoms: C_7  and  C_8
REMARK    4  A    between atoms: C_8  and  C_9
REMARK    5  A    between atoms: C_13  and  N_14
REMARK    6  A    between atoms: C_19  and  C_20
REMARK    7  A    between atoms: C_23  and  C_24
REMARK                            x       y       z     vdW  Elec       q    Type
REMARK                         _______ _______ _______ _____ _____    ______ ____
ROOT
ATOM      1  N   UNL     1       2.040   7.459  19.425  0.00  0.00    +0.000 N 
ATOM      2  C   UNL     1       1.369   7.805  20.671  0.00  0.00    +0.000 C 
ATOM      3  C   UNL     1       0.953   9.229  20.455  0.00  0.00    +0.000 A 
ATOM      4  C   UNL     1       1.339   9.634  19.180  0.00  0.00    +0.000 A 
ATOM      5  C   UNL     1       1.084  10.892  18.668  0.00  0.00    +0.000 A 
ATOM      6  C   UNL     1       0.401  11.787  19.490  0.00  0.00    +0.000 A 
ATOM      7  C   UNL     1       0.011  11.402  20.793  0.00  0.00    +0.000 A 
ATOM      8  C   UNL     1       0.284  10.111  21.298  0.00  0.00    +0.000 A 
ATOM      9  C   UNL     1       2.037   8.524  18.524  0.00  0.00    +0.000 C 
ATOM     10  O   UNL     1       2.491   8.622  17.402  0.00  0.00    +0.000 OA
ENDROOT
BRANCH   1  15
ATOM     11  C   UNL     1       3.920   4.656  17.814  0.00  0.00    +0.000 A 
ATOM     12  C   UNL     1       3.764   3.699  18.808  0.00  0.00    +0.000 A 
ATOM     13  N   UNL     1       3.103   3.917  19.960  0.00  0.00    +0.000 NA
ATOM     14  C   UNL     1       2.576   5.156  20.141  0.00  0.00    +0.000 A 
ATOM     15  C   UNL     1       2.641   6.193  19.208  0.00  0.00    +0.000 A 
ATOM     16  C   UNL     1       3.332   5.911  18.023  0.00  0.00    +0.000 A 
BRANCH  11  17
ATOM     17  C   UNL     1       4.704   4.360  16.563  0.00  0.00    +0.000 C 
BRANCH  17  18
ATOM     18  C   UNL     1       6.209   4.188  16.793  0.00  0.00    +0.000 C 
BRANCH  18  24
ATOM     19  C   UNL     1       6.990   5.388  19.573  0.00  0.00    +0.000 C 
ATOM     20  N   UNL     1       7.222   5.986  18.286  0.00  0.00    +0.000 N 
ATOM     21  C   UNL     1       7.807   7.193  18.064  0.00  0.00    +0.000 A 
ATOM     22  N   UNL     1       7.879   7.414  16.772  0.00  0.00    +0.000 NA
ATOM     23  N   UNL     1       7.307   6.340  16.135  0.00  0.00    +0.000 NA
ATOM     24  C   UNL     1       6.906   5.479  17.051  0.00  0.00    +0.000 A 
ENDBRANCH  18  24
ENDBRANCH  17  18
ENDBRANCH  11  17
ENDBRANCH   1  15
BRANCH   8  25
ATOM     25  C   UNL     1      -0.136   9.745  22.699  0.00  0.00    +0.000 C 
ATOM     26  F   UNL     1      -0.962   8.667  22.755  0.00  0.00    +0.000 F 
ATOM     27  F   UNL     1       0.929   9.446  23.491  0.00  0.00    +0.000 F 
ATOM     28  F   UNL     1      -0.797  10.758  23.319  0.00  0.00    +0.000 F 
ENDBRANCH   8  25
BRANCH   6  29
ATOM     29  C   UNL     1       0.060  13.155  19.045  0.00  0.00    +0.000 C 
ATOM     30  N   UNL     1      -1.078  13.544  18.579  0.00  0.00    +0.000 NA
ATOM     31  H   UNL     1      -1.778  12.799  18.533  0.00  0.00    +0.000 HD
ENDBRANCH   6  29
TORSDOF 6
ENDMDL
MODEL 3
REMARK VINA RESULT:      -9.2      0.960      1.430
REMARK  Name = 
REMARK  7 active torsions:
REMARK  status: ('A' for Active; 'I' for Inactive)
REMARK    1  A    between atoms: C_1  and  N_2
REMARK    2  A    between atoms: C_6  and  C_7
REMARK    3  A    between atoms: C_7  and  C_8
REMARK    4  A    between atoms: C_8  and  C_9
REMARK    5  A    between atoms: C_13  and  N_14
REMARK    6  A    between atoms: C_19  and  C_20
REMARK    7  A    between atoms: C_23  and  C_24
REMARK                            x       y       z     vdW  Elec       q    Type
REMARK                         _______ _______ _______ _____ _____    ______ ____
ROOT
ATOM      1  N   UNL     1       2.210   7.384  19.552  0.00  0.00    +0.000 N 
ATOM      2  C   UNL     1       1.504   7.748  20.773  0.00  0.00    +0.000 C 
ATOM      3  C   UNL     1       0.893   9.074  20.436  0.00  0.00    +0.000 A 
ATOM      4  C   UNL     1       1.212   9.408  19.122  0.00  0.00    +0.000 A 
ATOM      5  C   UNL     1       0.782  10.566  18.503  0.00  0.00    +0.000 A 
ATOM      6  C   UNL     1      -0.015  11.431  19.252  0.00  0.00    +0.000 A 
ATOM      7  C   UNL     1      -0.340  11.119  20.591  0.00  0.00    +0.000 A 
ATOM      8  C   UNL     1       0.113   9.931  21.207  0.00  0.00    +0.000 A 
ATOM      9  C   UNL     1       2.054   8.350  18.558  0.00  0.00    +0.000 C 
ATOM     10  O   UNL     1       2.484   8.404  17.424  0.00  0.00    +0.000 OA
ENDROOT
BRANCH   1  15
ATOM     11  C   UNL     1       5.127   5.071  19.189  0.00  0.00    +0.000 A 
ATOM     12  C   UNL     1       4.440   3.865  19.187  0.00  0.00    +0.000 A 
ATOM     13  N   UNL     1       3.104   3.763  19.310  0.00  0.00    +0.000 NA
ATOM     14  C   UNL     1       2.410   4.923  19.451  0.00  0.00    +0.000 A 
ATOM     15  C   UNL     1       2.980   6.197  19.441  0.00  0.00    +0.000 A 
ATOM     16  C   UNL     1       4.373   6.247  19.302  0.00  0.00    +0.000 A 
BRANCH  11  17
ATOM     17  C   UNL     1       6.629   5.114  19.086  0.00  0.00    +0.000 C 
BRANCH  17  18
ATOM     18  C   UNL     1       7.153   5.998  17.949  0.00  0.00    +0.000 C 
BRANCH  18  24
ATOM     19  C   UNL     1       4.967   6.835  15.876  0.00  0.00    +0.000 C 
ATOM     20  N   UNL     1       5.940   5.787  15.720  0.00  0.00    +0.000 N 
ATOM     21  C   UNL     1       6.058   4.966  14.643  0.00  0.00    +0.000 A 
ATOM     22  N   UNL     1       7.064   4.144  14.827  0.00  0.00    +0.000 NA
ATOM     23  N   UNL     1       7.602   4.416  16.061  0.00  0.00    +0.000 NA
ATOM     24  C   UNL     1       6.919   5.407  16.602  0.00  0.00    +0.000 A 
ENDBRANCH  18  24
ENDBRANCH  17  18
ENDBRANCH  11  17
ENDBRANCH   1  15
BRANCH   8  25
ATOM     25  C   UNL     1      -0.244   9.642  22.643  0.00  0.00    +0.000 C 
ATOM     26  F   UNL     1      -0.977   8.509  22.804  0.00  0.00    +0.000 F 
ATOM     27  F   UNL     1       0.859   9.492  23.424  0.00  0.00    +0.000 F 
ATOM     28  F   UNL     1      -0.973  10.644  23.203  0.00  0.00    +0.000 F 
ENDBRANCH   8  25
BRANCH   6  29
ATOM     29  C   UNL     1      -0.544  12.692  18.690  0.00  0.00    +0.000 C 
ATOM     30  N   UNL     1      -1.116  12.835  17.543  0.00  0.00    +0.000 NA
ATOM     31  H   UNL     1      -1.187  11.964  17.009  0.00  0.00    +0.000 HD
ENDBRANCH   6  29
TORSDOF 6
ENDMDL
MODEL 4
REMARK VINA RESULT:      -9.1      1.734      2.450
REMARK  Name = 
REMARK  7 active torsions:
REMARK  status: ('A' for Active; 'I' for Inactive)
REMARK    1  A    between atoms: C_1  and  N_2
REMARK    2  A    between atoms: C_6  and  C_7
REMARK    3  A    between atoms: C_7  and  C_8
REMARK    4  A    between atoms: C_8  and  C_9
REMARK    5  A    between atoms: C_13  and  N_14
REMARK    6  A    between atoms: C_19  and  C_20
REMARK    7  A    between atoms: C_23  and  C_24
REMARK                            x       y       z     vdW  Elec       q    Type
REMARK                         _______ _______ _______ _____ _____    ______ ____
ROOT
ATOM      1  N   UNL     1       2.001   7.519  19.424  0.00  0.00    +0.000 N 
ATOM      2  C   UNL     1       1.343   7.844  20.682  0.00  0.00    +0.000 C 
ATOM      3  C   UNL     1       0.881   9.254  20.477  0.00  0.00    +0.000 A 
ATOM      4  C   UNL     1       1.230   9.672  19.195  0.00  0.00    +0.000 A 
ATOM      5  C   UNL     1       0.928  10.922  18.691  0.00  0.00    +0.000 A 
ATOM      6  C   UNL     1       0.234  11.796  19.527  0.00  0.00    +0.000 A 
ATOM      7  C   UNL     1      -0.119  11.398  20.836  0.00  0.00    +0.000 A 
ATOM      8  C   UNL     1       0.202  10.115  21.334  0.00  0.00    +0.000 A 
ATOM      9  C   UNL     1       1.948   8.584  18.525  0.00  0.00    +0.000 C 
ATOM     10  O   UNL     1       2.378   8.697  17.395  0.00  0.00    +0.000 OA
ENDROOT
BRANCH   1  15
ATOM     11  C   UNL     1       3.961   4.787  17.786  0.00  0.00    +0.000 A 
ATOM     12  C   UNL     1       3.824   3.813  18.766  0.00  0.00    +0.000 A 
ATOM     13  N   UNL     1       3.152   3.998  19.918  0.00  0.00    +0.000 NA
ATOM     14  C   UNL     1       2.592   5.221  20.112  0.00  0.00    +0.000 A 
ATOM     15  C   UNL     1       2.636   6.271  19.193  0.00  0.00    +0.000 A 
ATOM     16  C   UNL     1       3.339   6.024  18.009  0.00  0.00    +0.000 A 
BRANCH  11  17
ATOM     17  C   UNL     1       4.759   4.529  16.535  0.00  0.00    +0.000 C 
BRANCH  17  18
ATOM     18  C   UNL     1       5.932   5.493  16.331  0.00  0.00    +0.000 C 
BRANCH  18  24
ATOM     19  C   UNL     1       7.334   8.032  17.497  0.00  0.00    +0.000 C 
ATOM     20  N   UNL     1       7.453   6.686  17.989  0.00  0.00    +0.000 N 
ATOM     21  C   UNL     1       8.218   6.288  19.040  0.00  0.00    +0.000 A 
ATOM     22  N   UNL     1       8.071   4.997  19.225  0.00  0.00    +0.000 NA
ATOM     23  N   UNL     1       7.210   4.535  18.260  0.00  0.00    +0.000 NA
ATOM     24  C   UNL     1       6.840   5.556  17.510  0.00  0.00    +0.000 A 
ENDBRANCH  18  24
ENDBRANCH  17  18
ENDBRANCH  11  17
ENDBRANCH   1  15
BRANCH   8  25
ATOM     25  C   UNL     1      -0.180   9.735  22.742  0.00  0.00    +0.000 C 
ATOM     26  F   UNL     1       0.886   9.452  23.538  0.00  0.00    +0.000 F 
ATOM     27  F   UNL     1      -0.868  10.726  23.371  0.00  0.00    +0.000 F 
ATOM     28  F   UNL     1      -0.979   8.635  22.779  0.00  0.00    +0.000 F 
ENDBRANCH   8  25
BRANCH   6  29
ATOM     29  C   UNL     1      -0.156  13.153  19.091  0.00  0.00    +0.000 C 
ATOM     30  N   UNL     1      -0.873  13.446  18.059  0.00  0.00    +0.000 NA
ATOM     31  H   UNL     1      -1.176  12.628  17.525  0.00  0.00    +0.000 HD
ENDBRANCH   6  29
TORSDOF 6
ENDMDL
MODEL 5
REMARK VINA RESULT:      -9.0      2.986      8.338
REMARK  Name = 
REMARK  7 active torsions:
REMARK  status: ('A' for Active; 'I' for Inactive)
REMARK    1  A    between atoms: C_1  and  N_2
REMARK    2  A    between atoms: C_6  and  C_7
REMARK    3  A    between atoms: C_7  and  C_8
REMARK    4  A    between atoms: C_8  and  C_9
REMARK    5  A    between atoms: C_13  and  N_14
REMARK    6  A    between atoms: C_19  and  C_20
REMARK    7  A    between atoms: C_23  and  C_24
REMARK                            x       y       z     vdW  Elec       q    Type
REMARK                         _______ _______ _______ _____ _____    ______ ____
ROOT
ATOM      1  N   UNL     1       1.649   7.984  19.872  0.00  0.00    +0.000 N 
ATOM      2  C   UNL     1       1.561   6.702  20.558  0.00  0.00    +0.000 C 
ATOM      3  C   UNL     1       2.357   5.786  19.679  0.00  0.00    +0.000 A 
ATOM      4  C   UNL     1       2.869   6.507  18.604  0.00  0.00    +0.000 A 
ATOM      5  C   UNL     1       3.665   5.951  17.620  0.00  0.00    +0.000 A 
ATOM      6  C   UNL     1       3.958   4.592  17.731  0.00  0.00    +0.000 A 
ATOM      7  C   UNL     1       3.438   3.837  18.806  0.00  0.00    +0.000 A 
ATOM      8  C   UNL     1       2.624   4.425  19.800  0.00  0.00    +0.000 A 
ATOM      9  C   UNL     1       2.419   7.897  18.712  0.00  0.00    +0.000 C 
ATOM     10  O   UNL     1       2.716   8.737  17.887  0.00  0.00    +0.000 OA
ENDROOT
BRANCH   1  15
ATOM     11  C   UNL     1      -0.389  11.119  19.948  0.00  0.00    +0.000 A 
ATOM     12  C   UNL     1      -0.249  11.429  21.294  0.00  0.00    +0.000 A 
ATOM     13  N   UNL     1       0.450  10.680  22.167  0.00  0.00    +0.000 NA
ATOM     14  C   UNL     1       1.034   9.554  21.679  0.00  0.00    +0.000 A 
ATOM     15  C   UNL     1       0.989   9.148  20.344  0.00  0.00    +0.000 A 
ATOM     16  C   UNL     1       0.257   9.968  19.476  0.00  0.00    +0.000 A 
BRANCH  11  17
ATOM     17  C   UNL     1      -1.217  11.980  19.031  0.00  0.00    +0.000 C 
BRANCH  17  18
ATOM     18  C   UNL     1      -2.640  11.461  18.800  0.00  0.00    +0.000 C 
BRANCH  18  24
ATOM     19  C   UNL     1      -5.224  11.957  17.113  0.00  0.00    +0.000 C 
ATOM     20  N   UNL     1      -4.037  11.271  16.680  0.00  0.00    +0.000 N 
ATOM     21  C   UNL     1      -3.848  10.702  15.459  0.00  0.00    +0.000 A 
ATOM     22  N   UNL     1      -2.644  10.184  15.399  0.00  0.00    +0.000 NA
ATOM     23  N   UNL     1      -2.039  10.398  16.614  0.00  0.00    +0.000 NA
ATOM     24  C   UNL     1      -2.884  11.051  17.389  0.00  0.00    +0.000 A 
ENDBRANCH  18  24
ENDBRANCH  17  18
ENDBRANCH  11  17
ENDBRANCH   1  15
BRANCH   8  25
ATOM     25  C   UNL     1       2.077   3.581  20.923  0.00  0.00    +0.000 C 
ATOM     26  F   UNL     1       2.513   2.294  20.899  0.00  0.00    +0.000 F 
ATOM     27  F   UNL     1       2.418   4.072  22.145  0.00  0.00    +0.000 F 
ATOM     28  F   UNL     1       0.719   3.518  20.905  0.00  0.00    +0.000 F 
ENDBRANCH   8  25
BRANCH   6  29
ATOM     29  C   UNL     1       4.810   3.893  16.746  0.00  0.00    +0.000 C 
ATOM     30  N   UNL     1       5.128   4.322  15.572  0.00  0.00    +0.000 NA
ATOM     31  H   UNL     1       4.729   5.237  15.348  0.00  0.00    +0.000 HD
ENDBRANCH   6  29
TORSDOF 6
ENDMDL
MODEL 6
REMARK VINA RESULT:      -8.9      2.944      8.546
REMARK  Name = 
REMARK  7 active torsions:
REMARK  status: ('A' for Active; 'I' for Inactive)
REMARK    1  A    between atoms: C_1  and  N_2
REMARK    2  A    between atoms: C_6  and  C_7
REMARK    3  A    between atoms: C_7  and  C_8
REMARK    4  A    between atoms: C_8  and  C_9
REMARK    5  A    between atoms: C_13  and  N_14
REMARK    6  A    between atoms: C_19  and  C_20
REMARK    7  A    between atoms: C_23  and  C_24
REMARK                            x       y       z     vdW  Elec       q    Type
REMARK                         _______ _______ _______ _____ _____    ______ ____
ROOT
ATOM      1  N   UNL     1       1.610   8.020  20.118  0.00  0.00    +0.000 N 
ATOM      2  C   UNL     1       1.574   6.701  20.737  0.00  0.00    +0.000 C 
ATOM      3  C   UNL     1       2.322   5.843  19.763  0.00  0.00    +0.000 A 
ATOM      4  C   UNL     1       2.763   6.627  18.701  0.00  0.00    +0.000 A 
ATOM      5  C   UNL     1       3.501   6.132  17.642  0.00  0.00    +0.000 A 
ATOM      6  C   UNL     1       3.812   4.773  17.661  0.00  0.00    +0.000 A 
ATOM      7  C   UNL     1       3.363   3.956  18.723  0.00  0.00    +0.000 A 
ATOM      8  C   UNL     1       2.606   4.480  19.795  0.00  0.00    +0.000 A 
ATOM      9  C   UNL     1       2.309   8.004  18.911  0.00  0.00    +0.000 C 
ATOM     10  O   UNL     1       2.549   8.890  18.117  0.00  0.00    +0.000 OA
ENDROOT
BRANCH   1  15
ATOM     11  C   UNL     1      -0.233  11.256  20.460  0.00  0.00    +0.000 A 
ATOM     12  C   UNL     1      -0.230  11.355  21.845  0.00  0.00    +0.000 A 
ATOM     13  N   UNL     1       0.317  10.435  22.661  0.00  0.00    +0.000 NA
ATOM     14  C   UNL     1       0.886   9.351  22.070  0.00  0.00    +0.000 A 
ATOM     15  C   UNL     1       0.971   9.150  20.691  0.00  0.00    +0.000 A 
ATOM     16  C   UNL     1       0.394  10.141  19.888  0.00  0.00    +0.000 A 
BRANCH  11  17
ATOM     17  C   UNL     1      -0.897  12.303  19.604  0.00  0.00    +0.000 C 
BRANCH  17  18
ATOM     18  C   UNL     1      -1.285  11.813  18.206  0.00  0.00    +0.000 C 
BRANCH  18  24
ATOM     19  C   UNL     1      -2.800  10.898  15.629  0.00  0.00    +0.000 C 
ATOM     20  N   UNL     1      -3.391  11.229  16.898  0.00  0.00    +0.000 N 
ATOM     21  C   UNL     1      -4.720  11.218  17.184  0.00  0.00    +0.000 A 
ATOM     22  N   UNL     1      -4.901  11.551  18.440  0.00  0.00    +0.000 NA
ATOM     23  N   UNL     1      -3.665  11.808  18.983  0.00  0.00    +0.000 NA
ATOM     24  C   UNL     1      -2.754  11.618  18.048  0.00  0.00    +0.000 A 
ENDBRANCH  18  24
ENDBRANCH  17  18
ENDBRANCH  11  17
ENDBRANCH   1  15
BRANCH   8  25
ATOM     25  C   UNL     1       2.135   3.571  20.901  0.00  0.00    +0.000 C 
ATOM     26  F   UNL     1       2.617   2.304  20.807  0.00  0.00    +0.000 F 
ATOM     27  F   UNL     1       2.504   4.025  22.129  0.00  0.00    +0.000 F 
ATOM     28  F   UNL     1       0.780   3.457  20.931  0.00  0.00    +0.000 F 
ENDBRANCH   8  25
BRANCH   6  29
ATOM     29  C   UNL     1       4.608   4.137  16.590  0.00  0.00    +0.000 C 
ATOM     30  N   UNL     1       5.832   3.742  16.683  0.00  0.00    +0.000 NA
ATOM     31  H   UNL     1       6.247   3.906  17.604  0.00  0.00    +0.000 HD
ENDBRANCH   6  29
TORSDOF 6
ENDMDL
MODEL 7
REMARK VINA RESULT:      -8.8      2.471      4.262
REMARK  Name = 
REMARK  7 active torsions:
REMARK  status: ('A' for Active; 'I' for Inactive)
REMARK    1  A    between atoms: C_1  and  N_2
REMARK    2  A    between atoms: C_6  and  C_7
REMARK    3  A    between atoms: C_7  and  C_8
REMARK    4  A    between atoms: C_8  and  C_9
REMARK    5  A    between atoms: C_13  and  N_14
REMARK    6  A    between atoms: C_19  and  C_20
REMARK    7  A    between atoms: C_23  and  C_24
REMARK                            x       y       z     vdW  Elec       q    Type
REMARK                         _______ _______ _______ _____ _____    ______ ____
ROOT
ATOM      1  N   UNL     1       2.029   7.934  19.048  0.00  0.00    +0.000 N 
ATOM      2  C   UNL     1       1.468   8.068  20.386  0.00  0.00    +0.000 C 
ATOM      3  C   UNL     1       0.747   9.380  20.328  0.00  0.00    +0.000 A 
ATOM      4  C   UNL     1       0.874   9.920  19.051  0.00  0.00    +0.000 A 
ATOM      5  C   UNL     1       0.303  11.120  18.669  0.00  0.00    +0.000 A 
ATOM      6  C   UNL     1      -0.436  11.808  19.630  0.00  0.00    +0.000 A 
ATOM      7  C   UNL     1      -0.566  11.285  20.936  0.00  0.00    +0.000 A 
ATOM      8  C   UNL     1       0.027  10.058  21.307  0.00  0.00    +0.000 A 
ATOM      9  C   UNL     1       1.692   9.017  18.236  0.00  0.00    +0.000 C 
ATOM     10  O   UNL     1       1.967   9.264  17.080  0.00  0.00    +0.000 OA
ENDROOT
BRANCH   1  15
ATOM     11  C   UNL     1       3.091   4.585  17.767  0.00  0.00    +0.000 A 
ATOM     12  C   UNL     1       4.459   4.703  17.976  0.00  0.00    +0.000 A 
ATOM     13  N   UNL     1       5.046   5.800  18.489  0.00  0.00    +0.000 NA
ATOM     14  C   UNL     1       4.232   6.842  18.805  0.00  0.00    +0.000 A 
ATOM     15  C   UNL     1       2.843   6.836  18.667  0.00  0.00    +0.000 A 
ATOM     16  C   UNL     1       2.282   5.668  18.137  0.00  0.00    +0.000 A 
BRANCH  11  17
ATOM     17  C   UNL     1       2.500   3.343  17.153  0.00  0.00    +0.000 C 
BRANCH  17  18
ATOM     18  C   UNL     1       2.570   2.106  18.053  0.00  0.00    +0.000 C 
BRANCH  18  24
ATOM     19  C   UNL     1       4.516   2.143  20.500  0.00  0.00    +0.000 C 
ATOM     20  N   UNL     1       3.101   2.396  20.527  0.00  0.00    +0.000 N 
ATOM     21  C   UNL     1       2.364   2.677  21.635  0.00  0.00    +0.000 A 
ATOM     22  N   UNL     1       1.113   2.874  21.291  0.00  0.00    +0.000 NA
ATOM     23  N   UNL     1       1.023   2.696  19.932  0.00  0.00    +0.000 NA
ATOM     24  C   UNL     1       2.225   2.402  19.471  0.00  0.00    +0.000 A 
ENDBRANCH  18  24
ENDBRANCH  17  18
ENDBRANCH  11  17
ENDBRANCH   1  15
BRANCH   8  25
ATOM     25  C   UNL     1      -0.124   9.542  22.716  0.00  0.00    +0.000 C 
ATOM     26  F   UNL     1       1.060   9.273  23.327  0.00  0.00    +0.000 F 
ATOM     27  F   UNL     1      -0.769  10.430  23.520  0.00  0.00    +0.000 F 
ATOM     28  F   UNL     1      -0.844   8.390  22.767  0.00  0.00    +0.000 F 
ENDBRANCH   8  25
BRANCH   6  29
ATOM     29  C   UNL     1      -1.103  13.093  19.332  0.00  0.00    +0.000 C 
ATOM     30  N   UNL     1      -0.519  14.208  19.050  0.00  0.00    +0.000 NA
ATOM     31  H   UNL     1       0.503  14.146  19.045  0.00  0.00    +0.000 HD
ENDBRANCH   6  29
TORSDOF 6
ENDMDL
MODEL 8
REMARK VINA RESULT:      -8.7      3.378      9.671
REMARK  Name = 
REMARK  7 active torsions:
REMARK  status: ('A' for Active; 'I' for Inactive)
REMARK    1  A    between atoms: C_1  and  N_2
REMARK    2  A    between atoms: C_6  and  C_7
REMARK    3  A    between atoms: C_7  and  C_8
REMARK    4  A    between atoms: C_8  and  C_9
REMARK    5  A    between atoms: C_13  and  N_14
REMARK    6  A    between atoms: C_19  and  C_20
REMARK    7  A    between atoms: C_23  and  C_24
REMARK                            x       y       z     vdW  Elec       q    Type
REMARK                         _______ _______ _______ _____ _____    ______ ____
ROOT
ATOM      1  N   UNL     1       1.753   8.139  19.495  0.00  0.00    +0.000 N 
ATOM      2  C   UNL     1       1.655   6.918  20.283  0.00  0.00    +0.000 C 
ATOM      3  C   UNL     1       2.430   5.923  19.475  0.00  0.00    +0.000 A 
ATOM      4  C   UNL     1       2.941   6.547  18.340  0.00  0.00    +0.000 A 
ATOM      5  C   UNL     1       3.720   5.902  17.399  0.00  0.00    +0.000 A 
ATOM      6  C   UNL     1       3.996   4.553  17.617  0.00  0.00    +0.000 A 
ATOM      7  C   UNL     1       3.477   3.895  18.754  0.00  0.00    +0.000 A 
ATOM      8  C   UNL     1       2.681   4.573  19.704  0.00  0.00    +0.000 A 
ATOM      9  C   UNL     1       2.510   7.948  18.339  0.00  0.00    +0.000 C 
ATOM     10  O   UNL     1       2.810   8.714  17.446  0.00  0.00    +0.000 OA
ENDROOT
BRANCH   1  15
ATOM     11  C   UNL     1      -0.269  10.625  21.424  0.00  0.00    +0.000 A 
ATOM     12  C   UNL     1      -0.152  11.707  20.561  0.00  0.00    +0.000 A 
ATOM     13  N   UNL     1       0.548  11.676  19.412  0.00  0.00    +0.000 NA
ATOM     14  C   UNL     1       1.176  10.510  19.106  0.00  0.00    +0.000 A 
ATOM     15  C   UNL     1       1.113   9.347  19.876  0.00  0.00    +0.000 A 
ATOM     16  C   UNL     1       0.364   9.430  21.056  0.00  0.00    +0.000 A 
BRANCH  11  17
ATOM     17  C   UNL     1      -1.038  10.736  22.714  0.00  0.00    +0.000 C 
BRANCH  17  18
ATOM     18  C   UNL     1      -1.459  12.165  23.070  0.00  0.00    +0.000 C 
BRANCH  18  24
ATOM     19  C   UNL     1      -3.243  13.420  20.831  0.00  0.00    +0.000 C 
ATOM     20  N   UNL     1      -3.691  12.913  22.099  0.00  0.00    +0.000 N 
ATOM     21  C   UNL     1      -4.975  12.912  22.546  0.00  0.00    +0.000 A 
ATOM     22  N   UNL     1      -5.026  12.353  23.732  0.00  0.00    +0.000 NA
ATOM     23  N   UNL     1      -3.745  12.000  24.080  0.00  0.00    +0.000 NA
ATOM     24  C   UNL     1      -2.938  12.343  23.094  0.00  0.00    +0.000 A 
ENDBRANCH  18  24
ENDBRANCH  17  18
ENDBRANCH  11  17
ENDBRANCH   1  15
BRANCH   8  25
ATOM     25  C   UNL     1       2.133   3.831  20.897  0.00  0.00    +0.000 C 
ATOM     26  F   UNL     1       0.776   3.770  20.925  0.00  0.00    +0.000 F 
ATOM     27  F   UNL     1       2.569   2.543  20.942  0.00  0.00    +0.000 F 
ATOM     28  F   UNL     1       2.509   4.399  22.074  0.00  0.00    +0.000 F 
ENDBRANCH   8  25
BRANCH   6  29
ATOM     29  C   UNL     1       4.830   3.764  16.685  0.00  0.00    +0.000 C 
ATOM     30  N   UNL     1       6.098   3.900  16.494  0.00  0.00    +0.000 NA
ATOM     31  H   UNL     1       6.522   4.636  17.066  0.00  0.00    +0.000 HD
ENDBRANCH   6  29
TORSDOF 6
ENDMDL
MODEL 9
REMARK VINA RESULT:      -8.7      2.282      4.266
REMARK  Name = 
REMARK  7 active torsions:
REMARK  status: ('A' for Active; 'I' for Inactive)
REMARK    1  A    between atoms: C_1  and  N_2
REMARK    2  A    between atoms: C_6  and  C_7
REMARK    3  A    between atoms: C_7  and  C_8
REMARK    4  A    between atoms: C_8  and  C_9
REMARK    5  A    between atoms: C_13  and  N_14
REMARK    6  A    between atoms: C_19  and  C_20
REMARK    7  A    between atoms: C_23  and  C_24
REMARK                            x       y       z     vdW  Elec       q    Type
REMARK                         _______ _______ _______ _____ _____    ______ ____
ROOT
ATOM      1  N   UNL     1       2.136   8.153  18.837  0.00  0.00    +0.000 N 
ATOM      2  C   UNL     1       1.491   8.105  20.142  0.00  0.00    +0.000 C 
ATOM      3  C   UNL     1       0.826   9.443  20.248  0.00  0.00    +0.000 A 
ATOM      4  C   UNL     1       1.061  10.168  19.082  0.00  0.00    +0.000 A 
ATOM      5  C   UNL     1       0.564  11.439  18.860  0.00  0.00    +0.000 A 
ATOM      6  C   UNL     1      -0.212  12.005  19.871  0.00  0.00    +0.000 A 
ATOM      7  C   UNL     1      -0.451  11.293  21.068  0.00  0.00    +0.000 A 
ATOM      8  C   UNL     1       0.068   9.996  21.276  0.00  0.00    +0.000 A 
ATOM      9  C   UNL     1       1.897   9.364  18.187  0.00  0.00    +0.000 C 
ATOM     10  O   UNL     1       2.260   9.773  17.103  0.00  0.00    +0.000 OA
ENDROOT
BRANCH   1  15
ATOM     11  C   UNL     1       3.175   4.771  17.623  0.00  0.00    +0.000 A 
ATOM     12  C   UNL     1       4.521   5.030  17.404  0.00  0.00    +0.000 A 
ATOM     13  N   UNL     1       5.097   6.228  17.613  0.00  0.00    +0.000 NA
ATOM     14  C   UNL     1       4.290   7.229  18.056  0.00  0.00    +0.000 A 
ATOM     15  C   UNL     1       2.930   7.088  18.338  0.00  0.00    +0.000 A 
ATOM     16  C   UNL     1       2.383   5.819  18.112  0.00  0.00    +0.000 A 
BRANCH  11  17
ATOM     17  C   UNL     1       2.584   3.417  17.332  0.00  0.00    +0.000 C 
BRANCH  17  18
ATOM     18  C   UNL     1       3.140   2.290  18.209  0.00  0.00    +0.000 C 
BRANCH  18  24
ATOM     19  C   UNL     1       0.281   2.737  19.392  0.00  0.00    +0.000 C 
ATOM     20  N   UNL     1       1.511   2.653  20.133  0.00  0.00    +0.000 N 
ATOM     21  C   UNL     1       1.637   2.773  21.481  0.00  0.00    +0.000 A 
ATOM     22  N   UNL     1       2.896   2.621  21.819  0.00  0.00    +0.000 NA
ATOM     23  N   UNL     1       3.613   2.418  20.665  0.00  0.00    +0.000 NA
ATOM     24  C   UNL     1       2.776   2.442  19.646  0.00  0.00    +0.000 A 
ENDBRANCH  18  24
ENDBRANCH  17  18
ENDBRANCH  11  17
ENDBRANCH   1  15
BRANCH   8  25
ATOM     25  C   UNL     1      -0.199   9.276  22.574  0.00  0.00    +0.000 C 
ATOM     26  F   UNL     1      -0.901  10.015  23.472  0.00  0.00    +0.000 F 
ATOM     27  F   UNL     1      -0.912   8.132  22.387  0.00  0.00    +0.000 F 
ATOM     28  F   UNL     1       0.949   8.909  23.203  0.00  0.00    +0.000 F 
ENDBRANCH   8  25
BRANCH   6  29
ATOM     29  C   UNL     1      -0.806  13.352  19.739  0.00  0.00    +0.000 C 
ATOM     30  N   UNL     1      -0.786  14.095  18.685  0.00  0.00    +0.000 NA
ATOM     31  H   UNL     1      -0.301  13.667  17.891  0.00  0.00    +0.000 HD
ENDBRANCH   6  29
TORSDOF 6
ENDMDL
