MODEL 1
REMARK VINA RESULT:      -8.8      0.000      0.000
REMARK  Name = 
REMARK  3 active torsions:
REMARK  status: ('A' for Active; 'I' for Inactive)
REMARK    1  A    between atoms: C_4  and  C_5
REMARK    2  A    between atoms: N_7  and  C_8
REMARK    3  A    between atoms: C_8  and  C_9
REMARK                            x       y       z     vdW  Elec       q    Type
REMARK                         _______ _______ _______ _____ _____    ______ ____
ROOT
ATOM      1  C   UNL     1       2.378   4.729  18.720  0.00  0.00    +0.000 C 
ATOM      2  O   UNL     1       1.228   4.298  18.769  0.00  0.00    +0.000 OA
ATOM      3  N   UNL     1       2.826   5.749  19.525  0.00  0.00    +0.000 N 
ATOM      4  H   UNL     1       3.781   6.073  19.460  0.00  0.00    +0.000 HD
ENDROOT
BRANCH   1   8
ATOM      5  O   UNL     1       4.782   1.942  20.350  0.00  0.00    +0.000 OA
ATOM      6  C   UNL     1       4.788   2.737  19.413  0.00  0.00    +0.000 C 
ATOM      7  C   UNL     1       3.766   2.693  18.306  0.00  0.00    +0.000 C 
ATOM      8  C   UNL     1       3.413   4.086  17.796  0.00  0.00    +0.000 C 
ATOM      9  C   UNL     1       4.644   4.937  17.580  0.00  0.00    +0.000 A 
ATOM     10  C   UNL     1       4.605   6.045  16.722  0.00  0.00    +0.000 A 
ATOM     11  C   UNL     1       5.720   6.873  16.604  0.00  0.00    +0.000 A 
ATOM     12  C   UNL     1       6.866   6.588  17.337  0.00  0.00    +0.000 A 
ATOM     13  F   UNL     1       7.935   7.390  17.226  0.00  0.00    +0.000 F 
ATOM     14  C   UNL     1       6.921   5.499  18.201  0.00  0.00    +0.000 A 
ATOM     15  C   UNL     1       5.802   4.679  18.325  0.00  0.00    +0.000 A 
ATOM     16  N   UNL     1       5.801   3.646  19.266  0.00  0.00    +0.000 N 
ATOM     17  H   UNL     1       6.560   3.561  19.933  0.00  0.00    +0.000 HD
ENDBRANCH   1   8
BRANCH   3  18
ATOM     18  C   UNL     1       1.970   6.422  20.475  0.00  0.00    +0.000 C 
BRANCH  18  19
ATOM     19  C   UNL     1       1.661   7.822  20.014  0.00  0.00    +0.000 A 
ATOM     20  C   UNL     1       1.989   8.224  18.709  0.00  0.00    +0.000 A 
ATOM     21  C   UNL     1       1.715   9.523  18.275  0.00  0.00    +0.000 A 
ATOM     22  C   UNL     1       1.113  10.430  19.141  0.00  0.00    +0.000 A 
ATOM     23  C   UNL     1       0.810  10.049  20.452  0.00  0.00    +0.000 A 
ATOM     24  C   UNL     1       1.068   8.748  20.883  0.00  0.00    +0.000 A 
ATOM     25  O   UNL     1       0.253  10.901  21.373  0.00  0.00    +0.000 OA
ATOM     26  C   UNL     1       0.346  12.265  20.942  0.00  0.00    +0.000 C 
ATOM     27  C   UNL     1      -0.060  12.393  19.483  0.00  0.00    +0.000 C 
ATOM     28  O   UNL     1       0.853  11.680  18.643  0.00  0.00    +0.000 OA
ENDBRANCH  18  19
ENDBRANCH   3  18
TORSDOF 3
ENDMDL
MODEL 2
REMARK VINA RESULT:      -8.3      1.067      1.131
REMARK  Name = 
REMARK  3 active torsions:
REMARK  status: ('A' for Active; 'I' for Inactive)
REMARK    1  A    between atoms: C_4  and  C_5
REMARK    2  A    between atoms: N_7  and  C_8
REMARK    3  A    between atoms: C_8  and  C_9
REMARK                            x       y       z     vdW  Elec       q    Type
REMARK                         _______ _______ _______ _____ _____    ______ ____
ROOT
ATOM      1  C   UNL     1       2.454   5.348  19.769  0.00  0.00    +0.000 C 
ATOM      2  O   UNL     1       2.095   4.687  20.742  0.00  0.00    +0.000 OA
ATOM      3  N   UNL     1       2.390   6.720  19.737  0.00  0.00    +0.000 N 
ATOM      4  H   UNL     1       2.699   7.231  18.921  0.00  0.00    +0.000 HD
ENDROOT
BRANCH   1   8
ATOM      5  O   UNL     1       4.619   2.026  20.458  0.00  0.00    +0.000 OA
ATOM      6  C   UNL     1       4.538   2.921  19.621  0.00  0.00    +0.000 C 
ATOM      7  C   UNL     1       3.279   3.182  18.835  0.00  0.00    +0.000 C 
ATOM      8  C   UNL     1       3.078   4.667  18.551  0.00  0.00    +0.000 C 
ATOM      9  C   UNL     1       4.352   5.328  18.074  0.00  0.00    +0.000 A 
ATOM     10  C   UNL     1       4.307   6.526  17.349  0.00  0.00    +0.000 A 
ATOM     11  C   UNL     1       5.491   7.171  16.996  0.00  0.00    +0.000 A 
ATOM     12  C   UNL     1       6.711   6.613  17.364  0.00  0.00    +0.000 A 
ATOM     13  F   UNL     1       7.848   7.239  17.028  0.00  0.00    +0.000 F 
ATOM     14  C   UNL     1       6.776   5.430  18.092  0.00  0.00    +0.000 A 
ATOM     15  C   UNL     1       5.591   4.793  18.452  0.00  0.00    +0.000 A 
ATOM     16  N   UNL     1       5.634   3.664  19.274  0.00  0.00    +0.000 N 
ATOM     17  H   UNL     1       6.507   3.374  19.701  0.00  0.00    +0.000 HD
ENDBRANCH   1   8
BRANCH   3  18
ATOM     18  C   UNL     1       1.862   7.499  20.834  0.00  0.00    +0.000 C 
BRANCH  18  19
ATOM     19  C   UNL     1       1.151   8.725  20.323  0.00  0.00    +0.000 A 
ATOM     20  C   UNL     1       1.369   9.172  19.010  0.00  0.00    +0.000 A 
ATOM     21  C   UNL     1       0.723  10.312  18.530  0.00  0.00    +0.000 A 
ATOM     22  C   UNL     1      -0.146  11.016  19.358  0.00  0.00    +0.000 A 
ATOM     23  C   UNL     1      -0.347  10.598  20.677  0.00  0.00    +0.000 A 
ATOM     24  C   UNL     1       0.285   9.449  21.154  0.00  0.00    +0.000 A 
ATOM     25  O   UNL     1      -1.157  11.264  21.562  0.00  0.00    +0.000 OA
ATOM     26  C   UNL     1      -1.475  12.578  21.087  0.00  0.00    +0.000 C 
ATOM     27  C   UNL     1      -1.869  12.537  19.620  0.00  0.00    +0.000 C 
ATOM     28  O   UNL     1      -0.763  12.114  18.815  0.00  0.00    +0.000 OA
ENDBRANCH  18  19
ENDBRANCH   3  18
TORSDOF 3
ENDMDL
MODEL 3
REMARK VINA RESULT:      -8.3      2.764      3.924
REMARK  Name = 
REMARK  3 active torsions:
REMARK  status: ('A' for Active; 'I' for Inactive)
REMARK    1  A    between atoms: C_4  and  C_5
REMARK    2  A    between atoms: N_7  and  C_8
REMARK    3  A    between atoms: C_8  and  C_9
REMARK                            x       y       z     vdW  Elec       q    Type
REMARK                         _______ _______ _______ _____ _____    ______ ____
ROOT
ATOM      1  C   UNL     1       3.855   6.759  18.090  0.00  0.00    +0.000 C 
ATOM      2  O   UNL     1       4.463   7.110  17.080  0.00  0.00    +0.000 OA
ATOM      3  N   UNL     1       2.730   7.407  18.543  0.00  0.00    +0.000 N 
ATOM      4  H   UNL     1       2.253   7.087  19.374  0.00  0.00    +0.000 HD
ENDROOT
BRANCH   1   8
ATOM      5  O   UNL     1       6.335   4.212  16.203  0.00  0.00    +0.000 OA
ATOM      6  C   UNL     1       5.496   4.194  17.100  0.00  0.00    +0.000 C 
ATOM      7  C   UNL     1       5.631   5.022  18.352  0.00  0.00    +0.000 C 
ATOM      8  C   UNL     1       4.281   5.511  18.864  0.00  0.00    +0.000 C 
ATOM      9  C   UNL     1       3.242   4.412  18.859  0.00  0.00    +0.000 A 
ATOM     10  C   UNL     1       2.106   4.499  19.675  0.00  0.00    +0.000 A 
ATOM     11  C   UNL     1       1.114   3.524  19.592  0.00  0.00    +0.000 A 
ATOM     12  C   UNL     1       1.264   2.468  18.701  0.00  0.00    +0.000 A 
ATOM     13  F   UNL     1       0.305   1.534  18.619  0.00  0.00    +0.000 F 
ATOM     14  C   UNL     1       2.380   2.369  17.876  0.00  0.00    +0.000 A 
ATOM     15  C   UNL     1       3.365   3.350  17.953  0.00  0.00    +0.000 A 
ATOM     16  N   UNL     1       4.438   3.326  17.059  0.00  0.00    +0.000 N 
ATOM     17  H   UNL     1       4.445   2.670  16.286  0.00  0.00    +0.000 HD
ENDBRANCH   1   8
BRANCH   3  18
ATOM     18  C   UNL     1       2.189   8.576  17.887  0.00  0.00    +0.000 C 
BRANCH  18  19
ATOM     19  C   UNL     1       1.486   9.464  18.879  0.00  0.00    +0.000 A 
ATOM     20  C   UNL     1       1.391  10.846  18.645  0.00  0.00    +0.000 A 
ATOM     21  C   UNL     1       0.749  11.681  19.563  0.00  0.00    +0.000 A 
ATOM     22  C   UNL     1       0.199  11.142  20.721  0.00  0.00    +0.000 A 
ATOM     23  C   UNL     1       0.316   9.772  20.979  0.00  0.00    +0.000 A 
ATOM     24  C   UNL     1       0.941   8.934  20.056  0.00  0.00    +0.000 A 
ATOM     25  O   UNL     1      -0.167   9.178  22.119  0.00  0.00    +0.000 OA
ATOM     26  C   UNL     1      -0.475  10.153  23.122  0.00  0.00    +0.000 C 
ATOM     27  C   UNL     1      -1.244  11.317  22.520  0.00  0.00    +0.000 C 
ATOM     28  O   UNL     1      -0.434  12.014  21.568  0.00  0.00    +0.000 OA
ENDBRANCH  18  19
ENDBRANCH   3  18
TORSDOF 3
ENDMDL
MODEL 4
REMARK VINA RESULT:      -8.3      1.853      2.198
REMARK  Name = 
REMARK  3 active torsions:
REMARK  status: ('A' for Active; 'I' for Inactive)
REMARK    1  A    between atoms: C_4  and  C_5
REMARK    2  A    between atoms: N_7  and  C_8
REMARK    3  A    between atoms: C_8  and  C_9
REMARK                            x       y       z     vdW  Elec       q    Type
REMARK                         _______ _______ _______ _____ _____    ______ ____
ROOT
ATOM      1  C   UNL     1       2.797   5.864  19.253  0.00  0.00    +0.000 C 
ATOM      2  O   UNL     1       3.748   5.552  19.967  0.00  0.00    +0.000 OA
ATOM      3  N   UNL     1       1.856   6.792  19.630  0.00  0.00    +0.000 N 
ATOM      4  H   UNL     1       1.090   7.027  19.013  0.00  0.00    +0.000 HD
ENDROOT
BRANCH   1   8
ATOM      5  O   UNL     1       2.316   1.877  18.977  0.00  0.00    +0.000 OA
ATOM      6  C   UNL     1       2.734   2.809  18.294  0.00  0.00    +0.000 C 
ATOM      7  C   UNL     1       1.867   3.979  17.903  0.00  0.00    +0.000 C 
ATOM      8  C   UNL     1       2.655   5.282  17.846  0.00  0.00    +0.000 C 
ATOM      9  C   UNL     1       3.973   5.115  17.124  0.00  0.00    +0.000 A 
ATOM     10  C   UNL     1       4.632   6.222  16.572  0.00  0.00    +0.000 A 
ATOM     11  C   UNL     1       5.889   6.065  15.991  0.00  0.00    +0.000 A 
ATOM     12  C   UNL     1       6.477   4.806  15.960  0.00  0.00    +0.000 A 
ATOM     13  F   UNL     1       7.690   4.660  15.406  0.00  0.00    +0.000 F 
ATOM     14  C   UNL     1       5.845   3.697  16.511  0.00  0.00    +0.000 A 
ATOM     15  C   UNL     1       4.593   3.858  17.100  0.00  0.00    +0.000 A 
ATOM     16  N   UNL     1       3.991   2.779  17.753  0.00  0.00    +0.000 N 
ATOM     17  H   UNL     1       4.505   1.918  17.899  0.00  0.00    +0.000 HD
ENDBRANCH   1   8
BRANCH   3  18
ATOM     18  C   UNL     1       1.888   7.453  20.914  0.00  0.00    +0.000 C 
BRANCH  18  19
ATOM     19  C   UNL     1       1.031   8.692  20.896  0.00  0.00    +0.000 A 
ATOM     20  C   UNL     1       0.832   9.396  19.697  0.00  0.00    +0.000 A 
ATOM     21  C   UNL     1       0.047  10.550  19.672  0.00  0.00    +0.000 A 
ATOM     22  C   UNL     1      -0.543  11.012  20.844  0.00  0.00    +0.000 A 
ATOM     23  C   UNL     1      -0.325  10.337  22.049  0.00  0.00    +0.000 A 
ATOM     24  C   UNL     1       0.445   9.175  22.074  0.00  0.00    +0.000 A 
ATOM     25  O   UNL     1      -0.841  10.757  23.250  0.00  0.00    +0.000 OA
ATOM     26  C   UNL     1      -1.314  12.107  23.168  0.00  0.00    +0.000 C 
ATOM     27  C   UNL     1      -2.134  12.312  21.906  0.00  0.00    +0.000 C 
ATOM     28  O   UNL     1      -1.317  12.139  20.743  0.00  0.00    +0.000 OA
ENDBRANCH  18  19
ENDBRANCH   3  18
TORSDOF 3
ENDMDL
MODEL 5
REMARK VINA RESULT:      -8.2      2.932      4.287
REMARK  Name = 
REMARK  3 active torsions:
REMARK  status: ('A' for Active; 'I' for Inactive)
REMARK    1  A    between atoms: C_4  and  C_5
REMARK    2  A    between atoms: N_7  and  C_8
REMARK    3  A    between atoms: C_8  and  C_9
REMARK                            x       y       z     vdW  Elec       q    Type
REMARK                         _______ _______ _______ _____ _____    ______ ____
ROOT
ATOM      1  C   UNL     1       3.071   7.224  18.433  0.00  0.00    +0.000 C 
ATOM      2  O   UNL     1       3.281   7.605  17.283  0.00  0.00    +0.000 OA
ATOM      3  N   UNL     1       2.183   7.851  19.274  0.00  0.00    +0.000 N 
ATOM      4  H   UNL     1       2.032   7.506  20.212  0.00  0.00    +0.000 HD
ENDROOT
BRANCH   1   8
ATOM      5  O   UNL     1       5.542   5.274  15.925  0.00  0.00    +0.000 OA
ATOM      6  C   UNL     1       4.843   5.037  16.907  0.00  0.00    +0.000 C 
ATOM      7  C   UNL     1       5.054   5.718  18.235  0.00  0.00    +0.000 C 
ATOM      8  C   UNL     1       3.741   5.959  18.970  0.00  0.00    +0.000 C 
ATOM      9  C   UNL     1       2.845   4.741  18.942  0.00  0.00    +0.000 A 
ATOM     10  C   UNL     1       1.831   4.578  19.895  0.00  0.00    +0.000 A 
ATOM     11  C   UNL     1       0.955   3.497  19.801  0.00  0.00    +0.000 A 
ATOM     12  C   UNL     1       1.102   2.585  18.762  0.00  0.00    +0.000 A 
ATOM     13  F   UNL     1       0.254   1.550  18.670  0.00  0.00    +0.000 F 
ATOM     14  C   UNL     1       2.096   2.735  17.801  0.00  0.00    +0.000 A 
ATOM     15  C   UNL     1       2.963   3.821  17.891  0.00  0.00    +0.000 A 
ATOM     16  N   UNL     1       3.897   4.048  16.877  0.00  0.00    +0.000 N 
ATOM     17  H   UNL     1       3.872   3.497  16.026  0.00  0.00    +0.000 HD
ENDBRANCH   1   8
BRANCH   3  18
ATOM     18  C   UNL     1       1.447   9.033  18.886  0.00  0.00    +0.000 C 
BRANCH  18  19
ATOM     19  C   UNL     1       0.731   9.627  20.070  0.00  0.00    +0.000 A 
ATOM     20  C   UNL     1       0.890   9.064  21.347  0.00  0.00    +0.000 A 
ATOM     21  C   UNL     1       0.223   9.601  22.450  0.00  0.00    +0.000 A 
ATOM     22  C   UNL     1      -0.609  10.704  22.286  0.00  0.00    +0.000 A 
ATOM     23  C   UNL     1      -0.799  11.253  21.014  0.00  0.00    +0.000 A 
ATOM     24  C   UNL     1      -0.121  10.729  19.914  0.00  0.00    +0.000 A 
ATOM     25  O   UNL     1      -1.635  12.315  20.771  0.00  0.00    +0.000 OA
ATOM     26  C   UNL     1      -2.515  12.547  21.877  0.00  0.00    +0.000 C 
ATOM     27  C   UNL     1      -1.750  12.502  23.189  0.00  0.00    +0.000 C 
ATOM     28  O   UNL     1      -1.216  11.193  23.413  0.00  0.00    +0.000 OA
ENDBRANCH  18  19
ENDBRANCH   3  18
TORSDOF 3
ENDMDL
MODEL 6
REMARK VINA RESULT:      -8.2      2.764      3.882
REMARK  Name = 
REMARK  3 active torsions:
REMARK  status: ('A' for Active; 'I' for Inactive)
REMARK    1  A    between atoms: C_4  and  C_5
REMARK    2  A    between atoms: N_7  and  C_8
REMARK    3  A    between atoms: C_8  and  C_9
REMARK                            x       y       z     vdW  Elec       q    Type
REMARK                         _______ _______ _______ _____ _____    ______ ____
ROOT
ATOM      1  C   UNL     1       3.561   6.871  18.193  0.00  0.00    +0.000 C 
ATOM      2  O   UNL     1       4.098   6.935  17.089  0.00  0.00    +0.000 OA
ATOM      3  N   UNL     1       2.569   7.736  18.590  0.00  0.00    +0.000 N 
ATOM      4  H   UNL     1       2.148   7.650  19.504  0.00  0.00    +0.000 HD
ENDROOT
BRANCH   1   8
ATOM      5  O   UNL     1       6.546   4.399  17.106  0.00  0.00    +0.000 OA
ATOM      6  C   UNL     1       5.552   4.390  17.829  0.00  0.00    +0.000 C 
ATOM      7  C   UNL     1       5.379   5.348  18.980  0.00  0.00    +0.000 C 
ATOM      8  C   UNL     1       3.922   5.754  19.173  0.00  0.00    +0.000 C 
ATOM      9  C   UNL     1       2.990   4.565  19.104  0.00  0.00    +0.000 A 
ATOM     10  C   UNL     1       1.714   4.623  19.681  0.00  0.00    +0.000 A 
ATOM     11  C   UNL     1       0.833   3.553  19.530  0.00  0.00    +0.000 A 
ATOM     12  C   UNL     1       1.233   2.433  18.811  0.00  0.00    +0.000 A 
ATOM     13  F   UNL     1       0.381   1.408  18.663  0.00  0.00    +0.000 F 
ATOM     14  C   UNL     1       2.492   2.360  18.224  0.00  0.00    +0.000 A 
ATOM     15  C   UNL     1       3.366   3.434  18.367  0.00  0.00    +0.000 A 
ATOM     16  N   UNL     1       4.591   3.424  17.695  0.00  0.00    +0.000 N 
ATOM     17  H   UNL     1       4.798   2.698  17.018  0.00  0.00    +0.000 HD
ENDBRANCH   1   8
BRANCH   3  18
ATOM     18  C   UNL     1       2.098   8.815  17.751  0.00  0.00    +0.000 C 
BRANCH  18  19
ATOM     19  C   UNL     1       1.038   9.616  18.460  0.00  0.00    +0.000 A 
ATOM     20  C   UNL     1      -0.218   9.809  17.863  0.00  0.00    +0.000 A 
ATOM     21  C   UNL     1      -1.205  10.559  18.508  0.00  0.00    +0.000 A 
ATOM     22  C   UNL     1      -0.943  11.123  19.753  0.00  0.00    +0.000 A 
ATOM     23  C   UNL     1       0.316  10.964  20.341  0.00  0.00    +0.000 A 
ATOM     24  C   UNL     1       1.297  10.202  19.707  0.00  0.00    +0.000 A 
ATOM     25  O   UNL     1       0.658  11.524  21.547  0.00  0.00    +0.000 OA
ATOM     26  C   UNL     1      -0.279  12.537  21.933  0.00  0.00    +0.000 C 
ATOM     27  C   UNL     1      -1.705  12.054  21.727  0.00  0.00    +0.000 C 
ATOM     28  O   UNL     1      -1.962  11.828  20.338  0.00  0.00    +0.000 OA
ENDBRANCH  18  19
ENDBRANCH   3  18
TORSDOF 3
ENDMDL
MODEL 7
REMARK VINA RESULT:      -8.2      1.888      2.611
REMARK  Name = 
REMARK  3 active torsions:
REMARK  status: ('A' for Active; 'I' for Inactive)
REMARK    1  A    between atoms: C_4  and  C_5
REMARK    2  A    between atoms: N_7  and  C_8
REMARK    3  A    between atoms: C_8  and  C_9
REMARK                            x       y       z     vdW  Elec       q    Type
REMARK                         _______ _______ _______ _____ _____    ______ ____
ROOT
ATOM      1  C   UNL     1       2.396   6.020  19.480  0.00  0.00    +0.000 C 
ATOM      2  O   UNL     1       2.940   5.273  20.291  0.00  0.00    +0.000 OA
ATOM      3  N   UNL     1       1.843   7.227  19.835  0.00  0.00    +0.000 N 
ATOM      4  H   UNL     1       1.408   7.818  19.139  0.00  0.00    +0.000 HD
ENDROOT
BRANCH   1   8
ATOM      5  O   UNL     1       1.608   2.192  18.518  0.00  0.00    +0.000 OA
ATOM      6  C   UNL     1       2.185   3.167  18.042  0.00  0.00    +0.000 C 
ATOM      7  C   UNL     1       1.478   4.466  17.753  0.00  0.00    +0.000 C 
ATOM      8  C   UNL     1       2.377   5.673  17.991  0.00  0.00    +0.000 C 
ATOM      9  C   UNL     1       3.754   5.478  17.398  0.00  0.00    +0.000 A 
ATOM     10  C   UNL     1       4.568   6.581  17.104  0.00  0.00    +0.000 A 
ATOM     11  C   UNL     1       5.869   6.381  16.644  0.00  0.00    +0.000 A 
ATOM     12  C   UNL     1       6.345   5.087  16.474  0.00  0.00    +0.000 A 
ATOM     13  F   UNL     1       7.599   4.898  16.037  0.00  0.00    +0.000 F 
ATOM     14  C   UNL     1       5.556   3.980  16.768  0.00  0.00    +0.000 A 
ATOM     15  C   UNL     1       4.260   4.181  17.238  0.00  0.00    +0.000 A 
ATOM     16  N   UNL     1       3.491   3.086  17.641  0.00  0.00    +0.000 N 
ATOM     17  H   UNL     1       3.907   2.163  17.701  0.00  0.00    +0.000 HD
ENDBRANCH   1   8
BRANCH   3  18
ATOM     18  C   UNL     1       1.826   7.703  21.200  0.00  0.00    +0.000 C 
BRANCH  18  19
ATOM     19  C   UNL     1       0.887   8.871  21.344  0.00  0.00    +0.000 A 
ATOM     20  C   UNL     1       0.435   9.261  22.616  0.00  0.00    +0.000 A 
ATOM     21  C   UNL     1      -0.443  10.337  22.760  0.00  0.00    +0.000 A 
ATOM     22  C   UNL     1      -0.879  11.030  21.636  0.00  0.00    +0.000 A 
ATOM     23  C   UNL     1      -0.461  10.631  20.362  0.00  0.00    +0.000 A 
ATOM     24  C   UNL     1       0.429   9.567  20.217  0.00  0.00    +0.000 A 
ATOM     25  O   UNL     1      -0.881  11.242  19.207  0.00  0.00    +0.000 OA
ATOM     26  C   UNL     1      -2.024  12.073  19.445  0.00  0.00    +0.000 C 
ATOM     27  C   UNL     1      -1.820  12.919  20.690  0.00  0.00    +0.000 C 
ATOM     28  O   UNL     1      -1.723  12.089  21.851  0.00  0.00    +0.000 OA
ENDBRANCH  18  19
ENDBRANCH   3  18
TORSDOF 3
ENDMDL
MODEL 8
REMARK VINA RESULT:      -8.2      2.848      4.083
REMARK  Name = 
REMARK  3 active torsions:
REMARK  status: ('A' for Active; 'I' for Inactive)
REMARK    1  A    between atoms: C_4  and  C_5
REMARK    2  A    between atoms: N_7  and  C_8
REMARK    3  A    between atoms: C_8  and  C_9
REMARK                            x       y       z     vdW  Elec       q    Type
REMARK                         _______ _______ _______ _____ _____    ______ ____
ROOT
ATOM      1  C   UNL     1       3.602   6.821  18.181  0.00  0.00    +0.000 C 
ATOM      2  O   UNL     1       4.185   6.984  17.111  0.00  0.00    +0.000 OA
ATOM      3  N   UNL     1       2.540   7.598  18.576  0.00  0.00    +0.000 N 
ATOM      4  H   UNL     1       2.081   7.431  19.461  0.00  0.00    +0.000 HD
ENDROOT
BRANCH   1   8
ATOM      5  O   UNL     1       6.491   4.333  16.891  0.00  0.00    +0.000 OA
ATOM      6  C   UNL     1       5.531   4.319  17.657  0.00  0.00    +0.000 C 
ATOM      7  C   UNL     1       5.426   5.246  18.841  0.00  0.00    +0.000 C 
ATOM      8  C   UNL     1       3.987   5.670  19.111  0.00  0.00    +0.000 C 
ATOM      9  C   UNL     1       3.032   4.499  19.052  0.00  0.00    +0.000 A 
ATOM     10  C   UNL     1       1.785   4.561  19.687  0.00  0.00    +0.000 A 
ATOM     11  C   UNL     1       0.879   3.510  19.546  0.00  0.00    +0.000 A 
ATOM     12  C   UNL     1       1.227   2.404  18.779  0.00  0.00    +0.000 A 
ATOM     13  F   UNL     1       0.351   1.398  18.641  0.00  0.00    +0.000 F 
ATOM     14  C   UNL     1       2.456   2.328  18.133  0.00  0.00    +0.000 A 
ATOM     15  C   UNL     1       3.355   3.383  18.267  0.00  0.00    +0.000 A 
ATOM     16  N   UNL     1       4.548   3.373  17.540  0.00  0.00    +0.000 N 
ATOM     17  H   UNL     1       4.711   2.664  16.834  0.00  0.00    +0.000 HD
ENDBRANCH   1   8
BRANCH   3  18
ATOM     18  C   UNL     1       2.040   8.695  17.778  0.00  0.00    +0.000 C 
BRANCH  18  19
ATOM     19  C   UNL     1       1.027   9.497  18.551  0.00  0.00    +0.000 A 
ATOM     20  C   UNL     1       1.138   9.620  19.945  0.00  0.00    +0.000 A 
ATOM     21  C   UNL     1       0.198  10.353  20.672  0.00  0.00    +0.000 A 
ATOM     22  C   UNL     1      -0.861  10.968  20.012  0.00  0.00    +0.000 A 
ATOM     23  C   UNL     1      -0.999  10.826  18.628  0.00  0.00    +0.000 A 
ATOM     24  C   UNL     1      -0.052  10.108  17.898  0.00  0.00    +0.000 A 
ATOM     25  O   UNL     1      -2.039  11.370  17.916  0.00  0.00    +0.000 OA
ATOM     26  C   UNL     1      -3.102  11.782  18.783  0.00  0.00    +0.000 C 
ATOM     27  C   UNL     1      -2.554  12.543  19.979  0.00  0.00    +0.000 C 
ATOM     28  O   UNL     1      -1.735  11.690  20.784  0.00  0.00    +0.000 OA
ENDBRANCH  18  19
ENDBRANCH   3  18
TORSDOF 3
ENDMDL
MODEL 9
REMARK VINA RESULT:      -8.2      2.773      3.893
REMARK  Name = 
REMARK  3 active torsions:
REMARK  status: ('A' for Active; 'I' for Inactive)
REMARK    1  A    between atoms: C_4  and  C_5
REMARK    2  A    between atoms: N_7  and  C_8
REMARK    3  A    between atoms: C_8  and  C_9
REMARK                            x       y       z     vdW  Elec       q    Type
REMARK                         _______ _______ _______ _____ _____    ______ ____
ROOT
ATOM      1  C   UNL     1       5.218   6.424  17.711  0.00  0.00    +0.000 C 
ATOM      2  O   UNL     1       5.964   7.308  17.296  0.00  0.00    +0.000 OA
ATOM      3  N   UNL     1       3.850   6.557  17.739  0.00  0.00    +0.000 N 
ATOM      4  H   UNL     1       3.267   5.805  18.083  0.00  0.00    +0.000 HD
ENDROOT
BRANCH   1   8
ATOM      5  O   UNL     1       6.391   3.908  14.797  0.00  0.00    +0.000 OA
ATOM      6  C   UNL     1       6.001   3.859  15.961  0.00  0.00    +0.000 C 
ATOM      7  C   UNL     1       6.733   4.537  17.090  0.00  0.00    +0.000 C 
ATOM      8  C   UNL     1       5.780   5.072  18.152  0.00  0.00    +0.000 C 
ATOM      9  C   UNL     1       4.714   4.062  18.515  0.00  0.00    +0.000 A 
ATOM     10  C   UNL     1       4.034   4.149  19.737  0.00  0.00    +0.000 A 
ATOM     11  C   UNL     1       2.991   3.267  20.017  0.00  0.00    +0.000 A 
ATOM     12  C   UNL     1       2.639   2.302  19.080  0.00  0.00    +0.000 A 
ATOM     13  F   UNL     1       1.632   1.459  19.350  0.00  0.00    +0.000 F 
ATOM     14  C   UNL     1       3.296   2.206  17.858  0.00  0.00    +0.000 A 
ATOM     15  C   UNL     1       4.330   3.095  17.576  0.00  0.00    +0.000 A 
ATOM     16  N   UNL     1       4.929   3.084  16.313  0.00  0.00    +0.000 N 
ATOM     17  H   UNL     1       4.541   2.515  15.569  0.00  0.00    +0.000 HD
ENDBRANCH   1   8
BRANCH   3  18
ATOM     18  C   UNL     1       3.178   7.763  17.313  0.00  0.00    +0.000 C 
BRANCH  18  19
ATOM     19  C   UNL     1       2.300   8.300  18.413  0.00  0.00    +0.000 A 
ATOM     20  C   UNL     1       2.205   7.618  19.637  0.00  0.00    +0.000 A 
ATOM     21  C   UNL     1       1.386   8.102  20.659  0.00  0.00    +0.000 A 
ATOM     22  C   UNL     1       0.654   9.269  20.466  0.00  0.00    +0.000 A 
ATOM     23  C   UNL     1       0.716   9.938  19.240  0.00  0.00    +0.000 A 
ATOM     24  C   UNL     1       1.546   9.466  18.223  0.00  0.00    +0.000 A 
ATOM     25  O   UNL     1      -0.007  11.072  18.964  0.00  0.00    +0.000 OA
ATOM     26  C   UNL     1      -1.053  11.267  19.925  0.00  0.00    +0.000 C 
ATOM     27  C   UNL     1      -0.529  11.056  21.336  0.00  0.00    +0.000 C 
ATOM     28  O   UNL     1      -0.113   9.699  21.518  0.00  0.00    +0.000 OA
ENDBRANCH  18  19
ENDBRANCH   3  18
TORSDOF 3
ENDMDL
