MODEL 1
REMARK VINA RESULT:      -8.0      0.000      0.000
REMARK  Name = 
REMARK  9 active torsions:
REMARK  status: ('A' for Active; 'I' for Inactive)
REMARK    1  A    between atoms: C_2  and  C_3
REMARK    2  A    between atoms: C_3  and  C_4
REMARK    3  A    between atoms: C_4  and  C_5
REMARK    4  A    between atoms: C_5  and  C_6
REMARK    5  A    between atoms: C_6  and  C_7
REMARK    6  A    between atoms: C_7  and  C_8
REMARK    7  A    between atoms: N_10  and  C_11
REMARK    8  A    between atoms: C_15  and  C_16
REMARK    9  A    between atoms: C_21  and  C_22
REMARK                            x       y       z     vdW  Elec       q    Type
REMARK                         _______ _______ _______ _____ _____    ______ ____
ROOT
ATOM      1  C   UNL     1       2.535   6.832  19.558  0.00  0.00    +0.000 A 
ATOM      2  C   UNL     1       2.981   6.956  18.236  0.00  0.00    +0.000 A 
ATOM      3  C   UNL     1       2.766   8.107  17.499  0.00  0.00    +0.000 A 
ATOM      4  C   UNL     1       2.020   9.129  18.056  0.00  0.00    +0.000 A 
ATOM      5  C   UNL     1       1.449   8.988  19.334  0.00  0.00    +0.000 A 
ATOM      6  C   UNL     1       1.739   7.851  20.102  0.00  0.00    +0.000 A 
ENDROOT
BRANCH   5   7
ATOM      7  C   UNL     1       0.503   9.998  19.773  0.00  0.00    +0.000 A 
ATOM      8  C   UNL     1      -0.462  10.510  18.945  0.00  0.00    +0.000 A 
ATOM      9  N   UNL     1      -1.178  11.364  19.718  0.00  0.00    +0.000 N 
ATOM     10  C   UNL     1      -0.646  11.352  20.970  0.00  0.00    +0.000 A 
ATOM     11  N   UNL     1       0.381  10.514  21.034  0.00  0.00    +0.000 NA
ATOM     12  C   UNL     1      -1.210  12.152  22.089  0.00  0.00    +0.000 C 
ATOM     13  C   UNL     1      -1.568  11.220  23.250  0.00  0.00    +0.000 C 
ATOM     14  C   UNL     1      -2.421  13.026  21.717  0.00  0.00    +0.000 C 
ATOM     15  C   UNL     1      -3.012  12.956  20.308  0.00  0.00    +0.000 C 
ATOM     16  C   UNL     1      -2.339  12.076  19.274  0.00  0.00    +0.000 C 
ENDBRANCH   5   7
BRANCH   1  19
ATOM     17  C   UNL     1       1.932   4.746  20.741  0.00  0.00    +0.000 C 
ATOM     18  O   UNL     1       0.737   4.714  20.445  0.00  0.00    +0.000 OA
ATOM     19  N   UNL     1       2.865   5.694  20.336  0.00  0.00    +0.000 N 
ATOM     20  H   UNL     1       3.845   5.518  20.497  0.00  0.00    +0.000 HD
BRANCH  17  21
ATOM     21  C   UNL     1       2.472   3.612  21.578  0.00  0.00    +0.000 C 
BRANCH  21  22
ATOM     22  C   UNL     1       2.593   2.294  20.830  0.00  0.00    +0.000 C 
BRANCH  22  23
ATOM     23  C   UNL     1       3.685   2.303  19.787  0.00  0.00    +0.000 C 
ATOM     24  N   UNL     1       4.875   3.038  20.075  0.00  0.00    +0.000 NA
ATOM     25  N   UNL     1       4.961   1.806  20.217  0.00  0.00    +0.000 NA
BRANCH  23  26
ATOM     26  C   UNL     1       3.344   2.018  18.342  0.00  0.00    +0.000 C 
BRANCH  26  27
ATOM     27  C   UNL     1       2.944   3.219  17.487  0.00  0.00    +0.000 C 
BRANCH  27  29
ATOM     28  C   UNL     1       5.110   4.391  16.105  0.00  0.00    +0.000 C 
ATOM     29  C   UNL     1       4.109   3.850  16.743  0.00  0.00    +0.000 C 
ENDBRANCH  27  29
ENDBRANCH  26  27
ENDBRANCH  23  26
ENDBRANCH  22  23
ENDBRANCH  21  22
ENDBRANCH  17  21
ENDBRANCH   1  19
TORSDOF 8
ENDMDL
MODEL 2
REMARK VINA RESULT:      -7.8      0.831      1.533
REMARK  Name = 
REMARK  9 active torsions:
REMARK  status: ('A' for Active; 'I' for Inactive)
REMARK    1  A    between atoms: C_2  and  C_3
REMARK    2  A    between atoms: C_3  and  C_4
REMARK    3  A    between atoms: C_4  and  C_5
REMARK    4  A    between atoms: C_5  and  C_6
REMARK    5  A    between atoms: C_6  and  C_7
REMARK    6  A    between atoms: C_7  and  C_8
REMARK    7  A    between atoms: N_10  and  C_11
REMARK    8  A    between atoms: C_15  and  C_16
REMARK    9  A    between atoms: C_21  and  C_22
REMARK                            x       y       z     vdW  Elec       q    Type
REMARK                         _______ _______ _______ _____ _____    ______ ____
ROOT
ATOM      1  C   UNL     1       2.217   6.977  19.868  0.00  0.00    +0.000 A 
ATOM      2  C   UNL     1       2.545   7.143  18.516  0.00  0.00    +0.000 A 
ATOM      3  C   UNL     1       2.255   8.311  17.833  0.00  0.00    +0.000 A 
ATOM      4  C   UNL     1       1.550   9.308  18.483  0.00  0.00    +0.000 A 
ATOM      5  C   UNL     1       1.094   9.124  19.801  0.00  0.00    +0.000 A 
ATOM      6  C   UNL     1       1.462   7.971  20.508  0.00  0.00    +0.000 A 
ENDROOT
BRANCH   5   7
ATOM      7  C   UNL     1       0.180  10.110  20.349  0.00  0.00    +0.000 A 
ATOM      8  C   UNL     1      -0.222  10.090  21.659  0.00  0.00    +0.000 A 
ATOM      9  N   UNL     1      -1.009  11.186  21.807  0.00  0.00    +0.000 N 
ATOM     10  C   UNL     1      -1.065  11.833  20.611  0.00  0.00    +0.000 A 
ATOM     11  N   UNL     1      -0.336  11.199  19.701  0.00  0.00    +0.000 NA
ATOM     12  C   UNL     1      -1.817  13.102  20.420  0.00  0.00    +0.000 C 
ATOM     13  C   UNL     1      -0.867  14.180  19.892  0.00  0.00    +0.000 C 
ATOM     14  C   UNL     1      -2.560  13.611  21.668  0.00  0.00    +0.000 C 
ATOM     15  C   UNL     1      -2.414  12.874  23.000  0.00  0.00    +0.000 C 
ATOM     16  C   UNL     1      -1.594  11.600  23.047  0.00  0.00    +0.000 C 
ENDBRANCH   5   7
BRANCH   1  19
ATOM     17  C   UNL     1       1.814   4.707  20.760  0.00  0.00    +0.000 C 
ATOM     18  O   UNL     1       0.689   4.529  20.292  0.00  0.00    +0.000 OA
ATOM     19  N   UNL     1       2.626   5.822  20.581  0.00  0.00    +0.000 N 
ATOM     20  H   UNL     1       3.592   5.777  20.865  0.00  0.00    +0.000 HD
BRANCH  17  21
ATOM     21  C   UNL     1       2.420   3.580  21.562  0.00  0.00    +0.000 C 
BRANCH  21  22
ATOM     22  C   UNL     1       2.577   2.282  20.787  0.00  0.00    +0.000 C 
BRANCH  22  23
ATOM     23  C   UNL     1       3.646   2.354  19.722  0.00  0.00    +0.000 C 
ATOM     24  N   UNL     1       4.865   3.021  20.047  0.00  0.00    +0.000 NA
ATOM     25  N   UNL     1       4.914   1.780  20.073  0.00  0.00    +0.000 NA
BRANCH  23  26
ATOM     26  C   UNL     1       3.264   2.215  18.266  0.00  0.00    +0.000 C 
BRANCH  26  27
ATOM     27  C   UNL     1       2.980   3.510  17.509  0.00  0.00    +0.000 C 
BRANCH  27  29
ATOM     28  C   UNL     1       5.198   4.472  16.048  0.00  0.00    +0.000 C 
ATOM     29  C   UNL     1       4.173   4.028  16.723  0.00  0.00    +0.000 C 
ENDBRANCH  27  29
ENDBRANCH  26  27
ENDBRANCH  23  26
ENDBRANCH  22  23
ENDBRANCH  21  22
ENDBRANCH  17  21
ENDBRANCH   1  19
TORSDOF 8
ENDMDL
MODEL 3
REMARK VINA RESULT:      -7.5      2.832      4.374
REMARK  Name = 
REMARK  9 active torsions:
REMARK  status: ('A' for Active; 'I' for Inactive)
REMARK    1  A    between atoms: C_2  and  C_3
REMARK    2  A    between atoms: C_3  and  C_4
REMARK    3  A    between atoms: C_4  and  C_5
REMARK    4  A    between atoms: C_5  and  C_6
REMARK    5  A    between atoms: C_6  and  C_7
REMARK    6  A    between atoms: C_7  and  C_8
REMARK    7  A    between atoms: N_10  and  C_11
REMARK    8  A    between atoms: C_15  and  C_16
REMARK    9  A    between atoms: C_21  and  C_22
REMARK                            x       y       z     vdW  Elec       q    Type
REMARK                         _______ _______ _______ _____ _____    ______ ____
ROOT
ATOM      1  C   UNL     1       3.334   5.043  18.966  0.00  0.00    +0.000 A 
ATOM      2  C   UNL     1       2.917   4.102  19.917  0.00  0.00    +0.000 A 
ATOM      3  C   UNL     1       1.941   4.394  20.852  0.00  0.00    +0.000 A 
ATOM      4  C   UNL     1       1.423   5.675  20.901  0.00  0.00    +0.000 A 
ATOM      5  C   UNL     1       1.910   6.681  20.045  0.00  0.00    +0.000 A 
ATOM      6  C   UNL     1       2.841   6.354  19.050  0.00  0.00    +0.000 A 
ENDROOT
BRANCH   5   7
ATOM      7  C   UNL     1       1.485   8.048  20.290  0.00  0.00    +0.000 A 
ATOM      8  C   UNL     1       1.330   8.960  19.279  0.00  0.00    +0.000 A 
ATOM      9  N   UNL     1       0.870  10.085  19.882  0.00  0.00    +0.000 N 
ATOM     10  C   UNL     1       0.756   9.836  21.216  0.00  0.00    +0.000 A 
ATOM     11  N   UNL     1       1.118   8.590  21.492  0.00  0.00    +0.000 NA
ATOM     12  C   UNL     1       0.243  10.846  22.179  0.00  0.00    +0.000 C 
ATOM     13  C   UNL     1      -0.963  10.269  22.925  0.00  0.00    +0.000 C 
ATOM     14  C   UNL     1      -0.115  12.210  21.562  0.00  0.00    +0.000 C 
ATOM     15  C   UNL     1      -0.022  12.414  20.049  0.00  0.00    +0.000 C 
ATOM     16  C   UNL     1       0.501  11.282  19.187  0.00  0.00    +0.000 C 
ENDBRANCH   5   7
BRANCH   1  19
ATOM     17  C   UNL     1       4.620   5.552  16.917  0.00  0.00    +0.000 C 
ATOM     18  O   UNL     1       4.279   6.727  16.781  0.00  0.00    +0.000 OA
ATOM     19  N   UNL     1       4.249   4.690  17.943  0.00  0.00    +0.000 N 
ATOM     20  H   UNL     1       4.731   3.810  18.043  0.00  0.00    +0.000 HD
BRANCH  17  21
ATOM     21  C   UNL     1       5.595   4.989  15.911  0.00  0.00    +0.000 C 
BRANCH  21  22
ATOM     22  C   UNL     1       7.021   5.485  16.086  0.00  0.00    +0.000 C 
BRANCH  22  23
ATOM     23  C   UNL     1       7.505   5.404  17.515  0.00  0.00    +0.000 C 
ATOM     24  N   UNL     1       7.161   4.241  18.269  0.00  0.00    +0.000 NA
ATOM     25  N   UNL     1       8.324   4.268  17.832  0.00  0.00    +0.000 NA
BRANCH  23  26
ATOM     26  C   UNL     1       7.856   6.672  18.261  0.00  0.00    +0.000 C 
BRANCH  26  27
ATOM     27  C   UNL     1       7.603   7.986  17.527  0.00  0.00    +0.000 C 
BRANCH  27  29
ATOM     28  C   UNL     1       8.985  10.184  18.639  0.00  0.00    +0.000 C 
ATOM     29  C   UNL     1       8.346   9.169  18.125  0.00  0.00    +0.000 C 
ENDBRANCH  27  29
ENDBRANCH  26  27
ENDBRANCH  23  26
ENDBRANCH  22  23
ENDBRANCH  21  22
ENDBRANCH  17  21
ENDBRANCH   1  19
TORSDOF 8
ENDMDL
MODEL 4
REMARK VINA RESULT:      -7.4      2.827      4.310
REMARK  Name = 
REMARK  9 active torsions:
REMARK  status: ('A' for Active; 'I' for Inactive)
REMARK    1  A    between atoms: C_2  and  C_3
REMARK    2  A    between atoms: C_3  and  C_4
REMARK    3  A    between atoms: C_4  and  C_5
REMARK    4  A    between atoms: C_5  and  C_6
REMARK    5  A    between atoms: C_6  and  C_7
REMARK    6  A    between atoms: C_7  and  C_8
REMARK    7  A    between atoms: N_10  and  C_11
REMARK    8  A    between atoms: C_15  and  C_16
REMARK    9  A    between atoms: C_21  and  C_22
REMARK                            x       y       z     vdW  Elec       q    Type
REMARK                         _______ _______ _______ _____ _____    ______ ____
ROOT
ATOM      1  C   UNL     1       3.907   5.251  18.947  0.00  0.00    +0.000 A 
ATOM      2  C   UNL     1       3.480   4.220  19.794  0.00  0.00    +0.000 A 
ATOM      3  C   UNL     1       2.392   4.370  20.635  0.00  0.00    +0.000 A 
ATOM      4  C   UNL     1       1.762   5.599  20.699  0.00  0.00    +0.000 A 
ATOM      5  C   UNL     1       2.242   6.694  19.958  0.00  0.00    +0.000 A 
ATOM      6  C   UNL     1       3.295   6.509  19.050  0.00  0.00    +0.000 A 
ENDROOT
BRANCH   5   7
ATOM      7  C   UNL     1       1.676   8.003  20.231  0.00  0.00    +0.000 A 
ATOM      8  C   UNL     1       1.333   8.877  19.233  0.00  0.00    +0.000 A 
ATOM      9  N   UNL     1       0.789   9.946  19.868  0.00  0.00    +0.000 N 
ATOM     10  C   UNL     1       0.812   9.702  21.207  0.00  0.00    +0.000 A 
ATOM     11  N   UNL     1       1.343   8.512  21.457  0.00  0.00    +0.000 NA
ATOM     12  C   UNL     1       0.259  10.655  22.206  0.00  0.00    +0.000 C 
ATOM     13  C   UNL     1      -0.806   9.947  23.048  0.00  0.00    +0.000 C 
ATOM     14  C   UNL     1      -0.309  11.958  21.615  0.00  0.00    +0.000 C 
ATOM     15  C   UNL     1      -0.362  12.153  20.099  0.00  0.00    +0.000 C 
ATOM     16  C   UNL     1       0.224  11.081  19.202  0.00  0.00    +0.000 C 
ENDBRANCH   5   7
BRANCH   1  19
ATOM     17  C   UNL     1       6.295   4.998  18.356  0.00  0.00    +0.000 C 
ATOM     18  O   UNL     1       6.766   5.066  19.492  0.00  0.00    +0.000 OA
ATOM     19  N   UNL     1       4.949   5.041  18.009  0.00  0.00    +0.000 N 
ATOM     20  H   UNL     1       4.677   4.798  17.069  0.00  0.00    +0.000 HD
BRANCH  17  21
ATOM     21  C   UNL     1       7.258   4.779  17.215  0.00  0.00    +0.000 C 
BRANCH  21  22
ATOM     22  C   UNL     1       6.681   3.968  16.065  0.00  0.00    +0.000 C 
BRANCH  22  23
ATOM     23  C   UNL     1       6.231   4.824  14.905  0.00  0.00    +0.000 C 
ATOM     24  N   UNL     1       4.960   5.467  15.006  0.00  0.00    +0.000 NA
ATOM     25  N   UNL     1       5.944   6.196  15.217  0.00  0.00    +0.000 NA
BRANCH  23  26
ATOM     26  C   UNL     1       6.816   4.591  13.530  0.00  0.00    +0.000 C 
BRANCH  26  27
ATOM     27  C   UNL     1       6.453   3.274  12.849  0.00  0.00    +0.000 C 
BRANCH  27  29
ATOM     28  C   UNL     1       4.066   3.401  11.346  0.00  0.00    +0.000 C 
ATOM     29  C   UNL     1       5.168   3.342  12.040  0.00  0.00    +0.000 C 
ENDBRANCH  27  29
ENDBRANCH  26  27
ENDBRANCH  23  26
ENDBRANCH  22  23
ENDBRANCH  21  22
ENDBRANCH  17  21
ENDBRANCH   1  19
TORSDOF 8
ENDMDL
MODEL 5
REMARK VINA RESULT:      -7.3      2.813      4.304
REMARK  Name = 
REMARK  9 active torsions:
REMARK  status: ('A' for Active; 'I' for Inactive)
REMARK    1  A    between atoms: C_2  and  C_3
REMARK    2  A    between atoms: C_3  and  C_4
REMARK    3  A    between atoms: C_4  and  C_5
REMARK    4  A    between atoms: C_5  and  C_6
REMARK    5  A    between atoms: C_6  and  C_7
REMARK    6  A    between atoms: C_7  and  C_8
REMARK    7  A    between atoms: N_10  and  C_11
REMARK    8  A    between atoms: C_15  and  C_16
REMARK    9  A    between atoms: C_21  and  C_22
REMARK                            x       y       z     vdW  Elec       q    Type
REMARK                         _______ _______ _______ _____ _____    ______ ____
ROOT
ATOM      1  C   UNL     1       4.025   4.739  19.231  0.00  0.00    +0.000 A 
ATOM      2  C   UNL     1       3.391   3.723  19.958  0.00  0.00    +0.000 A 
ATOM      3  C   UNL     1       2.189   3.934  20.609  0.00  0.00    +0.000 A 
ATOM      4  C   UNL     1       1.641   5.203  20.608  0.00  0.00    +0.000 A 
ATOM      5  C   UNL     1       2.314   6.276  19.995  0.00  0.00    +0.000 A 
ATOM      6  C   UNL     1       3.491   6.036  19.272  0.00  0.00    +0.000 A 
ENDROOT
BRANCH   5   7
ATOM      7  C   UNL     1       1.800   7.617  20.213  0.00  0.00    +0.000 A 
ATOM      8  C   UNL     1       1.544   8.482  19.181  0.00  0.00    +0.000 A 
ATOM      9  N   UNL     1       1.024   9.590  19.767  0.00  0.00    +0.000 N 
ATOM     10  C   UNL     1       0.977   9.378  21.110  0.00  0.00    +0.000 A 
ATOM     11  N   UNL     1       1.438   8.171  21.411  0.00  0.00    +0.000 NA
ATOM     12  C   UNL     1       0.426  10.380  22.062  0.00  0.00    +0.000 C 
ATOM     13  C   UNL     1      -0.708   9.744  22.870  0.00  0.00    +0.000 C 
ATOM     14  C   UNL     1      -0.052  11.694  21.416  0.00  0.00    +0.000 C 
ATOM     15  C   UNL     1      -0.028  11.854  19.895  0.00  0.00    +0.000 C 
ATOM     16  C   UNL     1       0.545  10.734  19.050  0.00  0.00    +0.000 C 
ENDBRANCH   5   7
BRANCH   1  19
ATOM     17  C   UNL     1       6.465   4.886  18.860  0.00  0.00    +0.000 C 
ATOM     18  O   UNL     1       6.768   5.463  19.905  0.00  0.00    +0.000 OA
ATOM     19  N   UNL     1       5.194   4.474  18.475  0.00  0.00    +0.000 N 
ATOM     20  H   UNL     1       5.098   3.857  17.683  0.00  0.00    +0.000 HD
BRANCH  17  21
ATOM     21  C   UNL     1       7.585   4.523  17.915  0.00  0.00    +0.000 C 
BRANCH  21  22
ATOM     22  C   UNL     1       7.114   4.052  16.549  0.00  0.00    +0.000 C 
BRANCH  22  23
ATOM     23  C   UNL     1       6.832   5.189  15.596  0.00  0.00    +0.000 C 
ATOM     24  N   UNL     1       7.629   6.368  15.711  0.00  0.00    +0.000 NA
ATOM     25  N   UNL     1       7.936   5.606  14.779  0.00  0.00    +0.000 NA
BRANCH  23  26
ATOM     26  C   UNL     1       5.475   5.296  14.937  0.00  0.00    +0.000 C 
BRANCH  26  27
ATOM     27  C   UNL     1       4.967   4.049  14.218  0.00  0.00    +0.000 C 
BRANCH  27  29
ATOM     28  C   UNL     1       6.547   3.305  11.998  0.00  0.00    +0.000 C 
ATOM     29  C   UNL     1       5.817   3.649  13.023  0.00  0.00    +0.000 C 
ENDBRANCH  27  29
ENDBRANCH  26  27
ENDBRANCH  23  26
ENDBRANCH  22  23
ENDBRANCH  21  22
ENDBRANCH  17  21
ENDBRANCH   1  19
TORSDOF 8
ENDMDL
MODEL 6
REMARK VINA RESULT:      -7.3      2.812      4.574
REMARK  Name = 
REMARK  9 active torsions:
REMARK  status: ('A' for Active; 'I' for Inactive)
REMARK    1  A    between atoms: C_2  and  C_3
REMARK    2  A    between atoms: C_3  and  C_4
REMARK    3  A    between atoms: C_4  and  C_5
REMARK    4  A    between atoms: C_5  and  C_6
REMARK    5  A    between atoms: C_6  and  C_7
REMARK    6  A    between atoms: C_7  and  C_8
REMARK    7  A    between atoms: N_10  and  C_11
REMARK    8  A    between atoms: C_15  and  C_16
REMARK    9  A    between atoms: C_21  and  C_22
REMARK                            x       y       z     vdW  Elec       q    Type
REMARK                         _______ _______ _______ _____ _____    ______ ____
ROOT
ATOM      1  C   UNL     1       3.743   4.958  19.300  0.00  0.00    +0.000 A 
ATOM      2  C   UNL     1       3.276   4.033  20.243  0.00  0.00    +0.000 A 
ATOM      3  C   UNL     1       2.165   4.287  21.026  0.00  0.00    +0.000 A 
ATOM      4  C   UNL     1       1.549   5.521  20.932  0.00  0.00    +0.000 A 
ATOM      5  C   UNL     1       2.066   6.521  20.088  0.00  0.00    +0.000 A 
ATOM      6  C   UNL     1       3.143   6.226  19.241  0.00  0.00    +0.000 A 
ENDROOT
BRANCH   5   7
ATOM      7  C   UNL     1       1.509   7.858  20.195  0.00  0.00    +0.000 A 
ATOM      8  C   UNL     1       1.039   8.366  21.378  0.00  0.00    +0.000 A 
ATOM      9  N   UNL     1       0.666   9.639  21.095  0.00  0.00    +0.000 N 
ATOM     10  C   UNL     1       0.912   9.872  19.777  0.00  0.00    +0.000 A 
ATOM     11  N   UNL     1       1.439   8.798  19.203  0.00  0.00    +0.000 NA
ATOM     12  C   UNL     1       0.652  11.186  19.133  0.00  0.00    +0.000 C 
ATOM     13  C   UNL     1       1.946  11.705  18.499  0.00  0.00    +0.000 C 
ATOM     14  C   UNL     1       0.048  12.256  20.060  0.00  0.00    +0.000 C 
ATOM     15  C   UNL     1      -0.154  11.957  21.546  0.00  0.00    +0.000 C 
ATOM     16  C   UNL     1       0.177  10.572  22.066  0.00  0.00    +0.000 C 
ENDBRANCH   5   7
BRANCH   1  19
ATOM     17  C   UNL     1       6.144   4.898  18.715  0.00  0.00    +0.000 C 
ATOM     18  O   UNL     1       6.593   5.374  19.759  0.00  0.00    +0.000 OA
ATOM     19  N   UNL     1       4.810   4.634  18.425  0.00  0.00    +0.000 N 
ATOM     20  H   UNL     1       4.584   4.083  17.612  0.00  0.00    +0.000 HD
BRANCH  17  21
ATOM     21  C   UNL     1       7.137   4.493  17.652  0.00  0.00    +0.000 C 
BRANCH  21  22
ATOM     22  C   UNL     1       7.374   5.555  16.590  0.00  0.00    +0.000 C 
BRANCH  22  23
ATOM     23  C   UNL     1       6.409   5.460  15.432  0.00  0.00    +0.000 C 
ATOM     24  N   UNL     1       5.014   5.559  15.718  0.00  0.00    +0.000 NA
ATOM     25  N   UNL     1       5.537   6.586  15.254  0.00  0.00    +0.000 NA
BRANCH  23  26
ATOM     26  C   UNL     1       6.839   4.777  14.153  0.00  0.00    +0.000 C 
BRANCH  26  27
ATOM     27  C   UNL     1       5.850   3.785  13.545  0.00  0.00    +0.000 C 
BRANCH  27  29
ATOM     28  C   UNL     1       6.873   2.402  11.305  0.00  0.00    +0.000 C 
ATOM     29  C   UNL     1       6.400   3.041  12.340  0.00  0.00    +0.000 C 
ENDBRANCH  27  29
ENDBRANCH  26  27
ENDBRANCH  23  26
ENDBRANCH  22  23
ENDBRANCH  21  22
ENDBRANCH  17  21
ENDBRANCH   1  19
TORSDOF 8
ENDMDL
MODEL 7
REMARK VINA RESULT:      -7.0      3.005      4.511
REMARK  Name = 
REMARK  9 active torsions:
REMARK  status: ('A' for Active; 'I' for Inactive)
REMARK    1  A    between atoms: C_2  and  C_3
REMARK    2  A    between atoms: C_3  and  C_4
REMARK    3  A    between atoms: C_4  and  C_5
REMARK    4  A    between atoms: C_5  and  C_6
REMARK    5  A    between atoms: C_6  and  C_7
REMARK    6  A    between atoms: C_7  and  C_8
REMARK    7  A    between atoms: N_10  and  C_11
REMARK    8  A    between atoms: C_15  and  C_16
REMARK    9  A    between atoms: C_21  and  C_22
REMARK                            x       y       z     vdW  Elec       q    Type
REMARK                         _______ _______ _______ _____ _____    ______ ____
ROOT
ATOM      1  C   UNL     1       3.766   4.912  19.423  0.00  0.00    +0.000 A 
ATOM      2  C   UNL     1       3.091   3.927  20.156  0.00  0.00    +0.000 A 
ATOM      3  C   UNL     1       1.890   4.187  20.792  0.00  0.00    +0.000 A 
ATOM      4  C   UNL     1       1.387   5.475  20.770  0.00  0.00    +0.000 A 
ATOM      5  C   UNL     1       2.102   6.517  20.151  0.00  0.00    +0.000 A 
ATOM      6  C   UNL     1       3.277   6.226  19.443  0.00  0.00    +0.000 A 
ENDROOT
BRANCH   5   7
ATOM      7  C   UNL     1       1.633   7.877  20.348  0.00  0.00    +0.000 A 
ATOM      8  C   UNL     1       1.422   8.739  19.304  0.00  0.00    +0.000 A 
ATOM      9  N   UNL     1       0.934   9.871  19.871  0.00  0.00    +0.000 N 
ATOM     10  C   UNL     1       0.860   9.675  21.216  0.00  0.00    +0.000 A 
ATOM     11  N   UNL     1       1.274   8.456  21.535  0.00  0.00    +0.000 NA
ATOM     12  C   UNL     1       0.332  10.706  22.148  0.00  0.00    +0.000 C 
ATOM     13  C   UNL     1      -0.835  10.119  22.947  0.00  0.00    +0.000 C 
ATOM     14  C   UNL     1      -0.091  12.029  21.483  0.00  0.00    +0.000 C 
ATOM     15  C   UNL     1      -0.040  12.172  19.961  0.00  0.00    +0.000 C 
ATOM     16  C   UNL     1       0.505  11.023  19.135  0.00  0.00    +0.000 C 
ENDBRANCH   5   7
BRANCH   1  19
ATOM     17  C   UNL     1       4.943   4.437  17.301  0.00  0.00    +0.000 C 
ATOM     18  O   UNL     1       3.995   4.602  16.532  0.00  0.00    +0.000 OA
ATOM     19  N   UNL     1       4.934   4.597  18.682  0.00  0.00    +0.000 N 
ATOM     20  H   UNL     1       5.809   4.607  19.181  0.00  0.00    +0.000 HD
BRANCH  17  21
ATOM     21  C   UNL     1       6.280   4.087  16.693  0.00  0.00    +0.000 C 
BRANCH  21  22
ATOM     22  C   UNL     1       6.190   3.505  15.292  0.00  0.00    +0.000 C 
BRANCH  22  23
ATOM     23  C   UNL     1       6.630   4.474  14.219  0.00  0.00    +0.000 C 
ATOM     24  N   UNL     1       6.541   5.870  14.506  0.00  0.00    +0.000 NA
ATOM     25  N   UNL     1       7.680   5.380  14.591  0.00  0.00    +0.000 NA
BRANCH  23  26
ATOM     26  C   UNL     1       6.651   4.032  12.773  0.00  0.00    +0.000 C 
BRANCH  26  27
ATOM     27  C   UNL     1       5.428   3.266  12.277  0.00  0.00    +0.000 C 
BRANCH  27  29
ATOM     28  C   UNL     1       6.068   0.865  10.934  0.00  0.00    +0.000 C 
ATOM     29  C   UNL     1       5.773   1.974  11.554  0.00  0.00    +0.000 C 
ENDBRANCH  27  29
ENDBRANCH  26  27
ENDBRANCH  23  26
ENDBRANCH  22  23
ENDBRANCH  21  22
ENDBRANCH  17  21
ENDBRANCH   1  19
TORSDOF 8
ENDMDL
MODEL 8
REMARK VINA RESULT:      -7.0      1.198      1.912
REMARK  Name = 
REMARK  9 active torsions:
REMARK  status: ('A' for Active; 'I' for Inactive)
REMARK    1  A    between atoms: C_2  and  C_3
REMARK    2  A    between atoms: C_3  and  C_4
REMARK    3  A    between atoms: C_4  and  C_5
REMARK    4  A    between atoms: C_5  and  C_6
REMARK    5  A    between atoms: C_6  and  C_7
REMARK    6  A    between atoms: C_7  and  C_8
REMARK    7  A    between atoms: N_10  and  C_11
REMARK    8  A    between atoms: C_15  and  C_16
REMARK    9  A    between atoms: C_21  and  C_22
REMARK                            x       y       z     vdW  Elec       q    Type
REMARK                         _______ _______ _______ _____ _____    ______ ____
ROOT
ATOM      1  C   UNL     1       2.385   7.034  19.586  0.00  0.00    +0.000 A 
ATOM      2  C   UNL     1       2.713   7.351  18.261  0.00  0.00    +0.000 A 
ATOM      3  C   UNL     1       2.376   8.569  17.698  0.00  0.00    +0.000 A 
ATOM      4  C   UNL     1       1.624   9.463  18.438  0.00  0.00    +0.000 A 
ATOM      5  C   UNL     1       1.170   9.127  19.726  0.00  0.00    +0.000 A 
ATOM      6  C   UNL     1       1.583   7.924  20.316  0.00  0.00    +0.000 A 
ENDROOT
BRANCH   5   7
ATOM      7  C   UNL     1       0.210  10.011  20.363  0.00  0.00    +0.000 A 
ATOM      8  C   UNL     1      -0.101   9.921  21.694  0.00  0.00    +0.000 A 
ATOM      9  N   UNL     1      -0.970  10.937  21.927  0.00  0.00    +0.000 N 
ATOM     10  C   UNL     1      -1.161  11.607  20.758  0.00  0.00    +0.000 A 
ATOM     11  N   UNL     1      -0.442  11.066  19.784  0.00  0.00    +0.000 NA
ATOM     12  C   UNL     1      -2.034  12.808  20.656  0.00  0.00    +0.000 C 
ATOM     13  C   UNL     1      -1.219  13.981  20.104  0.00  0.00    +0.000 C 
ATOM     14  C   UNL     1      -2.734  13.215  21.965  0.00  0.00    +0.000 C 
ATOM     15  C   UNL     1      -2.436  12.459  23.261  0.00  0.00    +0.000 C 
ATOM     16  C   UNL     1      -1.506  11.263  23.214  0.00  0.00    +0.000 C 
ENDBRANCH   5   7
BRANCH   1  19
ATOM     17  C   UNL     1       2.097   4.656  20.198  0.00  0.00    +0.000 C 
ATOM     18  O   UNL     1       1.004   4.466  19.662  0.00  0.00    +0.000 OA
ATOM     19  N   UNL     1       2.840   5.831  20.182  0.00  0.00    +0.000 N 
ATOM     20  H   UNL     1       3.796   5.812  20.503  0.00  0.00    +0.000 HD
BRANCH  17  21
ATOM     21  C   UNL     1       2.743   3.483  20.894  0.00  0.00    +0.000 C 
BRANCH  21  22
ATOM     22  C   UNL     1       3.979   2.948  20.188  0.00  0.00    +0.000 C 
BRANCH  22  23
ATOM     23  C   UNL     1       3.704   2.502  18.771  0.00  0.00    +0.000 C 
ATOM     24  N   UNL     1       3.774   1.104  18.488  0.00  0.00    +0.000 NA
ATOM     25  N   UNL     1       2.627   1.566  18.611  0.00  0.00    +0.000 NA
BRANCH  23  26
ATOM     26  C   UNL     1       3.874   3.480  17.631  0.00  0.00    +0.000 C 
BRANCH  26  27
ATOM     27  C   UNL     1       5.136   4.340  17.653  0.00  0.00    +0.000 C 
BRANCH  27  29
ATOM     28  C   UNL     1       5.259   6.218  15.548  0.00  0.00    +0.000 C 
ATOM     29  C   UNL     1       5.202   5.350  16.521  0.00  0.00    +0.000 C 
ENDBRANCH  27  29
ENDBRANCH  26  27
ENDBRANCH  23  26
ENDBRANCH  22  23
ENDBRANCH  21  22
ENDBRANCH  17  21
ENDBRANCH   1  19
TORSDOF 8
ENDMDL
MODEL 9
REMARK VINA RESULT:      -7.0      1.567      2.389
REMARK  Name = 
REMARK  9 active torsions:
REMARK  status: ('A' for Active; 'I' for Inactive)
REMARK    1  A    between atoms: C_2  and  C_3
REMARK    2  A    between atoms: C_3  and  C_4
REMARK    3  A    between atoms: C_4  and  C_5
REMARK    4  A    between atoms: C_5  and  C_6
REMARK    5  A    between atoms: C_6  and  C_7
REMARK    6  A    between atoms: C_7  and  C_8
REMARK    7  A    between atoms: N_10  and  C_11
REMARK    8  A    between atoms: C_15  and  C_16
REMARK    9  A    between atoms: C_21  and  C_22
REMARK                            x       y       z     vdW  Elec       q    Type
REMARK                         _______ _______ _______ _____ _____    ______ ____
ROOT
ATOM      1  C   UNL     1       2.330   7.620  19.257  0.00  0.00    +0.000 A 
ATOM      2  C   UNL     1       2.585   8.058  17.951  0.00  0.00    +0.000 A 
ATOM      3  C   UNL     1       2.140   9.286  17.494  0.00  0.00    +0.000 A 
ATOM      4  C   UNL     1       1.354  10.063  18.324  0.00  0.00    +0.000 A 
ATOM      5  C   UNL     1       0.972   9.599  19.596  0.00  0.00    +0.000 A 
ATOM      6  C   UNL     1       1.493   8.390  20.079  0.00  0.00    +0.000 A 
ENDROOT
BRANCH   5   7
ATOM      7  C   UNL     1      -0.025  10.359  20.328  0.00  0.00    +0.000 A 
ATOM      8  C   UNL     1      -0.279  10.148  21.658  0.00  0.00    +0.000 A 
ATOM      9  N   UNL     1      -1.210  11.076  21.995  0.00  0.00    +0.000 N 
ATOM     10  C   UNL     1      -1.494  11.814  20.887  0.00  0.00    +0.000 A 
ATOM     11  N   UNL     1      -0.773  11.401  19.852  0.00  0.00    +0.000 NA
ATOM     12  C   UNL     1      -2.455  12.949  20.904  0.00  0.00    +0.000 C 
ATOM     13  C   UNL     1      -1.749  14.218  20.418  0.00  0.00    +0.000 C 
ATOM     14  C   UNL     1      -3.134  13.205  22.262  0.00  0.00    +0.000 C 
ATOM     15  C   UNL     1      -2.733  12.381  23.487  0.00  0.00    +0.000 C 
ATOM     16  C   UNL     1      -1.720  11.265  23.319  0.00  0.00    +0.000 C 
ENDBRANCH   5   7
BRANCH   1  19
ATOM     17  C   UNL     1       2.638   5.168  19.181  0.00  0.00    +0.000 C 
ATOM     18  O   UNL     1       1.968   4.937  18.174  0.00  0.00    +0.000 OA
ATOM     19  N   UNL     1       2.893   6.413  19.745  0.00  0.00    +0.000 N 
ATOM     20  H   UNL     1       3.597   6.493  20.461  0.00  0.00    +0.000 HD
BRANCH  17  21
ATOM     21  C   UNL     1       3.317   3.997  19.850  0.00  0.00    +0.000 C 
BRANCH  21  22
ATOM     22  C   UNL     1       4.549   3.494  19.116  0.00  0.00    +0.000 C 
BRANCH  22  23
ATOM     23  C   UNL     1       5.450   4.608  18.638  0.00  0.00    +0.000 C 
ATOM     24  N   UNL     1       5.930   5.538  19.608  0.00  0.00    +0.000 NA
ATOM     25  N   UNL     1       6.745   4.670  19.254  0.00  0.00    +0.000 NA
BRANCH  23  26
ATOM     26  C   UNL     1       5.413   5.032  17.187  0.00  0.00    +0.000 C 
BRANCH  26  27
ATOM     27  C   UNL     1       4.873   4.007  16.192  0.00  0.00    +0.000 C 
BRANCH  27  29
ATOM     28  C   UNL     1       6.251   3.994  13.727  0.00  0.00    +0.000 C 
ATOM     29  C   UNL     1       5.614   4.000  14.865  0.00  0.00    +0.000 C 
ENDBRANCH  27  29
ENDBRANCH  26  27
ENDBRANCH  23  26
ENDBRANCH  22  23
ENDBRANCH  21  22
ENDBRANCH  17  21
ENDBRANCH   1  19
TORSDOF 8
ENDMDL
