MODEL 1
REMARK VINA RESULT:      -8.1      0.000      0.000
REMARK  Name = 
REMARK  5 active torsions:
REMARK  status: ('A' for Active; 'I' for Inactive)
REMARK    1  A    between atoms: C_1  and  N_2
REMARK    2  A    between atoms: C_3  and  C_4
REMARK    3  A    between atoms: N_6  and  C_7
REMARK    4  A    between atoms: C_7  and  C_8
REMARK    5  A    between atoms: C_17  and  C_18
REMARK                            x       y       z     vdW  Elec       q    Type
REMARK                         _______ _______ _______ _____ _____    ______ ____
ROOT
ATOM      1  C   UNL     1       3.196   4.830  20.399  0.00  0.00    +0.000 C 
ATOM      2  N   UNL     1       3.086   5.883  19.408  0.00  0.00    +0.000 N 
ATOM      3  C   UNL     1       3.698   5.953  18.161  0.00  0.00    +0.000 A 
ATOM      4  C   UNL     1       3.300   7.173  17.625  0.00  0.00    +0.000 A 
ATOM      5  C   UNL     1       2.451   7.842  18.536  0.00  0.00    +0.000 A 
ATOM      6  C   UNL     1       1.788   9.085  18.510  0.00  0.00    +0.000 A 
ATOM      7  C   UNL     1       0.992   9.478  19.599  0.00  0.00    +0.000 A 
ATOM      8  C   UNL     1       0.858   8.617  20.695  0.00  0.00    +0.000 A 
ATOM      9  C   UNL     1       1.509   7.378  20.737  0.00  0.00    +0.000 A 
ATOM     10  C   UNL     1       2.311   7.015  19.642  0.00  0.00    +0.000 A 
ENDROOT
BRANCH   3  11
ATOM     11  C   UNL     1       4.571   4.949  17.553  0.00  0.00    +0.000 C 
ATOM     12  O   UNL     1       4.182   3.909  17.029  0.00  0.00    +0.000 OA
ATOM     13  N   UNL     1       5.913   5.251  17.597  0.00  0.00    +0.000 N 
ATOM     14  H   UNL     1       6.235   6.104  18.033  0.00  0.00    +0.000 HD
BRANCH  13  15
ATOM     15  C   UNL     1       6.944   4.396  17.046  0.00  0.00    +0.000 C 
BRANCH  15  16
ATOM     16  C   UNL     1       6.954   4.527  15.539  0.00  0.00    +0.000 A 
ATOM     17  N   UNL     1       7.559   5.479  14.877  0.00  0.00    +0.000 NA
ATOM     18  N   UNL     1       7.291   5.180  13.565  0.00  0.00    +0.000 N 
ATOM     19  C   UNL     1       6.517   4.033  13.474  0.00  0.00    +0.000 A 
ATOM     20  O   UNL     1       6.106   3.492  12.465  0.00  0.00    +0.000 OA
ATOM     21  N   UNL     1       6.313   3.633  14.761  0.00  0.00    +0.000 N 
ATOM     22  H   UNL     1       7.627   5.738  12.790  0.00  0.00    +0.000 HD
ATOM     23  H   UNL     1       5.781   2.819  15.017  0.00  0.00    +0.000 HD
ENDBRANCH  15  16
ENDBRANCH  13  15
ENDBRANCH   3  11
BRANCH   7  24
ATOM     24  C   UNL     1       0.295  10.814  19.600  0.00  0.00    +0.000 C 
ATOM     25  F   UNL     1       1.038  11.821  20.141  0.00  0.00    +0.000 F 
ATOM     26  F   UNL     1      -0.037  11.231  18.346  0.00  0.00    +0.000 F 
ATOM     27  F   UNL     1      -0.870  10.793  20.306  0.00  0.00    +0.000 F 
ENDBRANCH   7  24
TORSDOF 4
ENDMDL
MODEL 2
REMARK VINA RESULT:      -8.0      0.723      1.070
REMARK  Name = 
REMARK  5 active torsions:
REMARK  status: ('A' for Active; 'I' for Inactive)
REMARK    1  A    between atoms: C_1  and  N_2
REMARK    2  A    between atoms: C_3  and  C_4
REMARK    3  A    between atoms: N_6  and  C_7
REMARK    4  A    between atoms: C_7  and  C_8
REMARK    5  A    between atoms: C_17  and  C_18
REMARK                            x       y       z     vdW  Elec       q    Type
REMARK                         _______ _______ _______ _____ _____    ______ ____
ROOT
ATOM      1  C   UNL     1       2.569   5.360  20.755  0.00  0.00    +0.000 C 
ATOM      2  N   UNL     1       2.544   6.348  19.694  0.00  0.00    +0.000 N 
ATOM      3  C   UNL     1       3.187   6.296  18.461  0.00  0.00    +0.000 A 
ATOM      4  C   UNL     1       2.874   7.499  17.834  0.00  0.00    +0.000 A 
ATOM      5  C   UNL     1       2.045   8.276  18.677  0.00  0.00    +0.000 A 
ATOM      6  C   UNL     1       1.459   9.550  18.550  0.00  0.00    +0.000 A 
ATOM      7  C   UNL     1       0.664  10.061  19.589  0.00  0.00    +0.000 A 
ATOM      8  C   UNL     1       0.454   9.286  20.736  0.00  0.00    +0.000 A 
ATOM      9  C   UNL     1       1.029   8.018  20.878  0.00  0.00    +0.000 A 
ATOM     10  C   UNL     1       1.833   7.535  19.832  0.00  0.00    +0.000 A 
ENDROOT
BRANCH   3  11
ATOM     11  C   UNL     1       4.012   5.205  17.944  0.00  0.00    +0.000 C 
ATOM     12  O   UNL     1       3.579   4.227  17.340  0.00  0.00    +0.000 OA
ATOM     13  N   UNL     1       5.361   5.343  18.178  0.00  0.00    +0.000 N 
ATOM     14  H   UNL     1       5.717   6.145  18.681  0.00  0.00    +0.000 HD
BRANCH  13  15
ATOM     15  C   UNL     1       6.351   4.380  17.744  0.00  0.00    +0.000 C 
BRANCH  15  16
ATOM     16  C   UNL     1       6.661   4.601  16.280  0.00  0.00    +0.000 A 
ATOM     17  N   UNL     1       7.459   5.530  15.820  0.00  0.00    +0.000 NA
ATOM     18  N   UNL     1       7.425   5.340  14.461  0.00  0.00    +0.000 N 
ATOM     19  C   UNL     1       6.590   4.280  14.138  0.00  0.00    +0.000 A 
ATOM     20  O   UNL     1       6.338   3.844  13.030  0.00  0.00    +0.000 OA
ATOM     21  N   UNL     1       6.110   3.823  15.329  0.00  0.00    +0.000 N 
ATOM     22  H   UNL     1       7.948   5.910  13.809  0.00  0.00    +0.000 HD
ATOM     23  H   UNL     1       5.474   3.050  15.416  0.00  0.00    +0.000 HD
ENDBRANCH  15  16
ENDBRANCH  13  15
ENDBRANCH   3  11
BRANCH   7  24
ATOM     24  C   UNL     1       0.046  11.433  19.483  0.00  0.00    +0.000 C 
ATOM     25  F   UNL     1      -0.214  11.819  18.201  0.00  0.00    +0.000 F 
ATOM     26  F   UNL     1      -1.140  11.525  20.145  0.00  0.00    +0.000 F 
ATOM     27  F   UNL     1       0.843  12.405  20.007  0.00  0.00    +0.000 F 
ENDBRANCH   7  24
TORSDOF 4
ENDMDL
MODEL 3
REMARK VINA RESULT:      -8.0      5.279      8.062
REMARK  Name = 
REMARK  5 active torsions:
REMARK  status: ('A' for Active; 'I' for Inactive)
REMARK    1  A    between atoms: C_1  and  N_2
REMARK    2  A    between atoms: C_3  and  C_4
REMARK    3  A    between atoms: N_6  and  C_7
REMARK    4  A    between atoms: C_7  and  C_8
REMARK    5  A    between atoms: C_17  and  C_18
REMARK                            x       y       z     vdW  Elec       q    Type
REMARK                         _______ _______ _______ _____ _____    ______ ____
ROOT
ATOM      1  C   UNL     1       1.786   5.600  20.511  0.00  0.00    +0.000 C 
ATOM      2  N   UNL     1       2.448   6.318  19.439  0.00  0.00    +0.000 N 
ATOM      3  C   UNL     1       2.296   7.655  19.083  0.00  0.00    +0.000 A 
ATOM      4  C   UNL     1       3.118   7.834  17.975  0.00  0.00    +0.000 A 
ATOM      5  C   UNL     1       3.768   6.619  17.659  0.00  0.00    +0.000 A 
ATOM      6  C   UNL     1       4.677   6.239  16.653  0.00  0.00    +0.000 A 
ATOM      7  C   UNL     1       5.156   4.919  16.603  0.00  0.00    +0.000 A 
ATOM      8  C   UNL     1       4.731   3.999  17.569  0.00  0.00    +0.000 A 
ATOM      9  C   UNL     1       3.828   4.360  18.577  0.00  0.00    +0.000 A 
ATOM     10  C   UNL     1       3.351   5.682  18.596  0.00  0.00    +0.000 A 
ENDROOT
BRANCH   3  11
ATOM     11  C   UNL     1       1.450   8.650  19.741  0.00  0.00    +0.000 C 
ATOM     12  O   UNL     1       1.306   8.751  20.957  0.00  0.00    +0.000 OA
ATOM     13  N   UNL     1       0.799   9.508  18.885  0.00  0.00    +0.000 N 
ATOM     14  H   UNL     1       0.912   9.421  17.884  0.00  0.00    +0.000 HD
BRANCH  13  15
ATOM     15  C   UNL     1      -0.080  10.569  19.331  0.00  0.00    +0.000 C 
BRANCH  15  16
ATOM     16  C   UNL     1      -1.092  10.873  18.249  0.00  0.00    +0.000 A 
ATOM     17  N   UNL     1      -1.818  11.960  18.191  0.00  0.00    +0.000 NA
ATOM     18  N   UNL     1      -2.569  11.786  17.057  0.00  0.00    +0.000 N 
ATOM     19  C   UNL     1      -2.267  10.574  16.452  0.00  0.00    +0.000 A 
ATOM     20  O   UNL     1      -2.745  10.112  15.434  0.00  0.00    +0.000 OA
ATOM     21  N   UNL     1      -1.313  10.006  17.243  0.00  0.00    +0.000 N 
ATOM     22  H   UNL     1      -3.243  12.465  16.729  0.00  0.00    +0.000 HD
ATOM     23  H   UNL     1      -0.892   9.112  17.057  0.00  0.00    +0.000 HD
ENDBRANCH  15  16
ENDBRANCH  13  15
ENDBRANCH   3  11
BRANCH   7  24
ATOM     24  C   UNL     1       6.111   4.488  15.520  0.00  0.00    +0.000 C 
ATOM     25  F   UNL     1       7.422   4.709  15.823  0.00  0.00    +0.000 F 
ATOM     26  F   UNL     1       6.016   3.158  15.238  0.00  0.00    +0.000 F 
ATOM     27  F   UNL     1       5.890   5.135  14.342  0.00  0.00    +0.000 F 
ENDBRANCH   7  24
TORSDOF 4
ENDMDL
MODEL 4
REMARK VINA RESULT:      -8.0      5.686      8.312
REMARK  Name = 
REMARK  5 active torsions:
REMARK  status: ('A' for Active; 'I' for Inactive)
REMARK    1  A    between atoms: C_1  and  N_2
REMARK    2  A    between atoms: C_3  and  C_4
REMARK    3  A    between atoms: N_6  and  C_7
REMARK    4  A    between atoms: C_7  and  C_8
REMARK    5  A    between atoms: C_17  and  C_18
REMARK                            x       y       z     vdW  Elec       q    Type
REMARK                         _______ _______ _______ _____ _____    ______ ____
ROOT
ATOM      1  C   UNL     1       0.840   8.474  21.052  0.00  0.00    +0.000 C 
ATOM      2  N   UNL     1       1.508   8.394  19.767  0.00  0.00    +0.000 N 
ATOM      3  C   UNL     1       1.454   9.304  18.717  0.00  0.00    +0.000 A 
ATOM      4  C   UNL     1       2.233   8.745  17.708  0.00  0.00    +0.000 A 
ATOM      5  C   UNL     1       2.760   7.506  18.141  0.00  0.00    +0.000 A 
ATOM      6  C   UNL     1       3.582   6.538  17.533  0.00  0.00    +0.000 A 
ATOM      7  C   UNL     1       3.943   5.380  18.242  0.00  0.00    +0.000 A 
ATOM      8  C   UNL     1       3.488   5.212  19.556  0.00  0.00    +0.000 A 
ATOM      9  C   UNL     1       2.671   6.165  20.175  0.00  0.00    +0.000 A 
ATOM     10  C   UNL     1       2.311   7.307  19.439  0.00  0.00    +0.000 A 
ENDROOT
BRANCH   3  11
ATOM     11  C   UNL     1       0.731  10.575  18.689  0.00  0.00    +0.000 C 
ATOM     12  O   UNL     1       1.185  11.646  19.080  0.00  0.00    +0.000 OA
ATOM     13  N   UNL     1      -0.543  10.501  18.174  0.00  0.00    +0.000 N 
ATOM     14  H   UNL     1      -0.920   9.618  17.858  0.00  0.00    +0.000 HD
BRANCH  13  15
ATOM     15  C   UNL     1      -1.424  11.643  18.052  0.00  0.00    +0.000 C 
BRANCH  15  16
ATOM     16  C   UNL     1      -2.546  11.314  17.092  0.00  0.00    +0.000 A 
ATOM     17  N   UNL     1      -3.816  11.519  17.331  0.00  0.00    +0.000 NA
ATOM     18  N   UNL     1      -4.435  11.071  16.192  0.00  0.00    +0.000 N 
ATOM     19  C   UNL     1      -3.500  10.600  15.281  0.00  0.00    +0.000 A 
ATOM     20  O   UNL     1      -3.707  10.138  14.175  0.00  0.00    +0.000 OA
ATOM     21  N   UNL     1      -2.291  10.767  15.888  0.00  0.00    +0.000 N 
ATOM     22  H   UNL     1      -5.438  11.094  16.061  0.00  0.00    +0.000 HD
ATOM     23  H   UNL     1      -1.414  10.515  15.467  0.00  0.00    +0.000 HD
ENDBRANCH  15  16
ENDBRANCH  13  15
ENDBRANCH   3  11
BRANCH   7  24
ATOM     24  C   UNL     1       4.803   4.321  17.601  0.00  0.00    +0.000 C 
ATOM     25  F   UNL     1       6.064   4.254  18.113  0.00  0.00    +0.000 F 
ATOM     26  F   UNL     1       4.280   3.070  17.737  0.00  0.00    +0.000 F 
ATOM     27  F   UNL     1       4.958   4.517  16.261  0.00  0.00    +0.000 F 
ENDBRANCH   7  24
TORSDOF 4
ENDMDL
MODEL 5
REMARK VINA RESULT:      -8.0      2.465      3.651
REMARK  Name = 
REMARK  5 active torsions:
REMARK  status: ('A' for Active; 'I' for Inactive)
REMARK    1  A    between atoms: C_1  and  N_2
REMARK    2  A    between atoms: C_3  and  C_4
REMARK    3  A    between atoms: N_6  and  C_7
REMARK    4  A    between atoms: C_7  and  C_8
REMARK    5  A    between atoms: C_17  and  C_18
REMARK                            x       y       z     vdW  Elec       q    Type
REMARK                         _______ _______ _______ _____ _____    ______ ____
ROOT
ATOM      1  C   UNL     1       2.502   8.682  17.538  0.00  0.00    +0.000 C 
ATOM      2  N   UNL     1       2.007   8.328  18.855  0.00  0.00    +0.000 N 
ATOM      3  C   UNL     1       2.146   7.117  19.523  0.00  0.00    +0.000 A 
ATOM      4  C   UNL     1       1.463   7.282  20.725  0.00  0.00    +0.000 A 
ATOM      5  C   UNL     1       0.915   8.583  20.789  0.00  0.00    +0.000 A 
ATOM      6  C   UNL     1       0.139   9.262  21.749  0.00  0.00    +0.000 A 
ATOM      7  C   UNL     1      -0.261  10.588  21.517  0.00  0.00    +0.000 A 
ATOM      8  C   UNL     1       0.132  11.224  20.333  0.00  0.00    +0.000 A 
ATOM      9  C   UNL     1       0.904  10.565  19.369  0.00  0.00    +0.000 A 
ATOM     10  C   UNL     1       1.278   9.234  19.617  0.00  0.00    +0.000 A 
ENDROOT
BRANCH   3  11
ATOM     11  C   UNL     1       2.860   5.930  19.055  0.00  0.00    +0.000 C 
ATOM     12  O   UNL     1       2.816   5.494  17.908  0.00  0.00    +0.000 OA
ATOM     13  N   UNL     1       3.623   5.302  20.013  0.00  0.00    +0.000 N 
ATOM     14  H   UNL     1       3.654   5.656  20.960  0.00  0.00    +0.000 HD
BRANCH  13  15
ATOM     15  C   UNL     1       4.412   4.116  19.756  0.00  0.00    +0.000 C 
BRANCH  15  16
ATOM     16  C   UNL     1       5.728   4.514  19.123  0.00  0.00    +0.000 A 
ATOM     17  N   UNL     1       6.661   5.211  19.717  0.00  0.00    +0.000 NA
ATOM     18  N   UNL     1       7.641   5.316  18.764  0.00  0.00    +0.000 N 
ATOM     19  C   UNL     1       7.262   4.665  17.600  0.00  0.00    +0.000 A 
ATOM     20  O   UNL     1       7.895   4.563  16.566  0.00  0.00    +0.000 OA
ATOM     21  N   UNL     1       6.023   4.158  17.858  0.00  0.00    +0.000 N 
ATOM     22  H   UNL     1       8.513   5.807  18.918  0.00  0.00    +0.000 HD
ATOM     23  H   UNL     1       5.486   3.627  17.194  0.00  0.00    +0.000 HD
ENDBRANCH  15  16
ENDBRANCH  13  15
ENDBRANCH   3  11
BRANCH   7  24
ATOM     24  C   UNL     1      -1.112  11.323  22.521  0.00  0.00    +0.000 C 
ATOM     25  F   UNL     1      -2.302  11.757  22.019  0.00  0.00    +0.000 F 
ATOM     26  F   UNL     1      -1.423  10.555  23.603  0.00  0.00    +0.000 F 
ATOM     27  F   UNL     1      -0.493  12.431  23.016  0.00  0.00    +0.000 F 
ENDBRANCH   7  24
TORSDOF 4
ENDMDL
MODEL 6
REMARK VINA RESULT:      -7.7      5.702      8.485
REMARK  Name = 
REMARK  5 active torsions:
REMARK  status: ('A' for Active; 'I' for Inactive)
REMARK    1  A    between atoms: C_1  and  N_2
REMARK    2  A    between atoms: C_3  and  C_4
REMARK    3  A    between atoms: N_6  and  C_7
REMARK    4  A    between atoms: C_7  and  C_8
REMARK    5  A    between atoms: C_17  and  C_18
REMARK                            x       y       z     vdW  Elec       q    Type
REMARK                         _______ _______ _______ _____ _____    ______ ____
ROOT
ATOM      1  C   UNL     1       2.378   8.841  17.815  0.00  0.00    +0.000 C 
ATOM      2  N   UNL     1       2.024   8.061  18.985  0.00  0.00    +0.000 N 
ATOM      3  C   UNL     1       1.298   8.470  20.098  0.00  0.00    +0.000 A 
ATOM      4  C   UNL     1       1.272   7.365  20.945  0.00  0.00    +0.000 A 
ATOM      5  C   UNL     1       1.975   6.292  20.351  0.00  0.00    +0.000 A 
ATOM      6  C   UNL     1       2.264   4.977  20.765  0.00  0.00    +0.000 A 
ATOM      7  C   UNL     1       3.004   4.125  19.927  0.00  0.00    +0.000 A 
ATOM      8  C   UNL     1       3.434   4.596  18.680  0.00  0.00    +0.000 A 
ATOM      9  C   UNL     1       3.155   5.899  18.254  0.00  0.00    +0.000 A 
ATOM     10  C   UNL     1       2.427   6.736  19.116  0.00  0.00    +0.000 A 
ENDROOT
BRANCH   3  11
ATOM     11  C   UNL     1       0.693   9.783  20.321  0.00  0.00    +0.000 C 
ATOM     12  O   UNL     1       1.132  10.633  21.092  0.00  0.00    +0.000 OA
ATOM     13  N   UNL     1      -0.442  10.026  19.583  0.00  0.00    +0.000 N 
ATOM     14  H   UNL     1      -0.807   9.324  18.953  0.00  0.00    +0.000 HD
BRANCH  13  15
ATOM     15  C   UNL     1      -1.190  11.265  19.649  0.00  0.00    +0.000 C 
BRANCH  15  16
ATOM     16  C   UNL     1      -2.094  11.373  18.441  0.00  0.00    +0.000 A 
ATOM     17  N   UNL     1      -3.286  11.911  18.448  0.00  0.00    +0.000 NA
ATOM     18  N   UNL     1      -3.706  11.779  17.149  0.00  0.00    +0.000 N 
ATOM     19  C   UNL     1      -2.734  11.152  16.382  0.00  0.00    +0.000 A 
ATOM     20  O   UNL     1      -2.782  10.884  15.197  0.00  0.00    +0.000 OA
ATOM     21  N   UNL     1      -1.707  10.900  17.241  0.00  0.00    +0.000 N 
ATOM     22  H   UNL     1      -4.607  12.105  16.822  0.00  0.00    +0.000 HD
ATOM     23  H   UNL     1      -0.850  10.448  16.971  0.00  0.00    +0.000 HD
ENDBRANCH  15  16
ENDBRANCH  13  15
ENDBRANCH   3  11
BRANCH   7  24
ATOM     24  C   UNL     1       3.343   2.722  20.362  0.00  0.00    +0.000 C 
ATOM     25  F   UNL     1       2.740   1.755  19.614  0.00  0.00    +0.000 F 
ATOM     26  F   UNL     1       4.679   2.463  20.296  0.00  0.00    +0.000 F 
ATOM     27  F   UNL     1       2.978   2.474  21.651  0.00  0.00    +0.000 F 
ENDBRANCH   7  24
TORSDOF 4
ENDMDL
MODEL 7
REMARK VINA RESULT:      -7.7      5.462      8.191
REMARK  Name = 
REMARK  5 active torsions:
REMARK  status: ('A' for Active; 'I' for Inactive)
REMARK    1  A    between atoms: C_1  and  N_2
REMARK    2  A    between atoms: C_3  and  C_4
REMARK    3  A    between atoms: N_6  and  C_7
REMARK    4  A    between atoms: C_7  and  C_8
REMARK    5  A    between atoms: C_17  and  C_18
REMARK                            x       y       z     vdW  Elec       q    Type
REMARK                         _______ _______ _______ _____ _____    ______ ____
ROOT
ATOM      1  C   UNL     1       1.601   6.252  20.599  0.00  0.00    +0.000 C 
ATOM      2  N   UNL     1       2.299   6.817  19.460  0.00  0.00    +0.000 N 
ATOM      3  C   UNL     1       2.123   8.071  18.885  0.00  0.00    +0.000 A 
ATOM      4  C   UNL     1       3.001   8.106  17.806  0.00  0.00    +0.000 A 
ATOM      5  C   UNL     1       3.708   6.884  17.725  0.00  0.00    +0.000 A 
ATOM      6  C   UNL     1       4.686   6.387  16.842  0.00  0.00    +0.000 A 
ATOM      7  C   UNL     1       5.211   5.098  17.031  0.00  0.00    +0.000 A 
ATOM      8  C   UNL     1       4.762   4.327  18.110  0.00  0.00    +0.000 A 
ATOM      9  C   UNL     1       3.792   4.806  18.998  0.00  0.00    +0.000 A 
ATOM     10  C   UNL     1       3.270   6.092  18.778  0.00  0.00    +0.000 A 
ENDROOT
BRANCH   3  11
ATOM     11  C   UNL     1       1.208   9.122  19.329  0.00  0.00    +0.000 C 
ATOM     12  O   UNL     1       1.098   9.510  20.489  0.00  0.00    +0.000 OA
ATOM     13  N   UNL     1       0.446   9.682  18.329  0.00  0.00    +0.000 N 
ATOM     14  H   UNL     1       0.531   9.359  17.374  0.00  0.00    +0.000 HD
BRANCH  13  15
ATOM     15  C   UNL     1      -0.516  10.741  18.553  0.00  0.00    +0.000 C 
BRANCH  15  16
ATOM     16  C   UNL     1      -1.706  10.543  17.640  0.00  0.00    +0.000 A 
ATOM     17  N   UNL     1      -2.681   9.699  17.858  0.00  0.00    +0.000 NA
ATOM     18  N   UNL     1      -3.508   9.875  16.778  0.00  0.00    +0.000 N 
ATOM     19  C   UNL     1      -2.995  10.841  15.924  0.00  0.00    +0.000 A 
ATOM     20  O   UNL     1      -3.477  11.241  14.880  0.00  0.00    +0.000 OA
ATOM     21  N   UNL     1      -1.833  11.253  16.503  0.00  0.00    +0.000 N 
ATOM     22  H   UNL     1      -4.368   9.359  16.648  0.00  0.00    +0.000 HD
ATOM     23  H   UNL     1      -1.231  11.957  16.111  0.00  0.00    +0.000 HD
ENDBRANCH  15  16
ENDBRANCH  13  15
ENDBRANCH   3  11
BRANCH   7  24
ATOM     24  C   UNL     1       6.241   4.539  16.083  0.00  0.00    +0.000 C 
ATOM     25  F   UNL     1       5.911   3.320  15.570  0.00  0.00    +0.000 F 
ATOM     26  F   UNL     1       6.454   5.348  15.007  0.00  0.00    +0.000 F 
ATOM     27  F   UNL     1       7.458   4.376  16.672  0.00  0.00    +0.000 F 
ENDBRANCH   7  24
TORSDOF 4
ENDMDL
MODEL 8
REMARK VINA RESULT:      -7.6      2.032      3.087
REMARK  Name = 
REMARK  5 active torsions:
REMARK  status: ('A' for Active; 'I' for Inactive)
REMARK    1  A    between atoms: C_1  and  N_2
REMARK    2  A    between atoms: C_3  and  C_4
REMARK    3  A    between atoms: N_6  and  C_7
REMARK    4  A    between atoms: C_7  and  C_8
REMARK    5  A    between atoms: C_17  and  C_18
REMARK                            x       y       z     vdW  Elec       q    Type
REMARK                         _______ _______ _______ _____ _____    ______ ____
ROOT
ATOM      1  C   UNL     1       2.626   8.120  17.681  0.00  0.00    +0.000 C 
ATOM      2  N   UNL     1       2.101   7.919  19.018  0.00  0.00    +0.000 N 
ATOM      3  C   UNL     1       2.180   6.775  19.805  0.00  0.00    +0.000 A 
ATOM      4  C   UNL     1       1.492   7.086  20.974  0.00  0.00    +0.000 A 
ATOM      5  C   UNL     1       0.998   8.409  20.900  0.00  0.00    +0.000 A 
ATOM      6  C   UNL     1       0.240   9.211  21.776  0.00  0.00    +0.000 A 
ATOM      7  C   UNL     1      -0.101  10.523  21.408  0.00  0.00    +0.000 A 
ATOM      8  C   UNL     1       0.332  11.022  20.173  0.00  0.00    +0.000 A 
ATOM      9  C   UNL     1       1.087  10.239  19.291  0.00  0.00    +0.000 A 
ATOM     10  C   UNL     1       1.402   8.925  19.676  0.00  0.00    +0.000 A 
ENDROOT
BRANCH   3  11
ATOM     11  C   UNL     1       2.850   5.519  19.468  0.00  0.00    +0.000 C 
ATOM     12  O   UNL     1       2.283   4.518  19.038  0.00  0.00    +0.000 OA
ATOM     13  N   UNL     1       4.212   5.523  19.663  0.00  0.00    +0.000 N 
ATOM     14  H   UNL     1       4.678   6.344  20.023  0.00  0.00    +0.000 HD
BRANCH  13  15
ATOM     15  C   UNL     1       5.063   4.385  19.385  0.00  0.00    +0.000 C 
BRANCH  15  16
ATOM     16  C   UNL     1       5.944   4.693  18.194  0.00  0.00    +0.000 A 
ATOM     17  N   UNL     1       7.237   4.507  18.156  0.00  0.00    +0.000 NA
ATOM     18  N   UNL     1       7.586   4.924  16.897  0.00  0.00    +0.000 N 
ATOM     19  C   UNL     1       6.468   5.357  16.199  0.00  0.00    +0.000 A 
ATOM     20  O   UNL     1       6.422   5.786  15.061  0.00  0.00    +0.000 OA
ATOM     21  N   UNL     1       5.423   5.200  17.060  0.00  0.00    +0.000 N 
ATOM     22  H   UNL     1       8.537   4.905  16.550  0.00  0.00    +0.000 HD
ATOM     23  H   UNL     1       4.472   5.431  16.833  0.00  0.00    +0.000 HD
ENDBRANCH  15  16
ENDBRANCH  13  15
ENDBRANCH   3  11
BRANCH   7  24
ATOM     24  C   UNL     1      -0.932  11.388  22.321  0.00  0.00    +0.000 C 
ATOM     25  F   UNL     1      -0.326  12.558  22.669  0.00  0.00    +0.000 F 
ATOM     26  F   UNL     1      -2.125  11.739  21.766  0.00  0.00    +0.000 F 
ATOM     27  F   UNL     1      -1.235  10.765  23.495  0.00  0.00    +0.000 F 
ENDBRANCH   7  24
TORSDOF 4
ENDMDL
MODEL 9
REMARK VINA RESULT:      -7.6      1.252      1.557
REMARK  Name = 
REMARK  5 active torsions:
REMARK  status: ('A' for Active; 'I' for Inactive)
REMARK    1  A    between atoms: C_1  and  N_2
REMARK    2  A    between atoms: C_3  and  C_4
REMARK    3  A    between atoms: N_6  and  C_7
REMARK    4  A    between atoms: C_7  and  C_8
REMARK    5  A    between atoms: C_17  and  C_18
REMARK                            x       y       z     vdW  Elec       q    Type
REMARK                         _______ _______ _______ _____ _____    ______ ____
ROOT
ATOM      1  C   UNL     1       2.228   5.847  20.728  0.00  0.00    +0.000 C 
ATOM      2  N   UNL     1       2.389   6.754  19.609  0.00  0.00    +0.000 N 
ATOM      3  C   UNL     1       3.135   6.560  18.451  0.00  0.00    +0.000 A 
ATOM      4  C   UNL     1       2.991   7.737  17.721  0.00  0.00    +0.000 A 
ATOM      5  C   UNL     1       2.163   8.640  18.427  0.00  0.00    +0.000 A 
ATOM      6  C   UNL     1       1.708   9.946  18.164  0.00  0.00    +0.000 A 
ATOM      7  C   UNL     1       0.871  10.596  19.086  0.00  0.00    +0.000 A 
ATOM      8  C   UNL     1       0.488   9.926  20.254  0.00  0.00    +0.000 A 
ATOM      9  C   UNL     1       0.931   8.627  20.531  0.00  0.00    +0.000 A 
ATOM     10  C   UNL     1       1.779   8.004  19.601  0.00  0.00    +0.000 A 
ENDROOT
BRANCH   3  11
ATOM     11  C   UNL     1       3.901   5.369  18.087  0.00  0.00    +0.000 C 
ATOM     12  O   UNL     1       3.408   4.293  17.760  0.00  0.00    +0.000 OA
ATOM     13  N   UNL     1       5.268   5.529  18.128  0.00  0.00    +0.000 N 
ATOM     14  H   UNL     1       5.674   6.413  18.403  0.00  0.00    +0.000 HD
BRANCH  13  15
ATOM     15  C   UNL     1       6.206   4.477  17.798  0.00  0.00    +0.000 C 
BRANCH  15  16
ATOM     16  C   UNL     1       6.457   4.476  16.306  0.00  0.00    +0.000 A 
ATOM     17  N   UNL     1       5.884   3.665  15.455  0.00  0.00    +0.000 NA
ATOM     18  N   UNL     1       6.417   4.037  14.247  0.00  0.00    +0.000 N 
ATOM     19  C   UNL     1       7.314   5.083  14.410  0.00  0.00    +0.000 A 
ATOM     20  O   UNL     1       7.958   5.651  13.548  0.00  0.00    +0.000 OA
ATOM     21  N   UNL     1       7.322   5.344  15.748  0.00  0.00    +0.000 N 
ATOM     22  H   UNL     1       6.171   3.592  13.372  0.00  0.00    +0.000 HD
ATOM     23  H   UNL     1       7.883   6.061  16.175  0.00  0.00    +0.000 HD
ENDBRANCH  15  16
ENDBRANCH  13  15
ENDBRANCH   3  11
BRANCH   7  24
ATOM     24  C   UNL     1       0.394  12.003  18.833  0.00  0.00    +0.000 C 
ATOM     25  F   UNL     1       0.079  12.689  19.968  0.00  0.00    +0.000 F 
ATOM     26  F   UNL     1       1.322  12.763  18.187  0.00  0.00    +0.000 F 
ATOM     27  F   UNL     1      -0.725  12.042  18.056  0.00  0.00    +0.000 F 
ENDBRANCH   7  24
TORSDOF 4
ENDMDL
