MODEL 1
REMARK VINA RESULT:      -9.3      0.000      0.000
REMARK  Name = 
REMARK  8 active torsions:
REMARK  status: ('A' for Active; 'I' for Inactive)
REMARK    1  A    between atoms: C_1  and  C_2
REMARK    2  A    between atoms: C_4  and  C_5
REMARK    3  A    between atoms: C_8  and  C_9
REMARK    4  A    between atoms: N_11  and  C_12
REMARK    5  A    between atoms: C_16  and  S_17
REMARK    6  A    between atoms: S_17  and  N_20
REMARK    7  A    between atoms: N_20  and  C_21
REMARK    8  A    between atoms: C_27  and  C_28
REMARK                            x       y       z     vdW  Elec       q    Type
REMARK                         _______ _______ _______ _____ _____    ______ ____
ROOT
ATOM      1  C   UNL     1       2.220   8.203  18.286  0.00  0.00    +0.000 C 
ATOM      2  O   UNL     1       2.415   8.601  17.143  0.00  0.00    +0.000 OA
ATOM      3  N   UNL     1       2.586   6.957  18.772  0.00  0.00    +0.000 N 
ATOM      4  H   UNL     1       2.245   6.721  19.692  0.00  0.00    +0.000 HD
ENDROOT
BRANCH   1  12
ATOM      5  C   UNL     1      -2.470  13.237  21.119  0.00  0.00    +0.000 C 
ATOM      6  C   UNL     1      -1.454  12.124  21.038  0.00  0.00    +0.000 A 
ATOM      7  C   UNL     1      -1.214  11.352  22.183  0.00  0.00    +0.000 A 
ATOM      8  C   UNL     1      -0.318  10.268  22.184  0.00  0.00    +0.000 A 
ATOM      9  C   UNL     1      -0.110   9.476  23.443  0.00  0.00    +0.000 C 
ATOM     10  C   UNL     1       0.333   9.955  20.970  0.00  0.00    +0.000 A 
ATOM     11  C   UNL     1       1.237   8.918  20.586  0.00  0.00    +0.000 A 
ATOM     12  C   UNL     1       1.488   9.030  19.232  0.00  0.00    +0.000 A 
ATOM     13  N   UNL     1       0.858  10.190  18.828  0.00  0.00    +0.000 N 
ATOM     14  C   UNL     1       0.101  10.739  19.841  0.00  0.00    +0.000 A 
ATOM     15  C   UNL     1      -0.766  11.854  19.830  0.00  0.00    +0.000 A 
ATOM     16  C   UNL     1      -0.991  12.709  18.612  0.00  0.00    +0.000 C 
ATOM     17  H   UNL     1       0.895  10.531  17.877  0.00  0.00    +0.000 HD
ENDBRANCH   1  12
BRANCH   3  18
ATOM     18  C   UNL     1       3.226   5.916  18.061  0.00  0.00    +0.000 A 
ATOM     19  C   UNL     1       2.674   4.642  17.892  0.00  0.00    +0.000 A 
ATOM     20  C   UNL     1       3.379   3.636  17.222  0.00  0.00    +0.000 A 
ATOM     21  C   UNL     1       4.647   3.893  16.710  0.00  0.00    +0.000 A 
ATOM     22  C   UNL     1       5.196   5.168  16.856  0.00  0.00    +0.000 A 
ATOM     23  C   UNL     1       4.490   6.183  17.516  0.00  0.00    +0.000 A 
BRANCH  22  24
ATOM     24  S   UNL     1       6.840   5.473  16.273  0.00  0.00    +0.000 S 
ATOM     25  O   UNL     1       7.176   6.839  16.615  0.00  0.00    +0.000 OA
ATOM     26  O   UNL     1       7.692   4.369  16.672  0.00  0.00    +0.000 OA
BRANCH  24  27
ATOM     27  N   UNL     1       6.682   5.431  14.592  0.00  0.00    +0.000 NA
ATOM     28  H   UNL     1       7.241   6.173  14.167  0.00  0.00    +0.000 HD
BRANCH  27  29
ATOM     29  C   UNL     1       6.720   4.122  13.942  0.00  0.00    +0.000 C 
ATOM     30  C   UNL     1       6.919   4.019  12.455  0.00  0.00    +0.000 C 
ATOM     31  C   UNL     1       5.584   3.692  13.057  0.00  0.00    +0.000 C 
ENDBRANCH  27  29
ENDBRANCH  24  27
ENDBRANCH  22  24
ENDBRANCH   3  18
TORSDOF 5
ENDMDL
MODEL 2
REMARK VINA RESULT:      -9.0      0.664      2.023
REMARK  Name = 
REMARK  8 active torsions:
REMARK  status: ('A' for Active; 'I' for Inactive)
REMARK    1  A    between atoms: C_1  and  C_2
REMARK    2  A    between atoms: C_4  and  C_5
REMARK    3  A    between atoms: C_8  and  C_9
REMARK    4  A    between atoms: N_11  and  C_12
REMARK    5  A    between atoms: C_16  and  S_17
REMARK    6  A    between atoms: S_17  and  N_20
REMARK    7  A    between atoms: N_20  and  C_21
REMARK    8  A    between atoms: C_27  and  C_28
REMARK                            x       y       z     vdW  Elec       q    Type
REMARK                         _______ _______ _______ _____ _____    ______ ____
ROOT
ATOM      1  C   UNL     1       2.397   8.088  18.017  0.00  0.00    +0.000 C 
ATOM      2  O   UNL     1       3.119   8.546  17.139  0.00  0.00    +0.000 OA
ATOM      3  N   UNL     1       2.385   6.766  18.434  0.00  0.00    +0.000 N 
ATOM      4  H   UNL     1       1.647   6.507  19.073  0.00  0.00    +0.000 HD
ENDROOT
BRANCH   1  12
ATOM      5  C   UNL     1      -1.445  11.800  23.196  0.00  0.00    +0.000 C 
ATOM      6  C   UNL     1      -0.990  11.297  21.849  0.00  0.00    +0.000 A 
ATOM      7  C   UNL     1      -1.423  11.975  20.700  0.00  0.00    +0.000 A 
ATOM      8  C   UNL     1      -1.011  11.602  19.408  0.00  0.00    +0.000 A 
ATOM      9  C   UNL     1      -1.507  12.373  18.218  0.00  0.00    +0.000 C 
ATOM     10  C   UNL     1      -0.113  10.518  19.294  0.00  0.00    +0.000 A 
ATOM     11  C   UNL     1       0.549   9.911  18.182  0.00  0.00    +0.000 A 
ATOM     12  C   UNL     1       1.402   8.933  18.658  0.00  0.00    +0.000 A 
ATOM     13  N   UNL     1       1.164   8.854  20.015  0.00  0.00    +0.000 N 
ATOM     14  C   UNL     1       0.298   9.839  20.440  0.00  0.00    +0.000 A 
ATOM     15  C   UNL     1      -0.133  10.175  21.743  0.00  0.00    +0.000 A 
ATOM     16  C   UNL     1       0.298   9.421  22.971  0.00  0.00    +0.000 C 
ATOM     17  H   UNL     1       1.641   8.197  20.618  0.00  0.00    +0.000 HD
ENDBRANCH   1  12
BRANCH   3  18
ATOM     18  C   UNL     1       3.172   5.704  17.933  0.00  0.00    +0.000 A 
ATOM     19  C   UNL     1       2.792   4.360  18.001  0.00  0.00    +0.000 A 
ATOM     20  C   UNL     1       3.639   3.349  17.533  0.00  0.00    +0.000 A 
ATOM     21  C   UNL     1       4.878   3.670  16.990  0.00  0.00    +0.000 A 
ATOM     22  C   UNL     1       5.257   5.010  16.900  0.00  0.00    +0.000 A 
ATOM     23  C   UNL     1       4.408   6.028  17.356  0.00  0.00    +0.000 A 
BRANCH  22  24
ATOM     24  S   UNL     1       6.866   5.414  16.281  0.00  0.00    +0.000 S 
ATOM     25  O   UNL     1       7.127   6.797  16.618  0.00  0.00    +0.000 OA
ATOM     26  O   UNL     1       7.792   4.362  16.657  0.00  0.00    +0.000 OA
BRANCH  24  27
ATOM     27  N   UNL     1       6.672   5.364  14.603  0.00  0.00    +0.000 NA
ATOM     28  H   UNL     1       7.308   6.028  14.156  0.00  0.00    +0.000 HD
BRANCH  27  29
ATOM     29  C   UNL     1       6.542   4.050  13.977  0.00  0.00    +0.000 C 
ATOM     30  C   UNL     1       6.757   3.890  12.498  0.00  0.00    +0.000 C 
ATOM     31  C   UNL     1       5.378   3.764  13.071  0.00  0.00    +0.000 C 
ENDBRANCH  27  29
ENDBRANCH  24  27
ENDBRANCH  22  24
ENDBRANCH   3  18
TORSDOF 5
ENDMDL
MODEL 3
REMARK VINA RESULT:      -8.8      1.225      2.138
REMARK  Name = 
REMARK  8 active torsions:
REMARK  status: ('A' for Active; 'I' for Inactive)
REMARK    1  A    between atoms: C_1  and  C_2
REMARK    2  A    between atoms: C_4  and  C_5
REMARK    3  A    between atoms: C_8  and  C_9
REMARK    4  A    between atoms: N_11  and  C_12
REMARK    5  A    between atoms: C_16  and  S_17
REMARK    6  A    between atoms: S_17  and  N_20
REMARK    7  A    between atoms: N_20  and  C_21
REMARK    8  A    between atoms: C_27  and  C_28
REMARK                            x       y       z     vdW  Elec       q    Type
REMARK                         _______ _______ _______ _____ _____    ______ ____
ROOT
ATOM      1  C   UNL     1       2.102   7.285  19.555  0.00  0.00    +0.000 C 
ATOM      2  O   UNL     1       2.281   6.506  20.484  0.00  0.00    +0.000 OA
ATOM      3  N   UNL     1       2.515   7.080  18.247  0.00  0.00    +0.000 N 
ATOM      4  H   UNL     1       2.414   7.865  17.620  0.00  0.00    +0.000 HD
ENDROOT
BRANCH   1  12
ATOM      5  C   UNL     1      -1.178  13.018  22.980  0.00  0.00    +0.000 C 
ATOM      6  C   UNL     1      -0.527  12.186  21.903  0.00  0.00    +0.000 A 
ATOM      7  C   UNL     1      -0.080  12.829  20.740  0.00  0.00    +0.000 A 
ATOM      8  C   UNL     1       0.577  12.138  19.706  0.00  0.00    +0.000 A 
ATOM      9  C   UNL     1       1.036  12.886  18.487  0.00  0.00    +0.000 C 
ATOM     10  C   UNL     1       0.802  10.755  19.882  0.00  0.00    +0.000 A 
ATOM     11  C   UNL     1       1.471   9.767  19.095  0.00  0.00    +0.000 A 
ATOM     12  C   UNL     1       1.477   8.576  19.796  0.00  0.00    +0.000 A 
ATOM     13  N   UNL     1       0.711   8.798  20.923  0.00  0.00    +0.000 N 
ATOM     14  C   UNL     1       0.339  10.121  21.034  0.00  0.00    +0.000 A 
ATOM     15  C   UNL     1      -0.356  10.790  22.066  0.00  0.00    +0.000 A 
ATOM     16  C   UNL     1      -0.872  10.093  23.295  0.00  0.00    +0.000 C 
ATOM     17  H   UNL     1       0.527   8.081  21.612  0.00  0.00    +0.000 HD
ENDBRANCH   1  12
BRANCH   3  18
ATOM     18  C   UNL     1       3.222   5.966  17.739  0.00  0.00    +0.000 A 
ATOM     19  C   UNL     1       2.717   4.662  17.744  0.00  0.00    +0.000 A 
ATOM     20  C   UNL     1       3.486   3.592  17.274  0.00  0.00    +0.000 A 
ATOM     21  C   UNL     1       4.772   3.813  16.792  0.00  0.00    +0.000 A 
ATOM     22  C   UNL     1       5.276   5.114  16.764  0.00  0.00    +0.000 A 
ATOM     23  C   UNL     1       4.506   6.192  17.223  0.00  0.00    +0.000 A 
BRANCH  22  24
ATOM     24  S   UNL     1       6.940   5.385  16.224  0.00  0.00    +0.000 S 
ATOM     25  O   UNL     1       7.291   6.747  16.566  0.00  0.00    +0.000 OA
ATOM     26  O   UNL     1       7.761   4.269  16.651  0.00  0.00    +0.000 OA
BRANCH  24  27
ATOM     27  N   UNL     1       6.825   5.336  14.539  0.00  0.00    +0.000 NA
ATOM     28  H   UNL     1       7.532   5.943  14.120  0.00  0.00    +0.000 HD
BRANCH  27  29
ATOM     29  C   UNL     1       6.622   4.030  13.914  0.00  0.00    +0.000 C 
ATOM     30  C   UNL     1       6.700   3.884  12.420  0.00  0.00    +0.000 C 
ATOM     31  C   UNL     1       5.377   3.767  13.116  0.00  0.00    +0.000 C 
ENDBRANCH  27  29
ENDBRANCH  24  27
ENDBRANCH  22  24
ENDBRANCH   3  18
TORSDOF 5
ENDMDL
MODEL 4
REMARK VINA RESULT:      -8.8      1.634      2.228
REMARK  Name = 
REMARK  8 active torsions:
REMARK  status: ('A' for Active; 'I' for Inactive)
REMARK    1  A    between atoms: C_1  and  C_2
REMARK    2  A    between atoms: C_4  and  C_5
REMARK    3  A    between atoms: C_8  and  C_9
REMARK    4  A    between atoms: N_11  and  C_12
REMARK    5  A    between atoms: C_16  and  S_17
REMARK    6  A    between atoms: S_17  and  N_20
REMARK    7  A    between atoms: N_20  and  C_21
REMARK    8  A    between atoms: C_27  and  C_28
REMARK                            x       y       z     vdW  Elec       q    Type
REMARK                         _______ _______ _______ _____ _____    ______ ____
ROOT
ATOM      1  C   UNL     1       2.163   8.072  18.297  0.00  0.00    +0.000 C 
ATOM      2  O   UNL     1       2.515   8.462  17.189  0.00  0.00    +0.000 OA
ATOM      3  N   UNL     1       2.324   6.783  18.780  0.00  0.00    +0.000 N 
ATOM      4  H   UNL     1       1.869   6.576  19.657  0.00  0.00    +0.000 HD
ENDROOT
BRANCH   1  12
ATOM      5  C   UNL     1      -2.291  13.475  20.814  0.00  0.00    +0.000 C 
ATOM      6  C   UNL     1      -1.350  12.295  20.801  0.00  0.00    +0.000 A 
ATOM      7  C   UNL     1      -1.213  11.536  21.971  0.00  0.00    +0.000 A 
ATOM      8  C   UNL     1      -0.394  10.395  22.034  0.00  0.00    +0.000 A 
ATOM      9  C   UNL     1      -0.295   9.620  23.317  0.00  0.00    +0.000 C 
ATOM     10  C   UNL     1       0.285  10.010  20.857  0.00  0.00    +0.000 A 
ATOM     11  C   UNL     1       1.133   8.905  20.536  0.00  0.00    +0.000 A 
ATOM     12  C   UNL     1       1.449   8.969  19.192  0.00  0.00    +0.000 A 
ATOM     13  N   UNL     1       0.917  10.159  18.736  0.00  0.00    +0.000 N 
ATOM     14  C   UNL     1       0.157  10.781  19.703  0.00  0.00    +0.000 A 
ATOM     15  C   UNL     1      -0.631  11.951  19.631  0.00  0.00    +0.000 A 
ATOM     16  C   UNL     1      -0.745  12.790  18.387  0.00  0.00    +0.000 C 
ATOM     17  H   UNL     1       1.018  10.475  17.781  0.00  0.00    +0.000 HD
ENDBRANCH   1  12
BRANCH   3  18
ATOM     18  C   UNL     1       2.898   5.683  18.103  0.00  0.00    +0.000 A 
ATOM     19  C   UNL     1       2.192   4.519  17.780  0.00  0.00    +0.000 A 
ATOM     20  C   UNL     1       2.829   3.441  17.156  0.00  0.00    +0.000 A 
ATOM     21  C   UNL     1       4.183   3.514  16.845  0.00  0.00    +0.000 A 
ATOM     22  C   UNL     1       4.890   4.678  17.145  0.00  0.00    +0.000 A 
ATOM     23  C   UNL     1       4.255   5.766  17.760  0.00  0.00    +0.000 A 
BRANCH  22  24
ATOM     24  S   UNL     1       6.630   4.741  16.820  0.00  0.00    +0.000 S 
ATOM     25  O   UNL     1       7.314   4.441  18.060  0.00  0.00    +0.000 OA
ATOM     26  O   UNL     1       6.909   3.993  15.609  0.00  0.00    +0.000 OA
BRANCH  24  27
ATOM     27  N   UNL     1       6.919   6.375  16.504  0.00  0.00    +0.000 NA
ATOM     28  H   UNL     1       6.365   6.682  15.702  0.00  0.00    +0.000 HD
BRANCH  27  29
ATOM     29  C   UNL     1       6.982   7.283  17.648  0.00  0.00    +0.000 C 
ATOM     30  C   UNL     1       7.858   8.504  17.599  0.00  0.00    +0.000 C 
ATOM     31  C   UNL     1       8.230   7.351  18.482  0.00  0.00    +0.000 C 
ENDBRANCH  27  29
ENDBRANCH  24  27
ENDBRANCH  22  24
ENDBRANCH   3  18
TORSDOF 5
ENDMDL
MODEL 5
REMARK VINA RESULT:      -8.7      1.497      1.825
REMARK  Name = 
REMARK  8 active torsions:
REMARK  status: ('A' for Active; 'I' for Inactive)
REMARK    1  A    between atoms: C_1  and  C_2
REMARK    2  A    between atoms: C_4  and  C_5
REMARK    3  A    between atoms: C_8  and  C_9
REMARK    4  A    between atoms: N_11  and  C_12
REMARK    5  A    between atoms: C_16  and  S_17
REMARK    6  A    between atoms: S_17  and  N_20
REMARK    7  A    between atoms: N_20  and  C_21
REMARK    8  A    between atoms: C_27  and  C_28
REMARK                            x       y       z     vdW  Elec       q    Type
REMARK                         _______ _______ _______ _____ _____    ______ ____
ROOT
ATOM      1  C   UNL     1       2.258   8.378  17.937  0.00  0.00    +0.000 C 
ATOM      2  O   UNL     1       2.988   8.664  16.994  0.00  0.00    +0.000 OA
ATOM      3  N   UNL     1       2.251   7.162  18.602  0.00  0.00    +0.000 N 
ATOM      4  H   UNL     1       1.507   7.025  19.271  0.00  0.00    +0.000 HD
ENDROOT
BRANCH   1  12
ATOM      5  C   UNL     1      -4.163  12.074  18.626  0.00  0.00    +0.000 C 
ATOM      6  C   UNL     1      -2.747  11.618  18.881  0.00  0.00    +0.000 A 
ATOM      7  C   UNL     1      -2.143  11.962  20.099  0.00  0.00    +0.000 A 
ATOM      8  C   UNL     1      -0.845  11.542  20.438  0.00  0.00    +0.000 A 
ATOM      9  C   UNL     1      -0.257  11.939  21.762  0.00  0.00    +0.000 C 
ATOM     10  C   UNL     1      -0.156  10.728  19.512  0.00  0.00    +0.000 A 
ATOM     11  C   UNL     1       1.118  10.082  19.538  0.00  0.00    +0.000 A 
ATOM     12  C   UNL     1       1.250   9.323  18.390  0.00  0.00    +0.000 A 
ATOM     13  N   UNL     1       0.140   9.607  17.621  0.00  0.00    +0.000 N 
ATOM     14  C   UNL     1      -0.758  10.406  18.296  0.00  0.00    +0.000 A 
ATOM     15  C   UNL     1      -2.046  10.849  17.921  0.00  0.00    +0.000 A 
ATOM     16  C   UNL     1      -2.677  10.516  16.597  0.00  0.00    +0.000 C 
ATOM     17  H   UNL     1      -0.013   9.202  16.707  0.00  0.00    +0.000 HD
ENDBRANCH   1  12
BRANCH   3  18
ATOM     18  C   UNL     1       3.051   6.030  18.324  0.00  0.00    +0.000 A 
ATOM     19  C   UNL     1       2.552   4.725  18.264  0.00  0.00    +0.000 A 
ATOM     20  C   UNL     1       3.404   3.639  18.036  0.00  0.00    +0.000 A 
ATOM     21  C   UNL     1       4.768   3.845  17.865  0.00  0.00    +0.000 A 
ATOM     22  C   UNL     1       5.272   5.145  17.904  0.00  0.00    +0.000 A 
ATOM     23  C   UNL     1       4.422   6.239  18.120  0.00  0.00    +0.000 A 
BRANCH  22  24
ATOM     24  S   UNL     1       7.020   5.400  17.764  0.00  0.00    +0.000 S 
ATOM     25  O   UNL     1       7.240   6.822  17.608  0.00  0.00    +0.000 OA
ATOM     26  O   UNL     1       7.689   4.647  18.807  0.00  0.00    +0.000 OA
BRANCH  24  27
ATOM     27  N   UNL     1       7.408   4.696  16.278  0.00  0.00    +0.000 NA
ATOM     28  H   UNL     1       7.561   3.692  16.394  0.00  0.00    +0.000 HD
BRANCH  27  29
ATOM     29  C   UNL     1       6.637   5.116  15.110  0.00  0.00    +0.000 C 
ATOM     30  C   UNL     1       5.906   4.100  14.278  0.00  0.00    +0.000 C 
ATOM     31  C   UNL     1       7.125   4.779  13.730  0.00  0.00    +0.000 C 
ENDBRANCH  27  29
ENDBRANCH  24  27
ENDBRANCH  22  24
ENDBRANCH   3  18
TORSDOF 5
ENDMDL
MODEL 6
REMARK VINA RESULT:      -8.5      3.622      9.295
REMARK  Name = 
REMARK  8 active torsions:
REMARK  status: ('A' for Active; 'I' for Inactive)
REMARK    1  A    between atoms: C_1  and  C_2
REMARK    2  A    between atoms: C_4  and  C_5
REMARK    3  A    between atoms: C_8  and  C_9
REMARK    4  A    between atoms: N_11  and  C_12
REMARK    5  A    between atoms: C_16  and  S_17
REMARK    6  A    between atoms: S_17  and  N_20
REMARK    7  A    between atoms: N_20  and  C_21
REMARK    8  A    between atoms: C_27  and  C_28
REMARK                            x       y       z     vdW  Elec       q    Type
REMARK                         _______ _______ _______ _____ _____    ______ ____
ROOT
ATOM      1  C   UNL     1       1.666   8.721  19.210  0.00  0.00    +0.000 C 
ATOM      2  O   UNL     1       1.760   9.759  18.565  0.00  0.00    +0.000 OA
ATOM      3  N   UNL     1       0.954   8.574  20.391  0.00  0.00    +0.000 N 
ATOM      4  H   UNL     1       1.075   7.698  20.877  0.00  0.00    +0.000 HD
ENDROOT
BRANCH   1  12
ATOM      5  C   UNL     1       3.582   1.611  18.144  0.00  0.00    +0.000 C 
ATOM      6  C   UNL     1       3.601   3.117  18.068  0.00  0.00    +0.000 A 
ATOM      7  C   UNL     1       4.403   3.728  17.094  0.00  0.00    +0.000 A 
ATOM      8  C   UNL     1       4.446   5.123  16.923  0.00  0.00    +0.000 A 
ATOM      9  C   UNL     1       5.321   5.716  15.856  0.00  0.00    +0.000 C 
ATOM     10  C   UNL     1       3.627   5.912  17.762  0.00  0.00    +0.000 A 
ATOM     11  C   UNL     1       3.371   7.315  17.837  0.00  0.00    +0.000 A 
ATOM     12  C   UNL     1       2.397   7.535  18.793  0.00  0.00    +0.000 A 
ATOM     13  N   UNL     1       2.164   6.308  19.381  0.00  0.00    +0.000 N 
ATOM     14  C   UNL     1       2.847   5.297  18.740  0.00  0.00    +0.000 A 
ATOM     15  C   UNL     1       2.818   3.900  18.951  0.00  0.00    +0.000 A 
ATOM     16  C   UNL     1       1.991   3.248  20.025  0.00  0.00    +0.000 C 
ATOM     17  H   UNL     1       1.504   6.179  20.137  0.00  0.00    +0.000 HD
ENDBRANCH   1  12
BRANCH   3  18
ATOM     18  C   UNL     1       0.226   9.571  21.079  0.00  0.00    +0.000 A 
ATOM     19  C   UNL     1       0.067   9.593  22.469  0.00  0.00    +0.000 A 
ATOM     20  C   UNL     1      -0.710  10.578  23.088  0.00  0.00    +0.000 A 
ATOM     21  C   UNL     1      -1.340  11.555  22.325  0.00  0.00    +0.000 A 
ATOM     22  C   UNL     1      -1.170  11.553  20.939  0.00  0.00    +0.000 A 
ATOM     23  C   UNL     1      -0.383  10.576  20.314  0.00  0.00    +0.000 A 
BRANCH  22  24
ATOM     24  S   UNL     1      -2.034  12.750  19.961  0.00  0.00    +0.000 S 
ATOM     25  O   UNL     1      -3.448  12.588  20.225  0.00  0.00    +0.000 OA
ATOM     26  O   UNL     1      -1.385  14.038  20.113  0.00  0.00    +0.000 OA
BRANCH  24  27
ATOM     27  N   UNL     1      -1.786  12.223  18.375  0.00  0.00    +0.000 NA
ATOM     28  H   UNL     1      -0.840  11.851  18.271  0.00  0.00    +0.000 HD
BRANCH  27  29
ATOM     29  C   UNL     1      -2.865  11.470  17.737  0.00  0.00    +0.000 C 
ATOM     30  C   UNL     1      -2.720   9.993  17.498  0.00  0.00    +0.000 C 
ATOM     31  C   UNL     1      -2.688  10.946  16.340  0.00  0.00    +0.000 C 
ENDBRANCH  27  29
ENDBRANCH  24  27
ENDBRANCH  22  24
ENDBRANCH   3  18
TORSDOF 5
ENDMDL
MODEL 7
REMARK VINA RESULT:      -8.5      3.615     10.213
REMARK  Name = 
REMARK  8 active torsions:
REMARK  status: ('A' for Active; 'I' for Inactive)
REMARK    1  A    between atoms: C_1  and  C_2
REMARK    2  A    between atoms: C_4  and  C_5
REMARK    3  A    between atoms: C_8  and  C_9
REMARK    4  A    between atoms: N_11  and  C_12
REMARK    5  A    between atoms: C_16  and  S_17
REMARK    6  A    between atoms: S_17  and  N_20
REMARK    7  A    between atoms: N_20  and  C_21
REMARK    8  A    between atoms: C_27  and  C_28
REMARK                            x       y       z     vdW  Elec       q    Type
REMARK                         _______ _______ _______ _____ _____    ______ ____
ROOT
ATOM      1  C   UNL     1       1.885   9.165  18.125  0.00  0.00    +0.000 C 
ATOM      2  O   UNL     1       2.381  10.190  17.672  0.00  0.00    +0.000 OA
ATOM      3  N   UNL     1       0.707   9.100  18.853  0.00  0.00    +0.000 N 
ATOM      4  H   UNL     1       0.491   8.207  19.271  0.00  0.00    +0.000 HD
ENDROOT
BRANCH   1  12
ATOM      5  C   UNL     1       3.299   1.861  17.976  0.00  0.00    +0.000 C 
ATOM      6  C   UNL     1       3.487   3.351  17.833  0.00  0.00    +0.000 A 
ATOM      7  C   UNL     1       4.575   3.819  17.083  0.00  0.00    +0.000 A 
ATOM      8  C   UNL     1       4.800   5.189  16.861  0.00  0.00    +0.000 A 
ATOM      9  C   UNL     1       5.982   5.626  16.043  0.00  0.00    +0.000 C 
ATOM     10  C   UNL     1       3.871   6.103  17.405  0.00  0.00    +0.000 A 
ATOM     11  C   UNL     1       3.745   7.525  17.338  0.00  0.00    +0.000 A 
ATOM     12  C   UNL     1       2.579   7.895  17.981  0.00  0.00    +0.000 A 
ATOM     13  N   UNL     1       2.077   6.739  18.544  0.00  0.00    +0.000 N 
ATOM     14  C   UNL     1       2.802   5.629  18.165  0.00  0.00    +0.000 A 
ATOM     15  C   UNL     1       2.579   4.260  18.430  0.00  0.00    +0.000 A 
ATOM     16  C   UNL     1       1.436   3.760  19.270  0.00  0.00    +0.000 C 
ATOM     17  H   UNL     1       1.231   6.721  19.099  0.00  0.00    +0.000 HD
ENDBRANCH   1  12
BRANCH   3  18
ATOM     18  C   UNL     1      -0.129  10.177  19.224  0.00  0.00    +0.000 A 
ATOM     19  C   UNL     1      -0.788  10.998  18.302  0.00  0.00    +0.000 A 
ATOM     20  C   UNL     1      -1.561  12.083  18.730  0.00  0.00    +0.000 A 
ATOM     21  C   UNL     1      -1.686  12.361  20.087  0.00  0.00    +0.000 A 
ATOM     22  C   UNL     1      -1.049  11.535  21.014  0.00  0.00    +0.000 A 
ATOM     23  C   UNL     1      -0.282  10.440  20.592  0.00  0.00    +0.000 A 
BRANCH  22  24
ATOM     24  S   UNL     1      -1.143  11.935  22.737  0.00  0.00    +0.000 S 
ATOM     25  O   UNL     1      -0.399  10.925  23.458  0.00  0.00    +0.000 OA
ATOM     26  O   UNL     1      -0.854  13.346  22.908  0.00  0.00    +0.000 OA
BRANCH  24  27
ATOM     27  N   UNL     1      -2.771  11.684  23.116  0.00  0.00    +0.000 NA
ATOM     28  H   UNL     1      -2.914  10.723  23.431  0.00  0.00    +0.000 HD
BRANCH  27  29
ATOM     29  C   UNL     1      -3.459  12.735  23.863  0.00  0.00    +0.000 C 
ATOM     30  C   UNL     1      -4.593  12.388  24.787  0.00  0.00    +0.000 C 
ATOM     31  C   UNL     1      -4.868  13.110  23.502  0.00  0.00    +0.000 C 
ENDBRANCH  27  29
ENDBRANCH  24  27
ENDBRANCH  22  24
ENDBRANCH   3  18
TORSDOF 5
ENDMDL
MODEL 8
REMARK VINA RESULT:      -8.5      1.491      1.692
REMARK  Name = 
REMARK  8 active torsions:
REMARK  status: ('A' for Active; 'I' for Inactive)
REMARK    1  A    between atoms: C_1  and  C_2
REMARK    2  A    between atoms: C_4  and  C_5
REMARK    3  A    between atoms: C_8  and  C_9
REMARK    4  A    between atoms: N_11  and  C_12
REMARK    5  A    between atoms: C_16  and  S_17
REMARK    6  A    between atoms: S_17  and  N_20
REMARK    7  A    between atoms: N_20  and  C_21
REMARK    8  A    between atoms: C_27  and  C_28
REMARK                            x       y       z     vdW  Elec       q    Type
REMARK                         _______ _______ _______ _____ _____    ______ ____
ROOT
ATOM      1  C   UNL     1       2.068   6.582  19.960  0.00  0.00    +0.000 C 
ATOM      2  O   UNL     1       2.177   5.688  20.792  0.00  0.00    +0.000 OA
ATOM      3  N   UNL     1       2.442   6.486  18.629  0.00  0.00    +0.000 N 
ATOM      4  H   UNL     1       2.416   7.343  18.096  0.00  0.00    +0.000 HD
ENDROOT
BRANCH   1  12
ATOM      5  C   UNL     1      -0.001  13.725  19.723  0.00  0.00    +0.000 C 
ATOM      6  C   UNL     1       0.241  12.330  20.242  0.00  0.00    +0.000 A 
ATOM      7  C   UNL     1      -0.390  11.939  21.431  0.00  0.00    +0.000 A 
ATOM      8  C   UNL     1      -0.255  10.644  21.962  0.00  0.00    +0.000 A 
ATOM      9  C   UNL     1      -0.962  10.285  23.238  0.00  0.00    +0.000 C 
ATOM     10  C   UNL     1       0.530   9.718  21.241  0.00  0.00    +0.000 A 
ATOM     11  C   UNL     1       0.836   8.335  21.435  0.00  0.00    +0.000 A 
ATOM     12  C   UNL     1       1.583   7.894  20.359  0.00  0.00    +0.000 A 
ATOM     13  N   UNL     1       1.841   9.014  19.595  0.00  0.00    +0.000 N 
ATOM     14  C   UNL     1       1.169  10.121  20.068  0.00  0.00    +0.000 A 
ATOM     15  C   UNL     1       1.076  11.427  19.539  0.00  0.00    +0.000 A 
ATOM     16  C   UNL     1       1.787  11.859  18.286  0.00  0.00    +0.000 C 
ATOM     17  H   UNL     1       2.393   8.985  18.748  0.00  0.00    +0.000 HD
ENDBRANCH   1  12
BRANCH   3  18
ATOM     18  C   UNL     1       3.024   5.371  17.983  0.00  0.00    +0.000 A 
ATOM     19  C   UNL     1       2.494   4.078  18.044  0.00  0.00    +0.000 A 
ATOM     20  C   UNL     1       3.144   3.005  17.426  0.00  0.00    +0.000 A 
ATOM     21  C   UNL     1       4.334   3.211  16.737  0.00  0.00    +0.000 A 
ATOM     22  C   UNL     1       4.860   4.501  16.654  0.00  0.00    +0.000 A 
ATOM     23  C   UNL     1       4.207   5.583  17.261  0.00  0.00    +0.000 A 
BRANCH  22  24
ATOM     24  S   UNL     1       6.415   4.751  15.844  0.00  0.00    +0.000 S 
ATOM     25  O   UNL     1       6.370   6.051  15.210  0.00  0.00    +0.000 OA
ATOM     26  O   UNL     1       7.483   4.399  16.759  0.00  0.00    +0.000 OA
BRANCH  24  27
ATOM     27  N   UNL     1       6.401   3.614  14.594  0.00  0.00    +0.000 NA
ATOM     28  H   UNL     1       5.912   2.769  14.893  0.00  0.00    +0.000 HD
BRANCH  27  29
ATOM     29  C   UNL     1       6.118   4.099  13.244  0.00  0.00    +0.000 C 
ATOM     30  C   UNL     1       5.402   3.219  12.258  0.00  0.00    +0.000 C 
ATOM     31  C   UNL     1       6.859   3.522  12.071  0.00  0.00    +0.000 C 
ENDBRANCH  27  29
ENDBRANCH  24  27
ENDBRANCH  22  24
ENDBRANCH   3  18
TORSDOF 5
ENDMDL
MODEL 9
REMARK VINA RESULT:      -8.4      1.251      1.415
REMARK  Name = 
REMARK  8 active torsions:
REMARK  status: ('A' for Active; 'I' for Inactive)
REMARK    1  A    between atoms: C_1  and  C_2
REMARK    2  A    between atoms: C_4  and  C_5
REMARK    3  A    between atoms: C_8  and  C_9
REMARK    4  A    between atoms: N_11  and  C_12
REMARK    5  A    between atoms: C_16  and  S_17
REMARK    6  A    between atoms: S_17  and  N_20
REMARK    7  A    between atoms: N_20  and  C_21
REMARK    8  A    between atoms: C_27  and  C_28
REMARK                            x       y       z     vdW  Elec       q    Type
REMARK                         _______ _______ _______ _____ _____    ______ ____
ROOT
ATOM      1  C   UNL     1       1.867   7.355  19.896  0.00  0.00    +0.000 C 
ATOM      2  O   UNL     1       1.835   6.420  20.688  0.00  0.00    +0.000 OA
ATOM      3  N   UNL     1       2.430   7.313  18.631  0.00  0.00    +0.000 N 
ATOM      4  H   UNL     1       2.499   8.195  18.144  0.00  0.00    +0.000 HD
ENDROOT
BRANCH   1  12
ATOM      5  C   UNL     1      -0.299  14.469  19.629  0.00  0.00    +0.000 C 
ATOM      6  C   UNL     1      -0.049  13.075  20.150  0.00  0.00    +0.000 A 
ATOM      7  C   UNL     1      -0.701  12.672  21.323  0.00  0.00    +0.000 A 
ATOM      8  C   UNL     1      -0.561  11.377  21.854  0.00  0.00    +0.000 A 
ATOM      9  C   UNL     1      -1.292  11.006  23.112  0.00  0.00    +0.000 C 
ATOM     10  C   UNL     1       0.255  10.465  21.148  0.00  0.00    +0.000 A 
ATOM     11  C   UNL     1       0.576   9.087  21.347  0.00  0.00    +0.000 A 
ATOM     12  C   UNL     1       1.354   8.659  20.287  0.00  0.00    +0.000 A 
ATOM     13  N   UNL     1       1.613   9.784  19.532  0.00  0.00    +0.000 N 
ATOM     14  C   UNL     1       0.914  10.880  19.992  0.00  0.00    +0.000 A 
ATOM     15  C   UNL     1       0.815  12.186  19.464  0.00  0.00    +0.000 A 
ATOM     16  C   UNL     1       1.548  12.632  18.228  0.00  0.00    +0.000 C 
ATOM     17  H   UNL     1       2.185   9.766  18.698  0.00  0.00    +0.000 HD
ENDBRANCH   1  12
BRANCH   3  18
ATOM     18  C   UNL     1       3.079   6.215  18.020  0.00  0.00    +0.000 A 
ATOM     19  C   UNL     1       2.520   4.936  17.935  0.00  0.00    +0.000 A 
ATOM     20  C   UNL     1       3.233   3.876  17.364  0.00  0.00    +0.000 A 
ATOM     21  C   UNL     1       4.516   4.082  16.870  0.00  0.00    +0.000 A 
ATOM     22  C   UNL     1       5.074   5.360  16.932  0.00  0.00    +0.000 A 
ATOM     23  C   UNL     1       4.360   6.429  17.492  0.00  0.00    +0.000 A 
BRANCH  22  24
ATOM     24  S   UNL     1       6.737   5.606  16.374  0.00  0.00    +0.000 S 
ATOM     25  O   UNL     1       7.110   6.964  16.707  0.00  0.00    +0.000 OA
ATOM     26  O   UNL     1       7.546   4.480  16.799  0.00  0.00    +0.000 OA
BRANCH  24  27
ATOM     27  N   UNL     1       6.605   5.551  14.691  0.00  0.00    +0.000 NA
ATOM     28  H   UNL     1       7.094   6.345  14.274  0.00  0.00    +0.000 HD
BRANCH  27  29
ATOM     29  C   UNL     1       6.779   4.253  14.042  0.00  0.00    +0.000 C 
ATOM     30  C   UNL     1       6.964   4.168  12.553  0.00  0.00    +0.000 C 
ATOM     31  C   UNL     1       5.685   3.696  13.176  0.00  0.00    +0.000 C 
ENDBRANCH  27  29
ENDBRANCH  24  27
ENDBRANCH  22  24
ENDBRANCH   3  18
TORSDOF 5
ENDMDL
