MODEL 1
REMARK VINA RESULT:      -8.7      0.000      0.000
REMARK  Name = 
REMARK  4 active torsions:
REMARK  status: ('A' for Active; 'I' for Inactive)
REMARK    1  A    between atoms: C_1  and  C_2
REMARK    2  A    between atoms: C_9  and  C_10
REMARK    3  A    between atoms: C_10  and  N_11
REMARK    4  A    between atoms: C_25  and  C_26
REMARK                            x       y       z     vdW  Elec       q    Type
REMARK                         _______ _______ _______ _____ _____    ______ ____
ROOT
ATOM      1  C   UNL     1       7.038   4.400  15.464  0.00  0.00    +0.000 C 
ATOM      2  C   UNL     1       5.899   4.755  16.377  0.00  0.00    +0.000 A 
ATOM      3  C   UNL     1       4.756   3.949  16.395  0.00  0.00    +0.000 A 
ATOM      4  C   UNL     1       3.718   4.226  17.286  0.00  0.00    +0.000 A 
ATOM      5  O   UNL     1       2.627   3.337  17.256  0.00  0.00    +0.000 OA
ATOM      6  C   UNL     1       1.575   3.481  18.140  0.00  0.00    +0.000 A 
ATOM      7  O   UNL     1       0.632   2.701  18.171  0.00  0.00    +0.000 OA
ATOM      8  C   UNL     1       1.639   4.618  19.071  0.00  0.00    +0.000 A 
ATOM      9  C   UNL     1       2.653   5.498  19.124  0.00  0.00    +0.000 A 
ATOM     10  C   UNL     1       3.764   5.301  18.171  0.00  0.00    +0.000 A 
ATOM     11  C   UNL     1       4.896   6.128  18.118  0.00  0.00    +0.000 A 
ATOM     12  C   UNL     1       5.967   5.864  17.243  0.00  0.00    +0.000 A 
ATOM     13  C   UNL     1       7.178   6.756  17.282  0.00  0.00    +0.000 C 
ENDROOT
BRANCH   9  14
ATOM     14  C   UNL     1       2.752   6.660  20.100  0.00  0.00    +0.000 C 
BRANCH  14  15
ATOM     15  N   UNL     1       1.958   7.805  19.692  0.00  0.00    +0.000 N 
ATOM     16  C   UNL     1       1.999   8.237  18.386  0.00  0.00    +0.000 A 
ATOM     17  N   UNL     1       1.394   9.283  17.936  0.00  0.00    +0.000 NA
ATOM     18  C   UNL     1       0.653  10.049  18.848  0.00  0.00    +0.000 A 
ATOM     19  C   UNL     1       0.075  11.241  18.412  0.00  0.00    +0.000 A 
ATOM     20  C   UNL     1      -0.645  12.029  19.304  0.00  0.00    +0.000 A 
ATOM     21  F   UNL     1      -1.178  13.182  18.882  0.00  0.00    +0.000 F 
ATOM     22  C   UNL     1      -0.814  11.646  20.633  0.00  0.00    +0.000 A 
ATOM     23  C   UNL     1      -0.245  10.456  21.079  0.00  0.00    +0.000 A 
ATOM     24  C   UNL     1       0.491   9.671  20.184  0.00  0.00    +0.000 A 
ATOM     25  C   UNL     1       1.164   8.439  20.637  0.00  0.00    +0.000 A 
ATOM     26  O   UNL     1       1.019   8.048  21.790  0.00  0.00    +0.000 OA
ENDBRANCH  14  15
ENDBRANCH   9  14
TORSDOF 2
ENDMDL
MODEL 2
REMARK VINA RESULT:      -8.6      1.802      2.337
REMARK  Name = 
REMARK  4 active torsions:
REMARK  status: ('A' for Active; 'I' for Inactive)
REMARK    1  A    between atoms: C_1  and  C_2
REMARK    2  A    between atoms: C_9  and  C_10
REMARK    3  A    between atoms: C_10  and  N_11
REMARK    4  A    between atoms: C_25  and  C_26
REMARK                            x       y       z     vdW  Elec       q    Type
REMARK                         _______ _______ _______ _____ _____    ______ ____
ROOT
ATOM      1  C   UNL     1       8.113   4.477  17.932  0.00  0.00    +0.000 C 
ATOM      2  C   UNL     1       6.717   5.023  17.832  0.00  0.00    +0.000 A 
ATOM      3  C   UNL     1       5.630   4.143  17.870  0.00  0.00    +0.000 A 
ATOM      4  C   UNL     1       4.326   4.639  17.848  0.00  0.00    +0.000 A 
ATOM      5  O   UNL     1       3.300   3.679  17.928  0.00  0.00    +0.000 OA
ATOM      6  C   UNL     1       1.974   4.064  17.979  0.00  0.00    +0.000 A 
ATOM      7  O   UNL     1       1.060   3.259  18.092  0.00  0.00    +0.000 OA
ATOM      8  C   UNL     1       1.698   5.507  17.905  0.00  0.00    +0.000 A 
ATOM      9  C   UNL     1       2.645   6.457  17.814  0.00  0.00    +0.000 A 
ATOM     10  C   UNL     1       4.050   6.003  17.776  0.00  0.00    +0.000 A 
ATOM     11  C   UNL     1       5.145   6.876  17.697  0.00  0.00    +0.000 A 
ATOM     12  C   UNL     1       6.472   6.407  17.735  0.00  0.00    +0.000 A 
ATOM     13  C   UNL     1       7.599   7.403  17.710  0.00  0.00    +0.000 C 
ENDROOT
BRANCH   9  14
ATOM     14  C   UNL     1       2.381   7.953  17.769  0.00  0.00    +0.000 C 
BRANCH  14  15
ATOM     15  N   UNL     1       1.795   8.457  18.998  0.00  0.00    +0.000 N 
ATOM     16  C   UNL     1       1.911   7.730  20.160  0.00  0.00    +0.000 A 
ATOM     17  N   UNL     1       1.368   8.046  21.286  0.00  0.00    +0.000 NA
ATOM     18  C   UNL     1       0.583   9.208  21.326  0.00  0.00    +0.000 A 
ATOM     19  C   UNL     1      -0.101   9.519  22.501  0.00  0.00    +0.000 A 
ATOM     20  C   UNL     1      -0.904  10.653  22.556  0.00  0.00    +0.000 A 
ATOM     21  F   UNL     1      -1.574  10.931  23.682  0.00  0.00    +0.000 F 
ATOM     22  C   UNL     1      -1.032  11.502  21.459  0.00  0.00    +0.000 A 
ATOM     23  C   UNL     1      -0.350  11.206  20.282  0.00  0.00    +0.000 A 
ATOM     24  C   UNL     1       0.445  10.056  20.222  0.00  0.00    +0.000 A 
ATOM     25  C   UNL     1       1.128   9.673  18.972  0.00  0.00    +0.000 A 
ATOM     26  O   UNL     1       1.067  10.405  17.990  0.00  0.00    +0.000 OA
ENDBRANCH  14  15
ENDBRANCH   9  14
TORSDOF 2
ENDMDL
MODEL 3
REMARK VINA RESULT:      -8.1      3.428      8.215
REMARK  Name = 
REMARK  4 active torsions:
REMARK  status: ('A' for Active; 'I' for Inactive)
REMARK    1  A    between atoms: C_1  and  C_2
REMARK    2  A    between atoms: C_9  and  C_10
REMARK    3  A    between atoms: C_10  and  N_11
REMARK    4  A    between atoms: C_25  and  C_26
REMARK                            x       y       z     vdW  Elec       q    Type
REMARK                         _______ _______ _______ _____ _____    ______ ____
ROOT
ATOM      1  C   UNL     1      -4.963  11.230  17.384  0.00  0.00    +0.000 C 
ATOM      2  C   UNL     1      -3.557  11.233  17.913  0.00  0.00    +0.000 A 
ATOM      3  C   UNL     1      -3.298  11.784  19.172  0.00  0.00    +0.000 A 
ATOM      4  C   UNL     1      -2.010  11.733  19.707  0.00  0.00    +0.000 A 
ATOM      5  O   UNL     1      -1.855  12.281  20.994  0.00  0.00    +0.000 OA
ATOM      6  C   UNL     1      -0.636  12.225  21.644  0.00  0.00    +0.000 A 
ATOM      7  O   UNL     1      -0.478  12.652  22.779  0.00  0.00    +0.000 OA
ATOM      8  C   UNL     1       0.480  11.608  20.911  0.00  0.00    +0.000 A 
ATOM      9  C   UNL     1       0.380  11.087  19.676  0.00  0.00    +0.000 A 
ATOM     10  C   UNL     1      -0.942  11.155  19.023  0.00  0.00    +0.000 A 
ATOM     11  C   UNL     1      -1.202  10.640  17.744  0.00  0.00    +0.000 A 
ATOM     12  C   UNL     1      -2.495  10.661  17.186  0.00  0.00    +0.000 A 
ATOM     13  C   UNL     1      -2.716  10.036  15.835  0.00  0.00    +0.000 C 
ENDROOT
BRANCH   9  14
ATOM     14  C   UNL     1       1.514  10.417  18.916  0.00  0.00    +0.000 C 
BRANCH  14  15
ATOM     15  N   UNL     1       1.666   9.014  19.255  0.00  0.00    +0.000 N 
ATOM     16  C   UNL     1       1.239   8.556  20.481  0.00  0.00    +0.000 A 
ATOM     17  N   UNL     1       1.391   7.350  20.913  0.00  0.00    +0.000 NA
ATOM     18  C   UNL     1       2.059   6.441  20.079  0.00  0.00    +0.000 A 
ATOM     19  C   UNL     1       2.331   5.161  20.561  0.00  0.00    +0.000 A 
ATOM     20  C   UNL     1       3.014   4.250  19.761  0.00  0.00    +0.000 A 
ATOM     21  F   UNL     1       3.289   3.030  20.240  0.00  0.00    +0.000 F 
ATOM     22  C   UNL     1       3.425   4.585  18.473  0.00  0.00    +0.000 A 
ATOM     23  C   UNL     1       3.156   5.858  17.979  0.00  0.00    +0.000 A 
ATOM     24  C   UNL     1       2.482   6.779  18.790  0.00  0.00    +0.000 A 
ATOM     25  C   UNL     1       2.239   8.158  18.326  0.00  0.00    +0.000 A 
ATOM     26  O   UNL     1       2.558   8.489  17.189  0.00  0.00    +0.000 OA
ENDBRANCH  14  15
ENDBRANCH   9  14
TORSDOF 2
ENDMDL
MODEL 4
REMARK VINA RESULT:      -8.1      2.686      4.336
REMARK  Name = 
REMARK  4 active torsions:
REMARK  status: ('A' for Active; 'I' for Inactive)
REMARK    1  A    between atoms: C_1  and  C_2
REMARK    2  A    between atoms: C_9  and  C_10
REMARK    3  A    between atoms: C_10  and  N_11
REMARK    4  A    between atoms: C_25  and  C_26
REMARK                            x       y       z     vdW  Elec       q    Type
REMARK                         _______ _______ _______ _____ _____    ______ ____
ROOT
ATOM      1  C   UNL     1       7.436   4.160  11.838  0.00  0.00    +0.000 C 
ATOM      2  C   UNL     1       6.822   4.428  13.183  0.00  0.00    +0.000 A 
ATOM      3  C   UNL     1       7.565   5.105  14.155  0.00  0.00    +0.000 A 
ATOM      4  C   UNL     1       6.985   5.422  15.384  0.00  0.00    +0.000 A 
ATOM      5  O   UNL     1       7.799   6.137  16.283  0.00  0.00    +0.000 OA
ATOM      6  C   UNL     1       7.304   6.558  17.503  0.00  0.00    +0.000 A 
ATOM      7  O   UNL     1       7.970   7.218  18.289  0.00  0.00    +0.000 OA
ATOM      8  C   UNL     1       5.916   6.188  17.820  0.00  0.00    +0.000 A 
ATOM      9  C   UNL     1       5.110   5.495  16.999  0.00  0.00    +0.000 A 
ATOM     10  C   UNL     1       5.673   5.076  15.700  0.00  0.00    +0.000 A 
ATOM     11  C   UNL     1       4.949   4.361  14.735  0.00  0.00    +0.000 A 
ATOM     12  C   UNL     1       5.500   4.042  13.479  0.00  0.00    +0.000 A 
ATOM     13  C   UNL     1       4.646   3.328  12.467  0.00  0.00    +0.000 C 
ENDROOT
BRANCH   9  14
ATOM     14  C   UNL     1       3.664   5.131  17.296  0.00  0.00    +0.000 C 
BRANCH  14  15
ATOM     15  N   UNL     1       3.067   5.983  18.308  0.00  0.00    +0.000 N 
ATOM     16  C   UNL     1       2.829   5.484  19.569  0.00  0.00    +0.000 A 
ATOM     17  N   UNL     1       2.238   6.128  20.518  0.00  0.00    +0.000 NA
ATOM     18  C   UNL     1       1.787   7.427  20.240  0.00  0.00    +0.000 A 
ATOM     19  C   UNL     1       1.053   8.107  21.211  0.00  0.00    +0.000 A 
ATOM     20  C   UNL     1       0.575   9.386  20.949  0.00  0.00    +0.000 A 
ATOM     21  F   UNL     1      -0.147  10.023  21.880  0.00  0.00    +0.000 F 
ATOM     22  C   UNL     1       0.824  10.016  19.732  0.00  0.00    +0.000 A 
ATOM     23  C   UNL     1       1.559   9.349  18.756  0.00  0.00    +0.000 A 
ATOM     24  C   UNL     1       2.027   8.056  19.014  0.00  0.00    +0.000 A 
ATOM     25  C   UNL     1       2.750   7.293  17.980  0.00  0.00    +0.000 A 
ATOM     26  O   UNL     1       3.018   7.818  16.904  0.00  0.00    +0.000 OA
ENDBRANCH  14  15
ENDBRANCH   9  14
TORSDOF 2
ENDMDL
MODEL 5
REMARK VINA RESULT:      -8.1      2.527      3.964
REMARK  Name = 
REMARK  4 active torsions:
REMARK  status: ('A' for Active; 'I' for Inactive)
REMARK    1  A    between atoms: C_1  and  C_2
REMARK    2  A    between atoms: C_9  and  C_10
REMARK    3  A    between atoms: C_10  and  N_11
REMARK    4  A    between atoms: C_25  and  C_26
REMARK                            x       y       z     vdW  Elec       q    Type
REMARK                         _______ _______ _______ _____ _____    ______ ____
ROOT
ATOM      1  C   UNL     1       7.334   4.123  11.998  0.00  0.00    +0.000 C 
ATOM      2  C   UNL     1       6.758   4.440  13.349  0.00  0.00    +0.000 A 
ATOM      3  C   UNL     1       7.537   5.131  14.283  0.00  0.00    +0.000 A 
ATOM      4  C   UNL     1       6.994   5.493  15.516  0.00  0.00    +0.000 A 
ATOM      5  O   UNL     1       7.842   6.217  16.374  0.00  0.00    +0.000 OA
ATOM      6  C   UNL     1       7.385   6.681  17.593  0.00  0.00    +0.000 A 
ATOM      7  O   UNL     1       8.082   7.351  18.343  0.00  0.00    +0.000 OA
ATOM      8  C   UNL     1       5.999   6.347  17.954  0.00  0.00    +0.000 A 
ATOM      9  C   UNL     1       5.160   5.646  17.173  0.00  0.00    +0.000 A 
ATOM     10  C   UNL     1       5.684   5.180  15.873  0.00  0.00    +0.000 A 
ATOM     11  C   UNL     1       4.922   4.452  14.947  0.00  0.00    +0.000 A 
ATOM     12  C   UNL     1       5.437   4.088  13.687  0.00  0.00    +0.000 A 
ATOM     13  C   UNL     1       4.545   3.362  12.717  0.00  0.00    +0.000 C 
ENDROOT
BRANCH   9  14
ATOM     14  C   UNL     1       3.715   5.318  17.515  0.00  0.00    +0.000 C 
BRANCH  14  15
ATOM     15  N   UNL     1       2.978   6.470  18.003  0.00  0.00    +0.000 N 
ATOM     16  C   UNL     1       2.789   7.559  17.182  0.00  0.00    +0.000 A 
ATOM     17  N   UNL     1       2.217   8.659  17.536  0.00  0.00    +0.000 NA
ATOM     18  C   UNL     1       1.769   8.762  18.862  0.00  0.00    +0.000 A 
ATOM     19  C   UNL     1       1.242   9.975  19.302  0.00  0.00    +0.000 A 
ATOM     20  C   UNL     1       0.814  10.108  20.619  0.00  0.00    +0.000 A 
ATOM     21  F   UNL     1       0.329  11.284  21.038  0.00  0.00    +0.000 F 
ATOM     22  C   UNL     1       0.889   9.044  21.514  0.00  0.00    +0.000 A 
ATOM     23  C   UNL     1       1.410   7.826  21.086  0.00  0.00    +0.000 A 
ATOM     24  C   UNL     1       1.854   7.698  19.765  0.00  0.00    +0.000 A 
ATOM     25  C   UNL     1       2.473   6.444  19.295  0.00  0.00    +0.000 A 
ATOM     26  O   UNL     1       2.534   5.472  20.039  0.00  0.00    +0.000 OA
ENDBRANCH  14  15
ENDBRANCH   9  14
TORSDOF 2
ENDMDL
MODEL 6
REMARK VINA RESULT:      -8.0      2.349      3.877
REMARK  Name = 
REMARK  4 active torsions:
REMARK  status: ('A' for Active; 'I' for Inactive)
REMARK    1  A    between atoms: C_1  and  C_2
REMARK    2  A    between atoms: C_9  and  C_10
REMARK    3  A    between atoms: C_10  and  N_11
REMARK    4  A    between atoms: C_25  and  C_26
REMARK                            x       y       z     vdW  Elec       q    Type
REMARK                         _______ _______ _______ _____ _____    ______ ____
ROOT
ATOM      1  C   UNL     1       3.677   1.253  18.615  0.00  0.00    +0.000 C 
ATOM      2  C   UNL     1       3.634   2.741  18.409  0.00  0.00    +0.000 A 
ATOM      3  C   UNL     1       4.830   3.445  18.236  0.00  0.00    +0.000 A 
ATOM      4  C   UNL     1       4.804   4.816  17.975  0.00  0.00    +0.000 A 
ATOM      5  O   UNL     1       6.055   5.430  17.778  0.00  0.00    +0.000 OA
ATOM      6  C   UNL     1       6.141   6.769  17.450  0.00  0.00    +0.000 A 
ATOM      7  O   UNL     1       7.209   7.324  17.230  0.00  0.00    +0.000 OA
ATOM      8  C   UNL     1       4.876   7.514  17.360  0.00  0.00    +0.000 A 
ATOM      9  C   UNL     1       3.662   6.972  17.555  0.00  0.00    +0.000 A 
ATOM     10  C   UNL     1       3.613   5.534  17.890  0.00  0.00    +0.000 A 
ATOM     11  C   UNL     1       2.421   4.828  18.105  0.00  0.00    +0.000 A 
ATOM     12  C   UNL     1       2.414   3.442  18.352  0.00  0.00    +0.000 A 
ATOM     13  C   UNL     1       1.095   2.736  18.513  0.00  0.00    +0.000 C 
ENDROOT
BRANCH   9  14
ATOM     14  C   UNL     1       2.342   7.717  17.435  0.00  0.00    +0.000 C 
BRANCH  14  15
ATOM     15  N   UNL     1       1.880   8.250  18.704  0.00  0.00    +0.000 N 
ATOM     16  C   UNL     1       2.052   7.518  19.857  0.00  0.00    +0.000 A 
ATOM     17  N   UNL     1       1.616   7.861  21.021  0.00  0.00    +0.000 NA
ATOM     18  C   UNL     1       0.896   9.061  21.118  0.00  0.00    +0.000 A 
ATOM     19  C   UNL     1       0.323   9.405  22.342  0.00  0.00    +0.000 A 
ATOM     20  C   UNL     1      -0.416  10.578  22.456  0.00  0.00    +0.000 A 
ATOM     21  F   UNL     1      -0.980  10.889  23.630  0.00  0.00    +0.000 F 
ATOM     22  C   UNL     1      -0.588  11.432  21.369  0.00  0.00    +0.000 A 
ATOM     23  C   UNL     1      -0.018  11.102  20.143  0.00  0.00    +0.000 A 
ATOM     24  C   UNL     1       0.713   9.914  20.025  0.00  0.00    +0.000 A 
ATOM     25  C   UNL     1       1.274   9.498  18.726  0.00  0.00    +0.000 A 
ATOM     26  O   UNL     1       1.172  10.232  17.749  0.00  0.00    +0.000 OA
ENDBRANCH  14  15
ENDBRANCH   9  14
TORSDOF 2
ENDMDL
MODEL 7
REMARK VINA RESULT:      -8.0      2.325      3.481
REMARK  Name = 
REMARK  4 active torsions:
REMARK  status: ('A' for Active; 'I' for Inactive)
REMARK    1  A    between atoms: C_1  and  C_2
REMARK    2  A    between atoms: C_9  and  C_10
REMARK    3  A    between atoms: C_10  and  N_11
REMARK    4  A    between atoms: C_25  and  C_26
REMARK                            x       y       z     vdW  Elec       q    Type
REMARK                         _______ _______ _______ _____ _____    ______ ____
ROOT
ATOM      1  C   UNL     1       7.758   4.774  13.236  0.00  0.00    +0.000 C 
ATOM      2  C   UNL     1       7.001   4.750  14.534  0.00  0.00    +0.000 A 
ATOM      3  C   UNL     1       7.690   4.945  15.735  0.00  0.00    +0.000 A 
ATOM      4  C   UNL     1       6.993   4.994  16.943  0.00  0.00    +0.000 A 
ATOM      5  O   UNL     1       7.768   5.232  18.093  0.00  0.00    +0.000 OA
ATOM      6  C   UNL     1       7.171   5.363  19.333  0.00  0.00    +0.000 A 
ATOM      7  O   UNL     1       7.810   5.613  20.345  0.00  0.00    +0.000 OA
ATOM      8  C   UNL     1       5.710   5.203  19.387  0.00  0.00    +0.000 A 
ATOM      9  C   UNL     1       4.933   4.961  18.317  0.00  0.00    +0.000 A 
ATOM     10  C   UNL     1       5.609   4.841  17.010  0.00  0.00    +0.000 A 
ATOM     11  C   UNL     1       4.931   4.605  15.805  0.00  0.00    +0.000 A 
ATOM     12  C   UNL     1       5.605   4.568  14.569  0.00  0.00    +0.000 A 
ATOM     13  C   UNL     1       4.807   4.373  13.309  0.00  0.00    +0.000 C 
ENDROOT
BRANCH   9  14
ATOM     14  C   UNL     1       3.419   4.824  18.349  0.00  0.00    +0.000 C 
BRANCH  14  15
ATOM     15  N   UNL     1       2.749   6.076  18.651  0.00  0.00    +0.000 N 
ATOM     16  C   UNL     1       2.685   7.066  17.698  0.00  0.00    +0.000 A 
ATOM     17  N   UNL     1       2.181   8.238  17.884  0.00  0.00    +0.000 NA
ATOM     18  C   UNL     1       1.677   8.534  19.159  0.00  0.00    +0.000 A 
ATOM     19  C   UNL     1       1.222   9.827  19.420  0.00  0.00    +0.000 A 
ATOM     20  C   UNL     1       0.739  10.150  20.683  0.00  0.00    +0.000 A 
ATOM     21  F   UNL     1       0.325  11.399  20.930  0.00  0.00    +0.000 F 
ATOM     22  C   UNL     1       0.688   9.201  21.702  0.00  0.00    +0.000 A 
ATOM     23  C   UNL     1       1.135   7.906  21.453  0.00  0.00    +0.000 A 
ATOM     24  C   UNL     1       1.634   7.586  20.186  0.00  0.00    +0.000 A 
ATOM     25  C   UNL     1       2.179   6.244  19.905  0.00  0.00    +0.000 A 
ATOM     26  O   UNL     1       2.128   5.369  20.762  0.00  0.00    +0.000 OA
ENDBRANCH  14  15
ENDBRANCH   9  14
TORSDOF 2
ENDMDL
MODEL 8
REMARK VINA RESULT:      -7.8      3.566      8.408
REMARK  Name = 
REMARK  4 active torsions:
REMARK  status: ('A' for Active; 'I' for Inactive)
REMARK    1  A    between atoms: C_1  and  C_2
REMARK    2  A    between atoms: C_9  and  C_10
REMARK    3  A    between atoms: C_10  and  N_11
REMARK    4  A    between atoms: C_25  and  C_26
REMARK                            x       y       z     vdW  Elec       q    Type
REMARK                         _______ _______ _______ _____ _____    ______ ____
ROOT
ATOM      1  C   UNL     1      -5.201  11.257  17.171  0.00  0.00    +0.000 C 
ATOM      2  C   UNL     1      -3.890  11.466  17.875  0.00  0.00    +0.000 A 
ATOM      3  C   UNL     1      -3.879  12.047  19.148  0.00  0.00    +0.000 A 
ATOM      4  C   UNL     1      -2.677  12.185  19.843  0.00  0.00    +0.000 A 
ATOM      5  O   UNL     1      -2.771  12.747  21.130  0.00  0.00    +0.000 OA
ATOM      6  C   UNL     1      -1.652  12.870  21.931  0.00  0.00    +0.000 A 
ATOM      7  O   UNL     1      -1.705  13.313  23.071  0.00  0.00    +0.000 OA
ATOM      8  C   UNL     1      -0.372  12.426  21.358  0.00  0.00    +0.000 A 
ATOM      9  C   UNL     1      -0.234  11.899  20.129  0.00  0.00    +0.000 A 
ATOM     10  C   UNL     1      -1.457  11.772  19.311  0.00  0.00    +0.000 A 
ATOM     11  C   UNL     1      -1.472  11.228  18.018  0.00  0.00    +0.000 A 
ATOM     12  C   UNL     1      -2.671  11.059  17.299  0.00  0.00    +0.000 A 
ATOM     13  C   UNL     1      -2.622  10.411  15.942  0.00  0.00    +0.000 C 
ENDROOT
BRANCH   9  14
ATOM     14  C   UNL     1       1.074  11.406  19.531  0.00  0.00    +0.000 C 
BRANCH  14  15
ATOM     15  N   UNL     1       1.260   9.975  19.691  0.00  0.00    +0.000 N 
ATOM     16  C   UNL     1       0.928   9.370  20.881  0.00  0.00    +0.000 A 
ATOM     17  N   UNL     1       1.121   8.125  21.156  0.00  0.00    +0.000 NA
ATOM     18  C   UNL     1       1.732   7.330  20.175  0.00  0.00    +0.000 A 
ATOM     19  C   UNL     1       2.048   6.007  20.481  0.00  0.00    +0.000 A 
ATOM     20  C   UNL     1       2.676   5.207  19.532  0.00  0.00    +0.000 A 
ATOM     21  F   UNL     1       2.995   3.944  19.843  0.00  0.00    +0.000 F 
ATOM     22  C   UNL     1       2.989   5.697  18.267  0.00  0.00    +0.000 A 
ATOM     23  C   UNL     1       2.675   7.015  17.947  0.00  0.00    +0.000 A 
ATOM     24  C   UNL     1       2.056   7.823  18.907  0.00  0.00    +0.000 A 
ATOM     25  C   UNL     1       1.770   9.243  18.628  0.00  0.00    +0.000 A 
ATOM     26  O   UNL     1       2.001   9.710  17.518  0.00  0.00    +0.000 OA
ENDBRANCH  14  15
ENDBRANCH   9  14
TORSDOF 2
ENDMDL
MODEL 9
REMARK VINA RESULT:      -7.7      1.694      2.180
REMARK  Name = 
REMARK  4 active torsions:
REMARK  status: ('A' for Active; 'I' for Inactive)
REMARK    1  A    between atoms: C_1  and  C_2
REMARK    2  A    between atoms: C_9  and  C_10
REMARK    3  A    between atoms: C_10  and  N_11
REMARK    4  A    between atoms: C_25  and  C_26
REMARK                            x       y       z     vdW  Elec       q    Type
REMARK                         _______ _______ _______ _____ _____    ______ ____
ROOT
ATOM      1  C   UNL     1       7.949   4.446  17.823  0.00  0.00    +0.000 C 
ATOM      2  C   UNL     1       6.597   5.094  17.718  0.00  0.00    +0.000 A 
ATOM      3  C   UNL     1       5.449   4.297  17.759  0.00  0.00    +0.000 A 
ATOM      4  C   UNL     1       4.185   4.888  17.731  0.00  0.00    +0.000 A 
ATOM      5  O   UNL     1       3.090   4.007  17.815  0.00  0.00    +0.000 OA
ATOM      6  C   UNL     1       1.797   4.490  17.860  0.00  0.00    +0.000 A 
ATOM      7  O   UNL     1       0.825   3.755  17.977  0.00  0.00    +0.000 OA
ATOM      8  C   UNL     1       1.629   5.949  17.778  0.00  0.00    +0.000 A 
ATOM      9  C   UNL     1       2.644   6.825  17.682  0.00  0.00    +0.000 A 
ATOM     10  C   UNL     1       4.011   6.268  17.650  0.00  0.00    +0.000 A 
ATOM     11  C   UNL     1       5.167   7.057  17.568  0.00  0.00    +0.000 A 
ATOM     12  C   UNL     1       6.456   6.491  17.612  0.00  0.00    +0.000 A 
ATOM     13  C   UNL     1       7.654   7.401  17.582  0.00  0.00    +0.000 C 
ENDROOT
BRANCH   9  14
ATOM     14  C   UNL     1       2.491   8.337  17.628  0.00  0.00    +0.000 C 
BRANCH  14  15
ATOM     15  N   UNL     1       1.555   8.843  18.615  0.00  0.00    +0.000 N 
ATOM     16  C   UNL     1       0.561   9.714  18.233  0.00  0.00    +0.000 A 
ATOM     17  N   UNL     1      -0.274  10.280  19.036  0.00  0.00    +0.000 NA
ATOM     18  C   UNL     1      -0.150  10.002  20.405  0.00  0.00    +0.000 A 
ATOM     19  C   UNL     1      -0.970  10.679  21.307  0.00  0.00    +0.000 A 
ATOM     20  C   UNL     1      -0.848  10.438  22.671  0.00  0.00    +0.000 A 
ATOM     21  F   UNL     1      -1.625  11.108  23.531  0.00  0.00    +0.000 F 
ATOM     22  C   UNL     1       0.075   9.517  23.162  0.00  0.00    +0.000 A 
ATOM     23  C   UNL     1       0.897   8.831  22.272  0.00  0.00    +0.000 A 
ATOM     24  C   UNL     1       0.784   9.086  20.901  0.00  0.00    +0.000 A 
ATOM     25  C   UNL     1       1.683   8.430  19.934  0.00  0.00    +0.000 A 
ATOM     26  O   UNL     1       2.491   7.591  20.317  0.00  0.00    +0.000 OA
ENDBRANCH  14  15
ENDBRANCH   9  14
TORSDOF 2
ENDMDL
