MODEL 1
REMARK VINA RESULT:      -9.2      0.000      0.000
REMARK  Name = 
REMARK  5 active torsions:
REMARK  status: ('A' for Active; 'I' for Inactive)
REMARK    1  A    between atoms: C_1  and  C_2
REMARK    2  A    between atoms: C_2  and  C_5
REMARK    3  A    between atoms: C_5  and  C_6
REMARK    4  A    between atoms: N_8  and  C_9
REMARK    5  A    between atoms: C_12  and  C_13
REMARK                            x       y       z     vdW  Elec       q    Type
REMARK                         _______ _______ _______ _____ _____    ______ ____
ROOT
ATOM      1  C   UNL     1       0.759   9.594  19.466  0.00  0.00    +0.000 A 
ATOM      2  C   UNL     1       1.185   9.760  18.150  0.00  0.00    +0.000 A 
ATOM      3  C   UNL     1       2.106   8.869  17.573  0.00  0.00    +0.000 A 
ATOM      4  C   UNL     1       2.626   7.777  18.290  0.00  0.00    +0.000 A 
ATOM      5  C   UNL     1       2.217   7.618  19.618  0.00  0.00    +0.000 A 
ATOM      6  C   UNL     1       1.293   8.516  20.194  0.00  0.00    +0.000 A 
ENDROOT
BRANCH   4   7
ATOM      7  C   UNL     1       3.706   6.957  17.640  0.00  0.00    +0.000 C 
ATOM      8  O   UNL     1       4.243   7.407  16.628  0.00  0.00    +0.000 OA
ATOM      9  N   UNL     1       4.216   5.840  18.298  0.00  0.00    +0.000 N 
ATOM     10  C   UNL     1       5.656   5.556  18.057  0.00  0.00    +0.000 C 
ATOM     11  C   UNL     1       6.188   4.996  19.357  0.00  0.00    +0.000 C 
ATOM     12  O   UNL     1       7.280   5.310  19.849  0.00  0.00    +0.000 OA
ATOM     13  N   UNL     1       5.410   4.003  19.914  0.00  0.00    +0.000 N 
ATOM     14  C   UNL     1       4.256   3.618  19.203  0.00  0.00    +0.000 A 
ATOM     15  C   UNL     1       4.058   2.266  18.960  0.00  0.00    +0.000 A 
ATOM     16  C   UNL     1       3.063   1.886  18.068  0.00  0.00    +0.000 A 
ATOM     17  C   UNL     1       2.200   2.848  17.530  0.00  0.00    +0.000 A 
ATOM     18  C   UNL     1       2.406   4.219  17.764  0.00  0.00    +0.000 A 
ATOM     19  C   UNL     1       3.523   4.599  18.498  0.00  0.00    +0.000 A 
ATOM     20  H   UNL     1       5.276   4.190  20.902  0.00  0.00    +0.000 HD
ENDBRANCH   4   7
BRANCH   1  23
ATOM     21  C   UNL     1       0.105  11.593  20.863  0.00  0.00    +0.000 C 
ATOM     22  O   UNL     1       1.196  12.058  21.101  0.00  0.00    +0.000 OA
ATOM     23  N   UNL     1      -0.164  10.444  20.118  0.00  0.00    +0.000 N 
ATOM     24  H   UNL     1      -1.139  10.199  20.027  0.00  0.00    +0.000 HD
BRANCH  21  25
ATOM     25  C   UNL     1      -1.116  12.282  21.397  0.00  0.00    +0.000 C 
ATOM     26  C   UNL     1      -1.290  13.758  21.032  0.00  0.00    +0.000 C 
ATOM     27  C   UNL     1      -2.193  12.741  20.412  0.00  0.00    +0.000 C 
BRANCH  25  29
ATOM     28  C   UNL     1      -1.050  10.513  23.247  0.00  0.00    +0.000 C 
ATOM     29  C   UNL     1      -1.568  11.854  22.779  0.00  0.00    +0.000 C 
ATOM     30  F   UNL     1      -2.926  11.849  22.801  0.00  0.00    +0.000 F 
ATOM     31  F   UNL     1      -1.190  12.794  23.700  0.00  0.00    +0.000 F 
ENDBRANCH  25  29
ENDBRANCH  21  25
ENDBRANCH   1  23
TORSDOF 4
ENDMDL
MODEL 2
REMARK VINA RESULT:      -9.0      0.947      1.594
REMARK  Name = 
REMARK  5 active torsions:
REMARK  status: ('A' for Active; 'I' for Inactive)
REMARK    1  A    between atoms: C_1  and  C_2
REMARK    2  A    between atoms: C_2  and  C_5
REMARK    3  A    between atoms: C_5  and  C_6
REMARK    4  A    between atoms: N_8  and  C_9
REMARK    5  A    between atoms: C_12  and  C_13
REMARK                            x       y       z     vdW  Elec       q    Type
REMARK                         _______ _______ _______ _____ _____    ______ ____
ROOT
ATOM      1  C   UNL     1       0.502   9.541  20.081  0.00  0.00    +0.000 A 
ATOM      2  C   UNL     1       0.795   9.771  18.739  0.00  0.00    +0.000 A 
ATOM      3  C   UNL     1       1.697   8.943  18.048  0.00  0.00    +0.000 A 
ATOM      4  C   UNL     1       2.329   7.855  18.674  0.00  0.00    +0.000 A 
ATOM      5  C   UNL     1       2.053   7.633  20.026  0.00  0.00    +0.000 A 
ATOM      6  C   UNL     1       1.148   8.467  20.717  0.00  0.00    +0.000 A 
ENDROOT
BRANCH   4   7
ATOM      7  C   UNL     1       3.379   7.107  17.898  0.00  0.00    +0.000 C 
ATOM      8  O   UNL     1       3.848   7.646  16.895  0.00  0.00    +0.000 OA
ATOM      9  N   UNL     1       3.943   5.952  18.433  0.00  0.00    +0.000 N 
ATOM     10  C   UNL     1       5.370   5.715  18.086  0.00  0.00    +0.000 C 
ATOM     11  C   UNL     1       5.987   5.064  19.304  0.00  0.00    +0.000 C 
ATOM     12  O   UNL     1       7.102   5.359  19.754  0.00  0.00    +0.000 OA
ATOM     13  N   UNL     1       5.258   4.016  19.825  0.00  0.00    +0.000 N 
ATOM     14  C   UNL     1       4.068   3.667  19.155  0.00  0.00    +0.000 A 
ATOM     15  C   UNL     1       3.875   2.335  18.818  0.00  0.00    +0.000 A 
ATOM     16  C   UNL     1       2.833   2.008  17.959  0.00  0.00    +0.000 A 
ATOM     17  C   UNL     1       1.926   2.993  17.551  0.00  0.00    +0.000 A 
ATOM     18  C   UNL     1       2.127   4.345  17.881  0.00  0.00    +0.000 A 
ATOM     19  C   UNL     1       3.281   4.687  18.575  0.00  0.00    +0.000 A 
ATOM     20  H   UNL     1       5.181   4.123  20.831  0.00  0.00    +0.000 HD
ENDBRANCH   4   7
BRANCH   1  23
ATOM     21  C   UNL     1      -0.532  11.714  20.849  0.00  0.00    +0.000 C 
ATOM     22  O   UNL     1       0.115  12.504  20.200  0.00  0.00    +0.000 OA
ATOM     23  N   UNL     1      -0.394  10.325  20.846  0.00  0.00    +0.000 N 
ATOM     24  H   UNL     1      -1.018   9.822  21.458  0.00  0.00    +0.000 HD
BRANCH  21  25
ATOM     25  C   UNL     1      -1.606  12.226  21.762  0.00  0.00    +0.000 C 
ATOM     26  C   UNL     1      -1.780  11.500  23.098  0.00  0.00    +0.000 C 
ATOM     27  C   UNL     1      -1.198  12.877  23.086  0.00  0.00    +0.000 C 
BRANCH  25  29
ATOM     28  C   UNL     1      -2.918  14.236  20.869  0.00  0.00    +0.000 C 
ATOM     29  C   UNL     1      -2.861  12.740  21.086  0.00  0.00    +0.000 C 
ATOM     30  F   UNL     1      -3.934  12.347  21.821  0.00  0.00    +0.000 F 
ATOM     31  F   UNL     1      -3.010  12.134  19.867  0.00  0.00    +0.000 F 
ENDBRANCH  25  29
ENDBRANCH  21  25
ENDBRANCH   1  23
TORSDOF 4
ENDMDL
MODEL 3
REMARK VINA RESULT:      -8.7      1.104      1.783
REMARK  Name = 
REMARK  5 active torsions:
REMARK  status: ('A' for Active; 'I' for Inactive)
REMARK    1  A    between atoms: C_1  and  C_2
REMARK    2  A    between atoms: C_2  and  C_5
REMARK    3  A    between atoms: C_5  and  C_6
REMARK    4  A    between atoms: N_8  and  C_9
REMARK    5  A    between atoms: C_12  and  C_13
REMARK                            x       y       z     vdW  Elec       q    Type
REMARK                         _______ _______ _______ _____ _____    ______ ____
ROOT
ATOM      1  C   UNL     1       0.606   9.549  20.039  0.00  0.00    +0.000 A 
ATOM      2  C   UNL     1       1.282   8.454  20.573  0.00  0.00    +0.000 A 
ATOM      3  C   UNL     1       2.198   7.724  19.796  0.00  0.00    +0.000 A 
ATOM      4  C   UNL     1       2.473   8.069  18.462  0.00  0.00    +0.000 A 
ATOM      5  C   UNL     1       1.783   9.154  17.915  0.00  0.00    +0.000 A 
ATOM      6  C   UNL     1       0.863   9.884  18.698  0.00  0.00    +0.000 A 
ENDROOT
BRANCH   4   7
ATOM      7  C   UNL     1       3.363   7.153  17.666  0.00  0.00    +0.000 C 
ATOM      8  O   UNL     1       3.769   7.549  16.573  0.00  0.00    +0.000 OA
ATOM      9  N   UNL     1       3.873   6.000  18.257  0.00  0.00    +0.000 N 
ATOM     10  C   UNL     1       5.228   5.590  17.798  0.00  0.00    +0.000 C 
ATOM     11  C   UNL     1       5.910   4.993  19.010  0.00  0.00    +0.000 C 
ATOM     12  O   UNL     1       7.088   5.215  19.317  0.00  0.00    +0.000 OA
ATOM     13  N   UNL     1       5.148   4.076  19.702  0.00  0.00    +0.000 N 
ATOM     14  C   UNL     1       3.867   3.789  19.189  0.00  0.00    +0.000 A 
ATOM     15  C   UNL     1       3.519   2.457  19.007  0.00  0.00    +0.000 A 
ATOM     16  C   UNL     1       2.366   2.160  18.291  0.00  0.00    +0.000 A 
ATOM     17  C   UNL     1       1.514   3.191  17.876  0.00  0.00    +0.000 A 
ATOM     18  C   UNL     1       1.870   4.540  18.048  0.00  0.00    +0.000 A 
ATOM     19  C   UNL     1       3.118   4.825  18.589  0.00  0.00    +0.000 A 
ATOM     20  H   UNL     1       5.188   4.280  20.695  0.00  0.00    +0.000 HD
ENDBRANCH   4   7
BRANCH   1  23
ATOM     21  C   UNL     1      -0.357  11.724  20.886  0.00  0.00    +0.000 C 
ATOM     22  O   UNL     1       0.436  12.509  20.419  0.00  0.00    +0.000 OA
ATOM     23  N   UNL     1      -0.328  10.335  20.754  0.00  0.00    +0.000 N 
ATOM     24  H   UNL     1      -1.071   9.835  21.218  0.00  0.00    +0.000 HD
BRANCH  21  25
ATOM     25  C   UNL     1      -1.509  12.243  21.694  0.00  0.00    +0.000 C 
ATOM     26  C   UNL     1      -1.827  11.505  22.997  0.00  0.00    +0.000 C 
ATOM     27  C   UNL     1      -1.227  12.873  23.060  0.00  0.00    +0.000 C 
BRANCH  25  29
ATOM     28  C   UNL     1      -4.021  12.735  21.605  0.00  0.00    +0.000 C 
ATOM     29  C   UNL     1      -2.683  12.785  20.903  0.00  0.00    +0.000 C 
ATOM     30  F   UNL     1      -2.759  12.102  19.731  0.00  0.00    +0.000 F 
ATOM     31  F   UNL     1      -2.442  14.086  20.552  0.00  0.00    +0.000 F 
ENDBRANCH  25  29
ENDBRANCH  21  25
ENDBRANCH   1  23
TORSDOF 4
ENDMDL
MODEL 4
REMARK VINA RESULT:      -8.6      4.112      9.088
REMARK  Name = 
REMARK  5 active torsions:
REMARK  status: ('A' for Active; 'I' for Inactive)
REMARK    1  A    between atoms: C_1  and  C_2
REMARK    2  A    between atoms: C_2  and  C_5
REMARK    3  A    between atoms: C_5  and  C_6
REMARK    4  A    between atoms: N_8  and  C_9
REMARK    5  A    between atoms: C_12  and  C_13
REMARK                            x       y       z     vdW  Elec       q    Type
REMARK                         _______ _______ _______ _____ _____    ______ ____
ROOT
ATOM      1  C   UNL     1       2.509   7.015  19.250  0.00  0.00    +0.000 A 
ATOM      2  C   UNL     1       2.265   8.099  18.409  0.00  0.00    +0.000 A 
ATOM      3  C   UNL     1       1.436   9.157  18.822  0.00  0.00    +0.000 A 
ATOM      4  C   UNL     1       0.831   9.169  20.091  0.00  0.00    +0.000 A 
ATOM      5  C   UNL     1       1.057   8.074  20.929  0.00  0.00    +0.000 A 
ATOM      6  C   UNL     1       1.889   7.013  20.511  0.00  0.00    +0.000 A 
ENDROOT
BRANCH   4   7
ATOM      7  C   UNL     1      -0.145  10.272  20.395  0.00  0.00    +0.000 C 
ATOM      8  O   UNL     1      -0.349  10.553  21.577  0.00  0.00    +0.000 OA
ATOM      9  N   UNL     1      -0.622  11.078  19.364  0.00  0.00    +0.000 N 
ATOM     10  C   UNL     1      -0.902  12.492  19.733  0.00  0.00    +0.000 C 
ATOM     11  C   UNL     1      -0.549  13.313  18.512  0.00  0.00    +0.000 C 
ATOM     12  O   UNL     1       0.063  14.388  18.557  0.00  0.00    +0.000 OA
ATOM     13  N   UNL     1      -1.066  12.831  17.328  0.00  0.00    +0.000 N 
ATOM     14  C   UNL     1      -1.869  11.675  17.403  0.00  0.00    +0.000 A 
ATOM     15  C   UNL     1      -3.111  11.701  16.785  0.00  0.00    +0.000 A 
ATOM     16  C   UNL     1      -4.007  10.670  17.043  0.00  0.00    +0.000 A 
ATOM     17  C   UNL     1      -3.607   9.569  17.809  0.00  0.00    +0.000 A 
ATOM     18  C   UNL     1      -2.353   9.546  18.446  0.00  0.00    +0.000 A 
ATOM     19  C   UNL     1      -1.544  10.671  18.342  0.00  0.00    +0.000 A 
ATOM     20  H   UNL     1      -0.339  12.816  16.621  0.00  0.00    +0.000 HD
ENDBRANCH   4   7
BRANCH   1  23
ATOM     21  C   UNL     1       3.010   4.819  18.108  0.00  0.00    +0.000 C 
ATOM     22  O   UNL     1       1.949   4.608  17.568  0.00  0.00    +0.000 OA
ATOM     23  N   UNL     1       3.331   5.914  18.911  0.00  0.00    +0.000 N 
ATOM     24  H   UNL     1       4.268   5.923  19.286  0.00  0.00    +0.000 HD
BRANCH  21  25
ATOM     25  C   UNL     1       4.130   3.838  17.926  0.00  0.00    +0.000 C 
ATOM     26  C   UNL     1       4.566   3.051  19.164  0.00  0.00    +0.000 C 
ATOM     27  C   UNL     1       3.831   2.344  18.071  0.00  0.00    +0.000 C 
BRANCH  25  29
ATOM     28  C   UNL     1       6.518   4.692  17.568  0.00  0.00    +0.000 C 
ATOM     29  C   UNL     1       5.214   4.243  16.947  0.00  0.00    +0.000 C 
ATOM     30  F   UNL     1       4.724   5.231  16.154  0.00  0.00    +0.000 F 
ATOM     31  F   UNL     1       5.488   3.200  16.104  0.00  0.00    +0.000 F 
ENDBRANCH  25  29
ENDBRANCH  21  25
ENDBRANCH   1  23
TORSDOF 4
ENDMDL
MODEL 5
REMARK VINA RESULT:      -8.5      4.292      9.157
REMARK  Name = 
REMARK  5 active torsions:
REMARK  status: ('A' for Active; 'I' for Inactive)
REMARK    1  A    between atoms: C_1  and  C_2
REMARK    2  A    between atoms: C_2  and  C_5
REMARK    3  A    between atoms: C_5  and  C_6
REMARK    4  A    between atoms: N_8  and  C_9
REMARK    5  A    between atoms: C_12  and  C_13
REMARK                            x       y       z     vdW  Elec       q    Type
REMARK                         _______ _______ _______ _____ _____    ______ ____
ROOT
ATOM      1  C   UNL     1       2.912   7.228  18.605  0.00  0.00    +0.000 A 
ATOM      2  C   UNL     1       2.519   8.350  17.878  0.00  0.00    +0.000 A 
ATOM      3  C   UNL     1       1.630   9.289  18.430  0.00  0.00    +0.000 A 
ATOM      4  C   UNL     1       1.112   9.142  19.728  0.00  0.00    +0.000 A 
ATOM      5  C   UNL     1       1.488   8.008  20.453  0.00  0.00    +0.000 A 
ATOM      6  C   UNL     1       2.379   7.065  19.895  0.00  0.00    +0.000 A 
ENDROOT
BRANCH   4   7
ATOM      7  C   UNL     1       0.066  10.122  20.184  0.00  0.00    +0.000 C 
ATOM      8  O   UNL     1      -0.116  10.250  21.396  0.00  0.00    +0.000 OA
ATOM      9  N   UNL     1      -0.507  10.999  19.267  0.00  0.00    +0.000 N 
ATOM     10  C   UNL     1      -0.881  12.335  19.805  0.00  0.00    +0.000 C 
ATOM     11  C   UNL     1      -0.635  13.315  18.679  0.00  0.00    +0.000 C 
ATOM     12  O   UNL     1      -0.105  14.423  18.831  0.00  0.00    +0.000 OA
ATOM     13  N   UNL     1      -1.156  12.931  17.461  0.00  0.00    +0.000 N 
ATOM     14  C   UNL     1      -1.865  11.713  17.423  0.00  0.00    +0.000 A 
ATOM     15  C   UNL     1      -3.128  11.710  16.846  0.00  0.00    +0.000 A 
ATOM     16  C   UNL     1      -3.932  10.589  17.006  0.00  0.00    +0.000 A 
ATOM     17  C   UNL     1      -3.422   9.444  17.629  0.00  0.00    +0.000 A 
ATOM     18  C   UNL     1      -2.148   9.448  18.225  0.00  0.00    +0.000 A 
ATOM     19  C   UNL     1      -1.431  10.638  18.230  0.00  0.00    +0.000 A 
ATOM     20  H   UNL     1      -0.456  13.054  16.738  0.00  0.00    +0.000 HD
ENDBRANCH   4   7
BRANCH   1  23
ATOM     21  C   UNL     1       4.625   6.300  16.999  0.00  0.00    +0.000 C 
ATOM     22  O   UNL     1       4.710   7.218  16.217  0.00  0.00    +0.000 OA
ATOM     23  N   UNL     1       3.801   6.238  18.124  0.00  0.00    +0.000 N 
ATOM     24  H   UNL     1       3.857   5.387  18.662  0.00  0.00    +0.000 HD
BRANCH  21  25
ATOM     25  C   UNL     1       5.473   5.080  16.788  0.00  0.00    +0.000 C 
ATOM     26  C   UNL     1       4.910   3.752  17.298  0.00  0.00    +0.000 C 
ATOM     27  C   UNL     1       4.980   3.997  15.825  0.00  0.00    +0.000 C 
BRANCH  25  29
ATOM     28  C   UNL     1       7.414   6.274  17.957  0.00  0.00    +0.000 C 
ATOM     29  C   UNL     1       6.971   5.286  16.902  0.00  0.00    +0.000 C 
ATOM     30  F   UNL     1       7.441   5.675  15.689  0.00  0.00    +0.000 F 
ATOM     31  F   UNL     1       7.582   4.089  17.165  0.00  0.00    +0.000 F 
ENDBRANCH  25  29
ENDBRANCH  21  25
ENDBRANCH   1  23
TORSDOF 4
ENDMDL
MODEL 6
REMARK VINA RESULT:      -8.4      4.139      9.203
REMARK  Name = 
REMARK  5 active torsions:
REMARK  status: ('A' for Active; 'I' for Inactive)
REMARK    1  A    between atoms: C_1  and  C_2
REMARK    2  A    between atoms: C_2  and  C_5
REMARK    3  A    between atoms: C_5  and  C_6
REMARK    4  A    between atoms: N_8  and  C_9
REMARK    5  A    between atoms: C_12  and  C_13
REMARK                            x       y       z     vdW  Elec       q    Type
REMARK                         _______ _______ _______ _____ _____    ______ ____
ROOT
ATOM      1  C   UNL     1       3.000   7.264  18.300  0.00  0.00    +0.000 A 
ATOM      2  C   UNL     1       2.600   8.438  17.665  0.00  0.00    +0.000 A 
ATOM      3  C   UNL     1       1.738   9.345  18.305  0.00  0.00    +0.000 A 
ATOM      4  C   UNL     1       1.254   9.112  19.604  0.00  0.00    +0.000 A 
ATOM      5  C   UNL     1       1.635   7.926  20.237  0.00  0.00    +0.000 A 
ATOM      6  C   UNL     1       2.500   7.016  19.590  0.00  0.00    +0.000 A 
ENDROOT
BRANCH   4   7
ATOM      7  C   UNL     1       0.232  10.067  20.156  0.00  0.00    +0.000 C 
ATOM      8  O   UNL     1       0.120  10.149  21.380  0.00  0.00    +0.000 OA
ATOM      9  N   UNL     1      -0.397  10.975  19.307  0.00  0.00    +0.000 N 
ATOM     10  C   UNL     1      -0.744  12.288  19.916  0.00  0.00    +0.000 C 
ATOM     11  C   UNL     1      -0.568  13.310  18.815  0.00  0.00    +0.000 C 
ATOM     12  O   UNL     1      -0.035  14.415  18.979  0.00  0.00    +0.000 OA
ATOM     13  N   UNL     1      -1.157  12.969  17.616  0.00  0.00    +0.000 N 
ATOM     14  C   UNL     1      -1.862  11.749  17.573  0.00  0.00    +0.000 A 
ATOM     15  C   UNL     1      -3.156  11.760  17.069  0.00  0.00    +0.000 A 
ATOM     16  C   UNL     1      -3.946  10.629  17.234  0.00  0.00    +0.000 A 
ATOM     17  C   UNL     1      -3.396   9.464  17.782  0.00  0.00    +0.000 A 
ATOM     18  C   UNL     1      -2.090   9.454  18.304  0.00  0.00    +0.000 A 
ATOM     19  C   UNL     1      -1.378  10.648  18.313  0.00  0.00    +0.000 A 
ATOM     20  H   UNL     1      -0.500  13.124  16.859  0.00  0.00    +0.000 HD
ENDBRANCH   4   7
BRANCH   1  23
ATOM     21  C   UNL     1       5.212   6.449  17.396  0.00  0.00    +0.000 C 
ATOM     22  O   UNL     1       5.882   7.447  17.527  0.00  0.00    +0.000 OA
ATOM     23  N   UNL     1       3.864   6.302  17.726  0.00  0.00    +0.000 N 
ATOM     24  H   UNL     1       3.464   5.395  17.541  0.00  0.00    +0.000 HD
BRANCH  21  25
ATOM     25  C   UNL     1       5.846   5.214  16.827  0.00  0.00    +0.000 C 
ATOM     26  C   UNL     1       7.141   4.736  17.488  0.00  0.00    +0.000 C 
ATOM     27  C   UNL     1       5.886   3.946  17.683  0.00  0.00    +0.000 C 
BRANCH  25  29
ATOM     28  C   UNL     1       7.026   4.745  14.603  0.00  0.00    +0.000 C 
ATOM     29  C   UNL     1       5.731   5.041  15.325  0.00  0.00    +0.000 C 
ATOM     30  F   UNL     1       5.169   6.165  14.809  0.00  0.00    +0.000 F 
ATOM     31  F   UNL     1       4.852   4.030  15.043  0.00  0.00    +0.000 F 
ENDBRANCH  25  29
ENDBRANCH  21  25
ENDBRANCH   1  23
TORSDOF 4
ENDMDL
MODEL 7
REMARK VINA RESULT:      -8.4      1.114      1.578
REMARK  Name = 
REMARK  5 active torsions:
REMARK  status: ('A' for Active; 'I' for Inactive)
REMARK    1  A    between atoms: C_1  and  C_2
REMARK    2  A    between atoms: C_2  and  C_5
REMARK    3  A    between atoms: C_5  and  C_6
REMARK    4  A    between atoms: N_8  and  C_9
REMARK    5  A    between atoms: C_12  and  C_13
REMARK                            x       y       z     vdW  Elec       q    Type
REMARK                         _______ _______ _______ _____ _____    ______ ____
ROOT
ATOM      1  C   UNL     1       0.738   9.902  19.801  0.00  0.00    +0.000 A 
ATOM      2  C   UNL     1       1.136  10.085  18.478  0.00  0.00    +0.000 A 
ATOM      3  C   UNL     1       1.953   9.139  17.835  0.00  0.00    +0.000 A 
ATOM      4  C   UNL     1       2.393   7.976  18.491  0.00  0.00    +0.000 A 
ATOM      5  C   UNL     1       2.013   7.798  19.824  0.00  0.00    +0.000 A 
ATOM      6  C   UNL     1       1.193   8.751  20.467  0.00  0.00    +0.000 A 
ENDROOT
BRANCH   4   7
ATOM      7  C   UNL     1       3.372   7.089  17.772  0.00  0.00    +0.000 C 
ATOM      8  O   UNL     1       3.853   7.498  16.715  0.00  0.00    +0.000 OA
ATOM      9  N   UNL     1       3.869   5.952  18.405  0.00  0.00    +0.000 N 
ATOM     10  C   UNL     1       5.269   5.585  18.058  0.00  0.00    +0.000 C 
ATOM     11  C   UNL     1       5.868   5.010  19.322  0.00  0.00    +0.000 C 
ATOM     12  O   UNL     1       7.010   5.268  19.724  0.00  0.00    +0.000 OA
ATOM     13  N   UNL     1       5.082   4.068  19.952  0.00  0.00    +0.000 N 
ATOM     14  C   UNL     1       3.857   3.741  19.336  0.00  0.00    +0.000 A 
ATOM     15  C   UNL     1       3.566   2.400  19.130  0.00  0.00    +0.000 A 
ATOM     16  C   UNL     1       2.486   2.067  18.323  0.00  0.00    +0.000 A 
ATOM     17  C   UNL     1       1.638   3.070  17.838  0.00  0.00    +0.000 A 
ATOM     18  C   UNL     1       1.937   4.430  18.036  0.00  0.00    +0.000 A 
ATOM     19  C   UNL     1       3.127   4.754  18.676  0.00  0.00    +0.000 A 
ATOM     20  H   UNL     1       5.035   4.273  20.944  0.00  0.00    +0.000 HD
ENDBRANCH   4   7
BRANCH   1  23
ATOM     21  C   UNL     1       0.304  11.953  21.208  0.00  0.00    +0.000 C 
ATOM     22  O   UNL     1       1.431  12.375  21.333  0.00  0.00    +0.000 OA
ATOM     23  N   UNL     1      -0.083  10.805  20.517  0.00  0.00    +0.000 N 
ATOM     24  H   UNL     1      -1.071  10.601  20.524  0.00  0.00    +0.000 HD
BRANCH  21  25
ATOM     25  C   UNL     1      -0.830  12.706  21.838  0.00  0.00    +0.000 C 
ATOM     26  C   UNL     1      -2.181  11.990  21.905  0.00  0.00    +0.000 C 
ATOM     27  C   UNL     1      -1.404  12.201  23.164  0.00  0.00    +0.000 C 
BRANCH  25  29
ATOM     28  C   UNL     1       0.007  15.028  22.523  0.00  0.00    +0.000 C 
ATOM     29  C   UNL     1      -0.851  14.202  21.591  0.00  0.00    +0.000 C 
ATOM     30  F   UNL     1      -2.139  14.628  21.662  0.00  0.00    +0.000 F 
ATOM     31  F   UNL     1      -0.450  14.463  20.309  0.00  0.00    +0.000 F 
ENDBRANCH  25  29
ENDBRANCH  21  25
ENDBRANCH   1  23
TORSDOF 4
ENDMDL
MODEL 8
REMARK VINA RESULT:      -8.4      3.955      9.543
REMARK  Name = 
REMARK  5 active torsions:
REMARK  status: ('A' for Active; 'I' for Inactive)
REMARK    1  A    between atoms: C_1  and  C_2
REMARK    2  A    between atoms: C_2  and  C_5
REMARK    3  A    between atoms: C_5  and  C_6
REMARK    4  A    between atoms: N_8  and  C_9
REMARK    5  A    between atoms: C_12  and  C_13
REMARK                            x       y       z     vdW  Elec       q    Type
REMARK                         _______ _______ _______ _____ _____    ______ ____
ROOT
ATOM      1  C   UNL     1       2.263   7.957  18.910  0.00  0.00    +0.000 A 
ATOM      2  C   UNL     1       1.803   8.789  17.892  0.00  0.00    +0.000 A 
ATOM      3  C   UNL     1       0.825   9.766  18.148  0.00  0.00    +0.000 A 
ATOM      4  C   UNL     1       0.280   9.947  19.431  0.00  0.00    +0.000 A 
ATOM      5  C   UNL     1       0.724   9.100  20.451  0.00  0.00    +0.000 A 
ATOM      6  C   UNL     1       1.706   8.120  20.190  0.00  0.00    +0.000 A 
ENDROOT
BRANCH   4   7
ATOM      7  C   UNL     1      -0.856  10.920  19.583  0.00  0.00    +0.000 C 
ATOM      8  O   UNL     1      -1.812  10.817  18.814  0.00  0.00    +0.000 OA
ATOM      9  N   UNL     1      -0.906  11.756  20.696  0.00  0.00    +0.000 N 
ATOM     10  C   UNL     1      -2.270  12.085  21.190  0.00  0.00    +0.000 C 
ATOM     11  C   UNL     1      -2.149  12.185  22.695  0.00  0.00    +0.000 C 
ATOM     12  O   UNL     1      -2.976  11.714  23.487  0.00  0.00    +0.000 OA
ATOM     13  N   UNL     1      -1.092  12.953  23.135  0.00  0.00    +0.000 N 
ATOM     14  C   UNL     1      -0.289  13.563  22.150  0.00  0.00    +0.000 A 
ATOM     15  C   UNL     1      -0.036  14.922  22.263  0.00  0.00    +0.000 A 
ATOM     16  C   UNL     1       0.549  15.584  21.190  0.00  0.00    +0.000 A 
ATOM     17  C   UNL     1       0.987  14.861  20.075  0.00  0.00    +0.000 A 
ATOM     18  C   UNL     1       0.720  13.485  19.952  0.00  0.00    +0.000 A 
ATOM     19  C   UNL     1      -0.039  12.873  20.942  0.00  0.00    +0.000 A 
ATOM     20  H   UNL     1      -0.591  12.456  23.864  0.00  0.00    +0.000 HD
ENDBRANCH   4   7
BRANCH   1  23
ATOM     21  C   UNL     1       3.082   5.678  18.192  0.00  0.00    +0.000 C 
ATOM     22  O   UNL     1       2.050   5.195  17.785  0.00  0.00    +0.000 OA
ATOM     23  N   UNL     1       3.245   6.953  18.736  0.00  0.00    +0.000 N 
ATOM     24  H   UNL     1       4.181   7.187  19.030  0.00  0.00    +0.000 HD
BRANCH  21  25
ATOM     25  C   UNL     1       4.343   4.870  18.125  0.00  0.00    +0.000 C 
ATOM     26  C   UNL     1       5.319   5.015  19.295  0.00  0.00    +0.000 C 
ATOM     27  C   UNL     1       4.550   3.742  19.139  0.00  0.00    +0.000 C 
BRANCH  25  29
ATOM     28  C   UNL     1       5.142   5.957  15.948  0.00  0.00    +0.000 C 
ATOM     29  C   UNL     1       4.941   4.687  16.744  0.00  0.00    +0.000 C 
ATOM     30  F   UNL     1       4.149   3.833  16.045  0.00  0.00    +0.000 F 
ATOM     31  F   UNL     1       6.154   4.060  16.845  0.00  0.00    +0.000 F 
ENDBRANCH  25  29
ENDBRANCH  21  25
ENDBRANCH   1  23
TORSDOF 4
ENDMDL
MODEL 9
REMARK VINA RESULT:      -8.3      4.057      9.071
REMARK  Name = 
REMARK  5 active torsions:
REMARK  status: ('A' for Active; 'I' for Inactive)
REMARK    1  A    between atoms: C_1  and  C_2
REMARK    2  A    between atoms: C_2  and  C_5
REMARK    3  A    between atoms: C_5  and  C_6
REMARK    4  A    between atoms: N_8  and  C_9
REMARK    5  A    between atoms: C_12  and  C_13
REMARK                            x       y       z     vdW  Elec       q    Type
REMARK                         _______ _______ _______ _____ _____    ______ ____
ROOT
ATOM      1  C   UNL     1       2.196   7.505  19.497  0.00  0.00    +0.000 A 
ATOM      2  C   UNL     1       1.488   8.098  20.540  0.00  0.00    +0.000 A 
ATOM      3  C   UNL     1       0.811   9.315  20.350  0.00  0.00    +0.000 A 
ATOM      4  C   UNL     1       0.814   9.975  19.109  0.00  0.00    +0.000 A 
ATOM      5  C   UNL     1       1.539   9.394  18.065  0.00  0.00    +0.000 A 
ATOM      6  C   UNL     1       2.219   8.172  18.260  0.00  0.00    +0.000 A 
ENDROOT
BRANCH   4   7
ATOM      7  C   UNL     1       0.178  11.336  19.033  0.00  0.00    +0.000 C 
ATOM      8  O   UNL     1      -0.894  11.440  18.436  0.00  0.00    +0.000 OA
ATOM      9  N   UNL     1       0.685  12.380  19.804  0.00  0.00    +0.000 N 
ATOM     10  C   UNL     1      -0.318  13.367  20.286  0.00  0.00    +0.000 C 
ATOM     11  C   UNL     1       0.160  13.805  21.653  0.00  0.00    +0.000 C 
ATOM     12  O   UNL     1      -0.586  13.952  22.630  0.00  0.00    +0.000 OA
ATOM     13  N   UNL     1       1.494  14.147  21.711  0.00  0.00    +0.000 N 
ATOM     14  C   UNL     1       2.226  14.078  20.508  0.00  0.00    +0.000 A 
ATOM     15  C   UNL     1       2.979  15.184  20.137  0.00  0.00    +0.000 A 
ATOM     16  C   UNL     1       3.514  15.228  18.856  0.00  0.00    +0.000 A 
ATOM     17  C   UNL     1       3.398  14.119  18.009  0.00  0.00    +0.000 A 
ATOM     18  C   UNL     1       2.625  13.003  18.378  0.00  0.00    +0.000 A 
ATOM     19  C   UNL     1       1.933  13.053  19.581  0.00  0.00    +0.000 A 
ATOM     20  H   UNL     1       1.925  13.701  22.513  0.00  0.00    +0.000 HD
ENDBRANCH   4   7
BRANCH   1  23
ATOM     21  C   UNL     1       2.597   5.060  19.006  0.00  0.00    +0.000 C 
ATOM     22  O   UNL     1       1.651   4.824  18.291  0.00  0.00    +0.000 OA
ATOM     23  N   UNL     1       2.901   6.283  19.606  0.00  0.00    +0.000 N 
ATOM     24  H   UNL     1       3.731   6.295  20.179  0.00  0.00    +0.000 HD
BRANCH  21  25
ATOM     25  C   UNL     1       3.575   3.964  19.308  0.00  0.00    +0.000 C 
ATOM     26  C   UNL     1       4.466   3.496  18.155  0.00  0.00    +0.000 C 
ATOM     27  C   UNL     1       5.072   4.282  19.274  0.00  0.00    +0.000 C 
BRANCH  25  29
ATOM     28  C   UNL     1       2.291   3.422  21.457  0.00  0.00    +0.000 C 
ATOM     29  C   UNL     1       3.106   2.909  20.291  0.00  0.00    +0.000 C 
ATOM     30  F   UNL     1       4.195   2.244  20.755  0.00  0.00    +0.000 F 
ATOM     31  F   UNL     1       2.355   1.970  19.636  0.00  0.00    +0.000 F 
ENDBRANCH  25  29
ENDBRANCH  21  25
ENDBRANCH   1  23
TORSDOF 4
ENDMDL
