MODEL 1
REMARK VINA RESULT:      -8.6      0.000      0.000
REMARK  Name = 
REMARK  4 active torsions:
REMARK  status: ('A' for Active; 'I' for Inactive)
REMARK    1  A    between atoms: C_2  and  C_3
REMARK    2  A    between atoms: C_3  and  C_4
REMARK    3  A    between atoms: C_3  and  C_10
REMARK    4  A    between atoms: C_20  and  C_21
REMARK                            x       y       z     vdW  Elec       q    Type
REMARK                         _______ _______ _______ _____ _____    ______ ____
ROOT
ATOM      1  O   UNL     1       2.132   7.713  17.372  0.00  0.00    +0.000 OA
ATOM      2  C   UNL     1       2.387   7.591  18.576  0.00  0.00    +0.000 C 
ATOM      3  N   UNL     1       1.816   8.464  19.505  0.00  0.00    +0.000 N 
ATOM      4  C   UNL     1       1.997   8.443  20.956  0.00  0.00    +0.000 C 
ATOM      5  C   UNL     1       0.664   8.234  21.667  0.00  0.00    +0.000 C 
ATOM      6  C   UNL     1      -0.394   9.235  21.207  0.00  0.00    +0.000 C 
ATOM      7  C   UNL     1      -0.501   9.316  19.670  0.00  0.00    +0.000 C 
ATOM      8  C   UNL     1       0.888   9.496  19.033  0.00  0.00    +0.000 C 
ENDROOT
BRANCH   7   9
ATOM      9  C   UNL     1      -1.421  10.425  19.256  0.00  0.00    +0.000 A 
ATOM     10  N   UNL     1      -1.648  11.543  19.917  0.00  0.00    +0.000 NA
ATOM     11  N   UNL     1      -2.572  12.285  19.226  0.00  0.00    +0.000 NA
ATOM     12  C   UNL     1      -2.887  11.618  18.139  0.00  0.00    +0.000 A 
ATOM     13  C   UNL     1      -3.778  11.889  17.066  0.00  0.00    +0.000 A 
ATOM     14  C   UNL     1      -3.884  11.013  16.049  0.00  0.00    +0.000 A 
ATOM     15  C   UNL     1      -3.100   9.786  16.023  0.00  0.00    +0.000 A 
ATOM     16  C   UNL     1      -2.264   9.520  17.043  0.00  0.00    +0.000 A 
ATOM     17  N   UNL     1      -2.166  10.430  18.094  0.00  0.00    +0.000 N 
ENDBRANCH   7   9
BRANCH   2  18
ATOM     18  C   UNL     1       3.284   6.433  19.091  0.00  0.00    +0.000 C 
BRANCH  18  19
ATOM     19  C   UNL     1       2.406   5.190  19.268  0.00  0.00    +0.000 A 
ATOM     20  C   UNL     1       1.944   4.820  20.543  0.00  0.00    +0.000 A 
ATOM     21  C   UNL     1       1.131   3.699  20.707  0.00  0.00    +0.000 A 
ATOM     22  C   UNL     1       0.781   2.925  19.604  0.00  0.00    +0.000 A 
ATOM     23  C   UNL     1       1.233   3.277  18.333  0.00  0.00    +0.000 A 
ATOM     24  C   UNL     1       2.032   4.409  18.162  0.00  0.00    +0.000 A 
ENDBRANCH  18  19
BRANCH  18  25
ATOM     25  C   UNL     1       4.560   6.186  18.263  0.00  0.00    +0.000 A 
ATOM     26  C   UNL     1       5.649   5.469  18.788  0.00  0.00    +0.000 A 
ATOM     27  C   UNL     1       6.765   5.172  18.001  0.00  0.00    +0.000 A 
ATOM     28  C   UNL     1       6.806   5.566  16.667  0.00  0.00    +0.000 A 
ATOM     29  C   UNL     1       5.732   6.258  16.118  0.00  0.00    +0.000 A 
ATOM     30  C   UNL     1       4.618   6.556  16.905  0.00  0.00    +0.000 A 
ENDBRANCH  18  25
ENDBRANCH   2  18
TORSDOF 4
ENDMDL
MODEL 2
REMARK VINA RESULT:      -8.5      0.222      1.263
REMARK  Name = 
REMARK  4 active torsions:
REMARK  status: ('A' for Active; 'I' for Inactive)
REMARK    1  A    between atoms: C_2  and  C_3
REMARK    2  A    between atoms: C_3  and  C_4
REMARK    3  A    between atoms: C_3  and  C_10
REMARK    4  A    between atoms: C_20  and  C_21
REMARK                            x       y       z     vdW  Elec       q    Type
REMARK                         _______ _______ _______ _____ _____    ______ ____
ROOT
ATOM      1  O   UNL     1       2.187   7.671  17.420  0.00  0.00    +0.000 OA
ATOM      2  C   UNL     1       2.399   7.556  18.633  0.00  0.00    +0.000 C 
ATOM      3  N   UNL     1       1.801   8.440  19.535  0.00  0.00    +0.000 N 
ATOM      4  C   UNL     1       1.932   8.429  20.991  0.00  0.00    +0.000 C 
ATOM      5  C   UNL     1       0.573   8.233  21.657  0.00  0.00    +0.000 C 
ATOM      6  C   UNL     1      -0.462   9.237  21.153  0.00  0.00    +0.000 C 
ATOM      7  C   UNL     1      -0.515   9.306  19.612  0.00  0.00    +0.000 C 
ATOM      8  C   UNL     1       0.896   9.473  19.022  0.00  0.00    +0.000 C 
ENDROOT
BRANCH   7   9
ATOM      9  C   UNL     1      -1.414  10.417  19.158  0.00  0.00    +0.000 A 
ATOM     10  N   UNL     1      -1.646  11.547  19.796  0.00  0.00    +0.000 NA
ATOM     11  N   UNL     1      -2.546  12.287  19.070  0.00  0.00    +0.000 NA
ATOM     12  C   UNL     1      -2.840  11.605  17.986  0.00  0.00    +0.000 A 
ATOM     13  C   UNL     1      -3.702  11.867  16.888  0.00  0.00    +0.000 A 
ATOM     14  C   UNL     1      -3.792  10.976  15.883  0.00  0.00    +0.000 A 
ATOM     15  C   UNL     1      -3.019   9.741  15.895  0.00  0.00    +0.000 A 
ATOM     16  C   UNL     1      -2.211   9.484  16.939  0.00  0.00    +0.000 A 
ATOM     17  N   UNL     1      -2.131  10.410  17.978  0.00  0.00    +0.000 N 
ENDBRANCH   7   9
BRANCH   2  18
ATOM     18  C   UNL     1       3.271   6.397  19.187  0.00  0.00    +0.000 C 
BRANCH  18  19
ATOM     19  C   UNL     1       2.389   5.151  19.310  0.00  0.00    +0.000 A 
ATOM     20  C   UNL     1       2.108   4.362  18.181  0.00  0.00    +0.000 A 
ATOM     21  C   UNL     1       1.319   3.218  18.291  0.00  0.00    +0.000 A 
ATOM     22  C   UNL     1       0.788   2.855  19.526  0.00  0.00    +0.000 A 
ATOM     23  C   UNL     1       1.055   3.627  20.654  0.00  0.00    +0.000 A 
ATOM     24  C   UNL     1       1.860   4.763  20.552  0.00  0.00    +0.000 A 
ENDBRANCH  18  19
BRANCH  18  25
ATOM     25  C   UNL     1       4.589   6.159  18.427  0.00  0.00    +0.000 A 
ATOM     26  C   UNL     1       4.806   6.696  17.146  0.00  0.00    +0.000 A 
ATOM     27  C   UNL     1       6.038   6.552  16.501  0.00  0.00    +0.000 A 
ATOM     28  C   UNL     1       7.085   5.887  17.131  0.00  0.00    +0.000 A 
ATOM     29  C   UNL     1       6.902   5.364  18.407  0.00  0.00    +0.000 A 
ATOM     30  C   UNL     1       5.672   5.507  19.050  0.00  0.00    +0.000 A 
ENDBRANCH  18  25
ENDBRANCH   2  18
TORSDOF 4
ENDMDL
MODEL 3
REMARK VINA RESULT:      -7.9      3.826      8.378
REMARK  Name = 
REMARK  4 active torsions:
REMARK  status: ('A' for Active; 'I' for Inactive)
REMARK    1  A    between atoms: C_2  and  C_3
REMARK    2  A    between atoms: C_3  and  C_4
REMARK    3  A    between atoms: C_3  and  C_10
REMARK    4  A    between atoms: C_20  and  C_21
REMARK                            x       y       z     vdW  Elec       q    Type
REMARK                         _______ _______ _______ _____ _____    ______ ____
ROOT
ATOM      1  O   UNL     1       2.952   6.577  17.124  0.00  0.00    +0.000 OA
ATOM      2  C   UNL     1       3.494   5.970  18.056  0.00  0.00    +0.000 C 
ATOM      3  N   UNL     1       4.604   5.159  17.812  0.00  0.00    +0.000 N 
ATOM      4  C   UNL     1       5.367   4.396  18.799  0.00  0.00    +0.000 C 
ATOM      5  C   UNL     1       6.823   4.852  18.832  0.00  0.00    +0.000 C 
ATOM      6  C   UNL     1       7.457   4.844  17.443  0.00  0.00    +0.000 C 
ATOM      7  C   UNL     1       6.589   5.569  16.393  0.00  0.00    +0.000 C 
ATOM      8  C   UNL     1       5.134   5.072  16.448  0.00  0.00    +0.000 C 
ENDROOT
BRANCH   7   9
ATOM      9  C   UNL     1       7.157   5.393  15.016  0.00  0.00    +0.000 A 
ATOM     10  N   UNL     1       8.265   5.934  14.551  0.00  0.00    +0.000 NA
ATOM     11  N   UNL     1       8.426   5.555  13.242  0.00  0.00    +0.000 NA
ATOM     12  C   UNL     1       7.419   4.771  12.927  0.00  0.00    +0.000 A 
ATOM     13  C   UNL     1       7.063   4.095  11.731  0.00  0.00    +0.000 A 
ATOM     14  C   UNL     1       5.960   3.323  11.702  0.00  0.00    +0.000 A 
ATOM     15  C   UNL     1       5.118   3.164  12.881  0.00  0.00    +0.000 A 
ATOM     16  C   UNL     1       5.447   3.813  14.013  0.00  0.00    +0.000 A 
ATOM     17  N   UNL     1       6.586   4.615  14.029  0.00  0.00    +0.000 N 
ENDBRANCH   7   9
BRANCH   2  18
ATOM     18  C   UNL     1       3.001   6.145  19.519  0.00  0.00    +0.000 C 
BRANCH  18  19
ATOM     19  C   UNL     1       2.189   7.442  19.597  0.00  0.00    +0.000 A 
ATOM     20  C   UNL     1       2.136   8.318  18.498  0.00  0.00    +0.000 A 
ATOM     21  C   UNL     1       1.385   9.491  18.559  0.00  0.00    +0.000 A 
ATOM     22  C   UNL     1       0.691   9.813  19.723  0.00  0.00    +0.000 A 
ATOM     23  C   UNL     1       0.735   8.957  20.821  0.00  0.00    +0.000 A 
ATOM     24  C   UNL     1       1.470   7.772  20.758  0.00  0.00    +0.000 A 
ENDBRANCH  18  19
BRANCH  18  25
ATOM     25  C   UNL     1       2.281   4.919  20.110  0.00  0.00    +0.000 A 
ATOM     26  C   UNL     1       1.344   4.185  19.362  0.00  0.00    +0.000 A 
ATOM     27  C   UNL     1       0.763   3.021  19.874  0.00  0.00    +0.000 A 
ATOM     28  C   UNL     1       1.123   2.555  21.134  0.00  0.00    +0.000 A 
ATOM     29  C   UNL     1       2.064   3.251  21.885  0.00  0.00    +0.000 A 
ATOM     30  C   UNL     1       2.643   4.413  21.375  0.00  0.00    +0.000 A 
ENDBRANCH  18  25
ENDBRANCH   2  18
TORSDOF 4
ENDMDL
MODEL 4
REMARK VINA RESULT:      -7.7      2.638      8.186
REMARK  Name = 
REMARK  4 active torsions:
REMARK  status: ('A' for Active; 'I' for Inactive)
REMARK    1  A    between atoms: C_2  and  C_3
REMARK    2  A    between atoms: C_3  and  C_4
REMARK    3  A    between atoms: C_3  and  C_10
REMARK    4  A    between atoms: C_20  and  C_21
REMARK                            x       y       z     vdW  Elec       q    Type
REMARK                         _______ _______ _______ _____ _____    ______ ____
ROOT
ATOM      1  O   UNL     1      -0.696   9.315  20.929  0.00  0.00    +0.000 OA
ATOM      2  C   UNL     1       0.070   9.855  20.122  0.00  0.00    +0.000 C 
ATOM      3  N   UNL     1       1.261   9.224  19.756  0.00  0.00    +0.000 N 
ATOM      4  C   UNL     1       2.258   9.715  18.806  0.00  0.00    +0.000 C 
ATOM      5  C   UNL     1       2.425   8.743  17.642  0.00  0.00    +0.000 C 
ATOM      6  C   UNL     1       2.700   7.318  18.121  0.00  0.00    +0.000 C 
ATOM      7  C   UNL     1       1.695   6.853  19.197  0.00  0.00    +0.000 C 
ATOM      8  C   UNL     1       1.565   7.903  20.314  0.00  0.00    +0.000 C 
ENDROOT
BRANCH   7   9
ATOM      9  C   UNL     1       2.096   5.524  19.763  0.00  0.00    +0.000 A 
ATOM     10  N   UNL     1       2.239   5.228  21.040  0.00  0.00    +0.000 NA
ATOM     11  N   UNL     1       2.642   3.920  21.147  0.00  0.00    +0.000 NA
ATOM     12  C   UNL     1       2.725   3.428  19.932  0.00  0.00    +0.000 A 
ATOM     13  C   UNL     1       3.089   2.149  19.434  0.00  0.00    +0.000 A 
ATOM     14  C   UNL     1       3.061   1.915  18.108  0.00  0.00    +0.000 A 
ATOM     15  C   UNL     1       2.662   2.953  17.166  0.00  0.00    +0.000 A 
ATOM     16  C   UNL     1       2.328   4.169  17.633  0.00  0.00    +0.000 A 
ATOM     17  N   UNL     1       2.367   4.402  19.007  0.00  0.00    +0.000 N 
ENDBRANCH   7   9
BRANCH   2  18
ATOM     18  C   UNL     1      -0.300  11.205  19.447  0.00  0.00    +0.000 C 
BRANCH  18  19
ATOM     19  C   UNL     1      -1.532  10.976  18.565  0.00  0.00    +0.000 A 
ATOM     20  C   UNL     1      -1.491  10.047  17.511  0.00  0.00    +0.000 A 
ATOM     21  C   UNL     1      -2.615   9.823  16.716  0.00  0.00    +0.000 A 
ATOM     22  C   UNL     1      -3.788  10.534  16.953  0.00  0.00    +0.000 A 
ATOM     23  C   UNL     1      -3.844  11.460  17.993  0.00  0.00    +0.000 A 
ATOM     24  C   UNL     1      -2.728  11.674  18.803  0.00  0.00    +0.000 A 
ENDBRANCH  18  19
BRANCH  18  25
ATOM     25  C   UNL     1      -0.434  12.396  20.414  0.00  0.00    +0.000 A 
ATOM     26  C   UNL     1      -0.848  12.219  21.746  0.00  0.00    +0.000 A 
ATOM     27  C   UNL     1      -0.879  13.291  22.641  0.00  0.00    +0.000 A 
ATOM     28  C   UNL     1      -0.478  14.559  22.230  0.00  0.00    +0.000 A 
ATOM     29  C   UNL     1      -0.045  14.756  20.924  0.00  0.00    +0.000 A 
ATOM     30  C   UNL     1      -0.015  13.685  20.029  0.00  0.00    +0.000 A 
ENDBRANCH  18  25
ENDBRANCH   2  18
TORSDOF 4
ENDMDL
MODEL 5
REMARK VINA RESULT:      -7.7      3.820      8.347
REMARK  Name = 
REMARK  4 active torsions:
REMARK  status: ('A' for Active; 'I' for Inactive)
REMARK    1  A    between atoms: C_2  and  C_3
REMARK    2  A    between atoms: C_3  and  C_4
REMARK    3  A    between atoms: C_3  and  C_10
REMARK    4  A    between atoms: C_20  and  C_21
REMARK                            x       y       z     vdW  Elec       q    Type
REMARK                         _______ _______ _______ _____ _____    ______ ____
ROOT
ATOM      1  O   UNL     1       3.129   6.818  17.077  0.00  0.00    +0.000 OA
ATOM      2  C   UNL     1       3.591   6.085  17.961  0.00  0.00    +0.000 C 
ATOM      3  N   UNL     1       4.619   5.188  17.661  0.00  0.00    +0.000 N 
ATOM      4  C   UNL     1       5.284   4.274  18.587  0.00  0.00    +0.000 C 
ATOM      5  C   UNL     1       6.777   4.576  18.671  0.00  0.00    +0.000 C 
ATOM      6  C   UNL     1       7.431   4.616  17.291  0.00  0.00    +0.000 C 
ATOM      7  C   UNL     1       6.658   5.508  16.297  0.00  0.00    +0.000 C 
ATOM      8  C   UNL     1       5.160   5.159  16.298  0.00  0.00    +0.000 C 
ENDROOT
BRANCH   7   9
ATOM      9  C   UNL     1       7.229   5.388  14.916  0.00  0.00    +0.000 A 
ATOM     10  N   UNL     1       8.312   5.987  14.461  0.00  0.00    +0.000 NA
ATOM     11  N   UNL     1       8.485   5.645  13.143  0.00  0.00    +0.000 NA
ATOM     12  C   UNL     1       7.512   4.827  12.812  0.00  0.00    +0.000 A 
ATOM     13  C   UNL     1       7.181   4.164  11.601  0.00  0.00    +0.000 A 
ATOM     14  C   UNL     1       6.111   3.348  11.557  0.00  0.00    +0.000 A 
ATOM     15  C   UNL     1       5.280   3.126  12.733  0.00  0.00    +0.000 A 
ATOM     16  C   UNL     1       5.584   3.761  13.879  0.00  0.00    +0.000 A 
ATOM     17  N   UNL     1       6.689   4.610  13.912  0.00  0.00    +0.000 N 
ENDBRANCH   7   9
BRANCH   2  18
ATOM     18  C   UNL     1       3.093   6.190  19.428  0.00  0.00    +0.000 C 
BRANCH  18  19
ATOM     19  C   UNL     1       2.218   7.442  19.548  0.00  0.00    +0.000 A 
ATOM     20  C   UNL     1       1.537   7.723  20.746  0.00  0.00    +0.000 A 
ATOM     21  C   UNL     1       0.752   8.870  20.865  0.00  0.00    +0.000 A 
ATOM     22  C   UNL     1       0.625   9.742  19.787  0.00  0.00    +0.000 A 
ATOM     23  C   UNL     1       1.293   9.476  18.592  0.00  0.00    +0.000 A 
ATOM     24  C   UNL     1       2.094   8.339  18.475  0.00  0.00    +0.000 A 
ENDBRANCH  18  19
BRANCH  18  25
ATOM     25  C   UNL     1       2.437   4.911  19.982  0.00  0.00    +0.000 A 
ATOM     26  C   UNL     1       2.704   4.453  21.284  0.00  0.00    +0.000 A 
ATOM     27  C   UNL     1       2.036   3.343  21.810  0.00  0.00    +0.000 A 
ATOM     28  C   UNL     1       1.073   2.683  21.054  0.00  0.00    +0.000 A 
ATOM     29  C   UNL     1       0.775   3.129  19.772  0.00  0.00    +0.000 A 
ATOM     30  C   UNL     1       1.443   4.236  19.246  0.00  0.00    +0.000 A 
ENDBRANCH  18  25
ENDBRANCH   2  18
TORSDOF 4
ENDMDL
MODEL 6
REMARK VINA RESULT:      -7.7      2.432      8.369
REMARK  Name = 
REMARK  4 active torsions:
REMARK  status: ('A' for Active; 'I' for Inactive)
REMARK    1  A    between atoms: C_2  and  C_3
REMARK    2  A    between atoms: C_3  and  C_4
REMARK    3  A    between atoms: C_3  and  C_10
REMARK    4  A    between atoms: C_20  and  C_21
REMARK                            x       y       z     vdW  Elec       q    Type
REMARK                         _______ _______ _______ _____ _____    ______ ____
ROOT
ATOM      1  O   UNL     1      -0.603   9.030  21.212  0.00  0.00    +0.000 OA
ATOM      2  C   UNL     1      -0.119   9.842  20.414  0.00  0.00    +0.000 C 
ATOM      3  N   UNL     1       1.122   9.590  19.823  0.00  0.00    +0.000 N 
ATOM      4  C   UNL     1       1.819  10.431  18.852  0.00  0.00    +0.000 C 
ATOM      5  C   UNL     1       2.041   9.681  17.543  0.00  0.00    +0.000 C 
ATOM      6  C   UNL     1       2.720   8.330  17.766  0.00  0.00    +0.000 C 
ATOM      7  C   UNL     1       2.029   7.497  18.865  0.00  0.00    +0.000 C 
ATOM      8  C   UNL     1       1.816   8.337  20.136  0.00  0.00    +0.000 C 
ENDROOT
BRANCH   7   9
ATOM      9  C   UNL     1       2.819   6.260  19.174  0.00  0.00    +0.000 A 
ATOM     10  N   UNL     1       4.114   6.093  18.994  0.00  0.00    +0.000 NA
ATOM     11  N   UNL     1       4.451   4.816  19.370  0.00  0.00    +0.000 NA
ATOM     12  C   UNL     1       3.357   4.224  19.792  0.00  0.00    +0.000 A 
ATOM     13  C   UNL     1       3.100   2.920  20.292  0.00  0.00    +0.000 A 
ATOM     14  C   UNL     1       1.854   2.586  20.680  0.00  0.00    +0.000 A 
ATOM     15  C   UNL     1       0.756   3.541  20.598  0.00  0.00    +0.000 A 
ATOM     16  C   UNL     1       0.994   4.773  20.114  0.00  0.00    +0.000 A 
ATOM     17  N   UNL     1       2.285   5.105  19.709  0.00  0.00    +0.000 N 
ENDBRANCH   7   9
BRANCH   2  18
ATOM     18  C   UNL     1      -0.900  11.118  19.998  0.00  0.00    +0.000 C 
BRANCH  18  19
ATOM     19  C   UNL     1      -1.703  10.797  18.733  0.00  0.00    +0.000 A 
ATOM     20  C   UNL     1      -1.594  11.613  17.594  0.00  0.00    +0.000 A 
ATOM     21  C   UNL     1      -2.310  11.315  16.434  0.00  0.00    +0.000 A 
ATOM     22  C   UNL     1      -3.154  10.208  16.403  0.00  0.00    +0.000 A 
ATOM     23  C   UNL     1      -3.273   9.390  17.525  0.00  0.00    +0.000 A 
ATOM     24  C   UNL     1      -2.545   9.674  18.681  0.00  0.00    +0.000 A 
ENDBRANCH  18  19
BRANCH  18  25
ATOM     25  C   UNL     1      -1.734  11.761  21.122  0.00  0.00    +0.000 A 
ATOM     26  C   UNL     1      -2.896  12.501  20.845  0.00  0.00    +0.000 A 
ATOM     27  C   UNL     1      -3.696  13.004  21.874  0.00  0.00    +0.000 A 
ATOM     28  C   UNL     1      -3.363  12.759  23.203  0.00  0.00    +0.000 A 
ATOM     29  C   UNL     1      -2.230  12.012  23.504  0.00  0.00    +0.000 A 
ATOM     30  C   UNL     1      -1.431  11.511  22.476  0.00  0.00    +0.000 A 
ENDBRANCH  18  25
ENDBRANCH   2  18
TORSDOF 4
ENDMDL
MODEL 7
REMARK VINA RESULT:      -7.7      2.661      8.231
REMARK  Name = 
REMARK  4 active torsions:
REMARK  status: ('A' for Active; 'I' for Inactive)
REMARK    1  A    between atoms: C_2  and  C_3
REMARK    2  A    between atoms: C_3  and  C_4
REMARK    3  A    between atoms: C_3  and  C_10
REMARK    4  A    between atoms: C_20  and  C_21
REMARK                            x       y       z     vdW  Elec       q    Type
REMARK                         _______ _______ _______ _____ _____    ______ ____
ROOT
ATOM      1  O   UNL     1      -0.580   9.284  21.162  0.00  0.00    +0.000 OA
ATOM      2  C   UNL     1       0.141   9.824  20.313  0.00  0.00    +0.000 C 
ATOM      3  N   UNL     1       1.299   9.182  19.868  0.00  0.00    +0.000 N 
ATOM      4  C   UNL     1       2.242   9.670  18.863  0.00  0.00    +0.000 C 
ATOM      5  C   UNL     1       2.325   8.709  17.682  0.00  0.00    +0.000 C 
ATOM      6  C   UNL     1       2.610   7.276  18.129  0.00  0.00    +0.000 C 
ATOM      7  C   UNL     1       1.669   6.812  19.261  0.00  0.00    +0.000 C 
ATOM      8  C   UNL     1       1.621   7.852  20.394  0.00  0.00    +0.000 C 
ENDROOT
BRANCH   7   9
ATOM      9  C   UNL     1       2.087   5.473  19.789  0.00  0.00    +0.000 A 
ATOM     10  N   UNL     1       2.242   5.144  21.056  0.00  0.00    +0.000 NA
ATOM     11  N   UNL     1       2.660   3.838  21.125  0.00  0.00    +0.000 NA
ATOM     12  C   UNL     1       2.738   3.379  19.897  0.00  0.00    +0.000 A 
ATOM     13  C   UNL     1       3.112   2.118  19.362  0.00  0.00    +0.000 A 
ATOM     14  C   UNL     1       3.077   1.920  18.031  0.00  0.00    +0.000 A 
ATOM     15  C   UNL     1       2.661   2.977  17.120  0.00  0.00    +0.000 A 
ATOM     16  C   UNL     1       2.317   4.177  17.622  0.00  0.00    +0.000 A 
ATOM     17  N   UNL     1       2.364   4.374  19.001  0.00  0.00    +0.000 N 
ENDBRANCH   7   9
BRANCH   2  18
ATOM     18  C   UNL     1      -0.253  11.184  19.676  0.00  0.00    +0.000 C 
BRANCH  18  19
ATOM     19  C   UNL     1      -1.480  10.958  18.788  0.00  0.00    +0.000 A 
ATOM     20  C   UNL     1      -2.665  11.682  19.009  0.00  0.00    +0.000 A 
ATOM     21  C   UNL     1      -3.779  11.492  18.193  0.00  0.00    +0.000 A 
ATOM     22  C   UNL     1      -3.730  10.565  17.154  0.00  0.00    +0.000 A 
ATOM     23  C   UNL     1      -2.565   9.838  16.923  0.00  0.00    +0.000 A 
ATOM     24  C   UNL     1      -1.441  10.039  17.726  0.00  0.00    +0.000 A 
ENDBRANCH  18  19
BRANCH  18  25
ATOM     25  C   UNL     1      -0.409  12.345  20.675  0.00  0.00    +0.000 A 
ATOM     26  C   UNL     1      -0.222  13.683  20.283  0.00  0.00    +0.000 A 
ATOM     27  C   UNL     1      -0.453  14.736  21.172  0.00  0.00    +0.000 A 
ATOM     28  C   UNL     1      -0.897  14.476  22.465  0.00  0.00    +0.000 A 
ATOM     29  C   UNL     1      -1.110  13.163  22.872  0.00  0.00    +0.000 A 
ATOM     30  C   UNL     1      -0.877  12.111  21.984  0.00  0.00    +0.000 A 
ENDBRANCH  18  25
ENDBRANCH   2  18
TORSDOF 4
ENDMDL
MODEL 8
REMARK VINA RESULT:      -7.7      2.453      8.218
REMARK  Name = 
REMARK  4 active torsions:
REMARK  status: ('A' for Active; 'I' for Inactive)
REMARK    1  A    between atoms: C_2  and  C_3
REMARK    2  A    between atoms: C_3  and  C_4
REMARK    3  A    between atoms: C_3  and  C_10
REMARK    4  A    between atoms: C_20  and  C_21
REMARK                            x       y       z     vdW  Elec       q    Type
REMARK                         _______ _______ _______ _____ _____    ______ ____
ROOT
ATOM      1  O   UNL     1      -0.533   8.980  20.971  0.00  0.00    +0.000 OA
ATOM      2  C   UNL     1       0.031   9.783  20.219  0.00  0.00    +0.000 C 
ATOM      3  N   UNL     1       1.296   9.491  19.704  0.00  0.00    +0.000 N 
ATOM      4  C   UNL     1       2.086  10.318  18.793  0.00  0.00    +0.000 C 
ATOM      5  C   UNL     1       2.363   9.577  17.488  0.00  0.00    +0.000 C 
ATOM      6  C   UNL     1       2.974   8.198  17.732  0.00  0.00    +0.000 C 
ATOM      7  C   UNL     1       2.182   7.377  18.772  0.00  0.00    +0.000 C 
ATOM      8  C   UNL     1       1.920   8.207  20.040  0.00  0.00    +0.000 C 
ENDROOT
BRANCH   7   9
ATOM      9  C   UNL     1       2.902   6.106  19.110  0.00  0.00    +0.000 A 
ATOM     10  N   UNL     1       4.191   5.872  18.958  0.00  0.00    +0.000 NA
ATOM     11  N   UNL     1       4.455   4.585  19.355  0.00  0.00    +0.000 NA
ATOM     12  C   UNL     1       3.325   4.053  19.761  0.00  0.00    +0.000 A 
ATOM     13  C   UNL     1       2.993   2.769  20.270  0.00  0.00    +0.000 A 
ATOM     14  C   UNL     1       1.725   2.503  20.635  0.00  0.00    +0.000 A 
ATOM     15  C   UNL     1       0.678   3.510  20.521  0.00  0.00    +0.000 A 
ATOM     16  C   UNL     1       0.987   4.724  20.029  0.00  0.00    +0.000 A 
ATOM     17  N   UNL     1       2.301   4.986  19.647  0.00  0.00    +0.000 N 
ENDBRANCH   7   9
BRANCH   2  18
ATOM     18  C   UNL     1      -0.672  11.095  19.776  0.00  0.00    +0.000 C 
BRANCH  18  19
ATOM     19  C   UNL     1      -1.707  10.743  18.702  0.00  0.00    +0.000 A 
ATOM     20  C   UNL     1      -3.025  11.222  18.798  0.00  0.00    +0.000 A 
ATOM     21  C   UNL     1      -3.966  10.918  17.814  0.00  0.00    +0.000 A 
ATOM     22  C   UNL     1      -3.607  10.121  16.731  0.00  0.00    +0.000 A 
ATOM     23  C   UNL     1      -2.305   9.637  16.622  0.00  0.00    +0.000 A 
ATOM     24  C   UNL     1      -1.355   9.954  17.594  0.00  0.00    +0.000 A 
ENDBRANCH  18  19
BRANCH  18  25
ATOM     25  C   UNL     1      -1.231  11.950  20.928  0.00  0.00    +0.000 A 
ATOM     26  C   UNL     1      -1.467  11.404  22.201  0.00  0.00    +0.000 A 
ATOM     27  C   UNL     1      -1.888  12.207  23.266  0.00  0.00    +0.000 A 
ATOM     28  C   UNL     1      -2.062  13.576  23.084  0.00  0.00    +0.000 A 
ATOM     29  C   UNL     1      -1.815  14.144  21.839  0.00  0.00    +0.000 A 
ATOM     30  C   UNL     1      -1.396  13.342  20.777  0.00  0.00    +0.000 A 
ENDBRANCH  18  25
ENDBRANCH   2  18
TORSDOF 4
ENDMDL
MODEL 9
REMARK VINA RESULT:      -7.6      2.661      8.054
REMARK  Name = 
REMARK  4 active torsions:
REMARK  status: ('A' for Active; 'I' for Inactive)
REMARK    1  A    between atoms: C_2  and  C_3
REMARK    2  A    between atoms: C_3  and  C_4
REMARK    3  A    between atoms: C_3  and  C_10
REMARK    4  A    between atoms: C_20  and  C_21
REMARK                            x       y       z     vdW  Elec       q    Type
REMARK                         _______ _______ _______ _____ _____    ______ ____
ROOT
ATOM      1  O   UNL     1      -0.647   9.396  20.436  0.00  0.00    +0.000 OA
ATOM      2  C   UNL     1       0.160   9.851  19.616  0.00  0.00    +0.000 C 
ATOM      3  N   UNL     1       1.364   9.186  19.374  0.00  0.00    +0.000 N 
ATOM      4  C   UNL     1       2.409   9.577  18.430  0.00  0.00    +0.000 C 
ATOM      5  C   UNL     1       2.628   8.492  17.380  0.00  0.00    +0.000 C 
ATOM      6  C   UNL     1       2.872   7.123  18.015  0.00  0.00    +0.000 C 
ATOM      7  C   UNL     1       1.814   6.771  19.082  0.00  0.00    +0.000 C 
ATOM      8  C   UNL     1       1.634   7.929  20.079  0.00  0.00    +0.000 C 
ENDROOT
BRANCH   7   9
ATOM      9  C   UNL     1       2.180   5.506  19.800  0.00  0.00    +0.000 A 
ATOM     10  N   UNL     1       2.253   5.340  21.106  0.00  0.00    +0.000 NA
ATOM     11  N   UNL     1       2.648   4.051  21.365  0.00  0.00    +0.000 NA
ATOM     12  C   UNL     1       2.795   3.440  20.212  0.00  0.00    +0.000 A 
ATOM     13  C   UNL     1       3.183   2.118  19.866  0.00  0.00    +0.000 A 
ATOM     14  C   UNL     1       3.227   1.753  18.571  0.00  0.00    +0.000 A 
ATOM     15  C   UNL     1       2.882   2.689  17.509  0.00  0.00    +0.000 A 
ATOM     16  C   UNL     1       2.525   3.945  17.833  0.00  0.00    +0.000 A 
ATOM     17  N   UNL     1       2.490   4.315  19.176  0.00  0.00    +0.000 N 
ENDBRANCH   7   9
BRANCH   2  18
ATOM     18  C   UNL     1      -0.171  11.124  18.790  0.00  0.00    +0.000 C 
BRANCH  18  19
ATOM     19  C   UNL     1      -1.596  10.984  18.246  0.00  0.00    +0.000 A 
ATOM     20  C   UNL     1      -2.645  11.745  18.792  0.00  0.00    +0.000 A 
ATOM     21  C   UNL     1      -3.941  11.633  18.289  0.00  0.00    +0.000 A 
ATOM     22  C   UNL     1      -4.210  10.750  17.246  0.00  0.00    +0.000 A 
ATOM     23  C   UNL     1      -3.181   9.989  16.695  0.00  0.00    +0.000 A 
ATOM     24  C   UNL     1      -1.879  10.111  17.183  0.00  0.00    +0.000 A 
ENDBRANCH  18  19
BRANCH  18  25
ATOM     25  C   UNL     1       0.094  12.455  19.518  0.00  0.00    +0.000 A 
ATOM     26  C   UNL     1       0.305  12.503  20.907  0.00  0.00    +0.000 A 
ATOM     27  C   UNL     1       0.635  13.701  21.547  0.00  0.00    +0.000 A 
ATOM     28  C   UNL     1       0.781  14.872  20.809  0.00  0.00    +0.000 A 
ATOM     29  C   UNL     1       0.597  14.847  19.431  0.00  0.00    +0.000 A 
ATOM     30  C   UNL     1       0.267  13.650  18.793  0.00  0.00    +0.000 A 
ENDBRANCH  18  25
ENDBRANCH   2  18
TORSDOF 4
ENDMDL
