MODEL 1
REMARK VINA RESULT:      -7.5      0.000      0.000
REMARK  Name = 
REMARK  3 active torsions:
REMARK  status: ('A' for Active; 'I' for Inactive)
REMARK    1  A    between atoms: C_2  and  C_3
REMARK    2  A    between atoms: N_14  and  S_15
REMARK    3  A    between atoms: S_15  and  C_18
REMARK                            x       y       z     vdW  Elec       q    Type
REMARK                         _______ _______ _______ _____ _____    ______ ____
ROOT
ATOM      1  O   UNL     1      -1.757  14.239  20.056  0.00  0.00    +0.000 OA
ATOM      2  C   UNL     1      -2.045  13.054  20.205  0.00  0.00    +0.000 C 
ATOM      3  N   UNL     1      -1.051  12.049  20.290  0.00  0.00    +0.000 N 
ATOM      4  C   UNL     1      -1.330  10.603  20.213  0.00  0.00    +0.000 C 
ATOM      5  C   UNL     1      -0.182   9.675  20.653  0.00  0.00    +0.000 C 
ATOM      6  N   UNL     1       1.124  10.085  20.060  0.00  0.00    +0.000 NA
ATOM      7  C   UNL     1       1.397  11.511  20.438  0.00  0.00    +0.000 C 
ATOM      8  C   UNL     1       0.311  12.456  19.905  0.00  0.00    +0.000 C 
ENDROOT
BRANCH   2   9
ATOM      9  C   UNL     1      -3.487  12.704  20.337  0.00  0.00    +0.000 A 
ATOM     10  C   UNL     1      -4.138  12.858  21.564  0.00  0.00    +0.000 A 
ATOM     11  F   UNL     1      -3.459  13.162  22.677  0.00  0.00    +0.000 F 
ATOM     12  C   UNL     1      -5.516  12.697  21.692  0.00  0.00    +0.000 A 
ATOM     13  C   UNL     1      -6.258  12.244  20.612  0.00  0.00    +0.000 A 
ATOM     14  C   UNL     1      -5.606  11.935  19.420  0.00  0.00    +0.000 A 
ATOM     15  C   UNL     1      -4.227  12.169  19.272  0.00  0.00    +0.000 A 
ATOM     16 CL   UNL     1      -3.544  11.782  17.734  0.00  0.00    +0.000 Cl
ENDBRANCH   2   9
BRANCH   6  17
ATOM     17  S   UNL     1       1.384   9.716  18.412  0.00  0.00    +0.000 S 
ATOM     18  O   UNL     1       0.111   9.490  17.764  0.00  0.00    +0.000 OA
ATOM     19  O   UNL     1       2.314  10.691  17.883  0.00  0.00    +0.000 OA
BRANCH  17  20
ATOM     20  C   UNL     1       2.248   8.159  18.433  0.00  0.00    +0.000 A 
ATOM     21  C   UNL     1       2.061   7.313  19.537  0.00  0.00    +0.000 A 
ATOM     22  C   UNL     1       2.868   6.187  19.690  0.00  0.00    +0.000 A 
ATOM     23  C   UNL     1       3.878   5.922  18.767  0.00  0.00    +0.000 A 
ATOM     24  C   UNL     1       4.061   6.761  17.658  0.00  0.00    +0.000 A 
ATOM     25  C   UNL     1       3.238   7.878  17.481  0.00  0.00    +0.000 A 
ATOM     26  O   UNL     1       4.975   6.489  16.676  0.00  0.00    +0.000 OA
ATOM     27  C   UNL     1       6.326   6.540  17.145  0.00  0.00    +0.000 C 
ATOM     28  C   UNL     1       6.753   5.279  17.886  0.00  0.00    +0.000 C 
ATOM     29  C   UNL     1       6.004   5.127  19.200  0.00  0.00    +0.000 C 
ATOM     30  O   UNL     1       4.630   4.801  18.984  0.00  0.00    +0.000 OA
ENDBRANCH  17  20
ENDBRANCH   6  17
TORSDOF 3
ENDMDL
MODEL 2
REMARK VINA RESULT:      -7.5      1.351      1.608
REMARK  Name = 
REMARK  3 active torsions:
REMARK  status: ('A' for Active; 'I' for Inactive)
REMARK    1  A    between atoms: C_2  and  C_3
REMARK    2  A    between atoms: N_14  and  S_15
REMARK    3  A    between atoms: S_15  and  C_18
REMARK                            x       y       z     vdW  Elec       q    Type
REMARK                         _______ _______ _______ _____ _____    ______ ____
ROOT
ATOM      1  O   UNL     1      -1.968  14.228  20.048  0.00  0.00    +0.000 OA
ATOM      2  C   UNL     1      -2.249  13.036  20.161  0.00  0.00    +0.000 C 
ATOM      3  N   UNL     1      -1.248  12.041  20.268  0.00  0.00    +0.000 N 
ATOM      4  C   UNL     1      -1.507  10.594  20.148  0.00  0.00    +0.000 C 
ATOM      5  C   UNL     1      -0.368   9.669  20.618  0.00  0.00    +0.000 C 
ATOM      6  N   UNL     1       0.957  10.106  20.091  0.00  0.00    +0.000 NA
ATOM      7  C   UNL     1       1.198  11.526  20.510  0.00  0.00    +0.000 C 
ATOM      8  C   UNL     1       0.125  12.470  19.951  0.00  0.00    +0.000 C 
ENDROOT
BRANCH   2   9
ATOM      9  C   UNL     1      -3.691  12.669  20.223  0.00  0.00    +0.000 A 
ATOM     10  C   UNL     1      -4.330  12.139  19.098  0.00  0.00    +0.000 A 
ATOM     11  F   UNL     1      -3.721  12.101  17.907  0.00  0.00    +0.000 F 
ATOM     12  C   UNL     1      -5.627  11.635  19.157  0.00  0.00    +0.000 A 
ATOM     13  C   UNL     1      -6.366  11.772  20.323  0.00  0.00    +0.000 A 
ATOM     14  C   UNL     1      -5.802  12.437  21.411  0.00  0.00    +0.000 A 
ATOM     15  C   UNL     1      -4.467  12.878  21.372  0.00  0.00    +0.000 A 
ATOM     16 CL   UNL     1      -3.874  13.652  22.797  0.00  0.00    +0.000 Cl
ENDBRANCH   2   9
BRANCH   6  17
ATOM     17  S   UNL     1       1.292   9.774  18.448  0.00  0.00    +0.000 S 
ATOM     18  O   UNL     1       0.050   9.559  17.739  0.00  0.00    +0.000 OA
ATOM     19  O   UNL     1       2.241  10.763  17.983  0.00  0.00    +0.000 OA
BRANCH  17  20
ATOM     20  C   UNL     1       2.161   8.219  18.473  0.00  0.00    +0.000 A 
ATOM     21  C   UNL     1       2.036   7.410  19.612  0.00  0.00    +0.000 A 
ATOM     22  C   UNL     1       2.853   6.290  19.758  0.00  0.00    +0.000 A 
ATOM     23  C   UNL     1       3.813   5.997  18.791  0.00  0.00    +0.000 A 
ATOM     24  C   UNL     1       3.933   6.800  17.648  0.00  0.00    +0.000 A 
ATOM     25  C   UNL     1       3.099   7.909  17.479  0.00  0.00    +0.000 A 
ATOM     26  O   UNL     1       4.794   6.497  16.627  0.00  0.00    +0.000 OA
ATOM     27  C   UNL     1       6.169   6.565  17.021  0.00  0.00    +0.000 C 
ATOM     28  C   UNL     1       6.638   5.329  17.778  0.00  0.00    +0.000 C 
ATOM     29  C   UNL     1       5.962   5.219  19.134  0.00  0.00    +0.000 C 
ATOM     30  O   UNL     1       4.578   4.884  19.004  0.00  0.00    +0.000 OA
ENDBRANCH  17  20
ENDBRANCH   6  17
TORSDOF 3
ENDMDL
MODEL 3
REMARK VINA RESULT:      -7.4      2.411      3.441
REMARK  Name = 
REMARK  3 active torsions:
REMARK  status: ('A' for Active; 'I' for Inactive)
REMARK    1  A    between atoms: C_2  and  C_3
REMARK    2  A    between atoms: N_14  and  S_15
REMARK    3  A    between atoms: S_15  and  C_18
REMARK                            x       y       z     vdW  Elec       q    Type
REMARK                         _______ _______ _______ _____ _____    ______ ____
ROOT
ATOM      1  O   UNL     1      -3.535  12.183  19.401  0.00  0.00    +0.000 OA
ATOM      2  C   UNL     1      -2.617  12.542  20.134  0.00  0.00    +0.000 C 
ATOM      3  N   UNL     1      -1.336  11.943  20.074  0.00  0.00    +0.000 N 
ATOM      4  C   UNL     1      -0.281  12.147  21.085  0.00  0.00    +0.000 C 
ATOM      5  C   UNL     1       1.132  11.686  20.680  0.00  0.00    +0.000 C 
ATOM      6  N   UNL     1       1.120  10.328  20.064  0.00  0.00    +0.000 NA
ATOM      7  C   UNL     1       0.190  10.341  18.887  0.00  0.00    +0.000 C 
ATOM      8  C   UNL     1      -1.244  10.692  19.303  0.00  0.00    +0.000 C 
ENDROOT
BRANCH   2   9
ATOM      9  C   UNL     1      -2.882  13.669  21.073  0.00  0.00    +0.000 A 
ATOM     10  C   UNL     1      -3.797  13.513  22.117  0.00  0.00    +0.000 A 
ATOM     11  F   UNL     1      -4.571  12.424  22.205  0.00  0.00    +0.000 F 
ATOM     12  C   UNL     1      -3.956  14.479  23.108  0.00  0.00    +0.000 A 
ATOM     13  C   UNL     1      -3.291  15.690  23.000  0.00  0.00    +0.000 A 
ATOM     14  C   UNL     1      -2.490  15.930  21.883  0.00  0.00    +0.000 A 
ATOM     15  C   UNL     1      -2.274  14.924  20.924  0.00  0.00    +0.000 A 
ATOM     16 CL   UNL     1      -1.231  15.331  19.609  0.00  0.00    +0.000 Cl
ENDBRANCH   2   9
BRANCH   6  17
ATOM     17  S   UNL     1       0.927   8.995  21.116  0.00  0.00    +0.000 S 
ATOM     18  O   UNL     1       1.645   9.247  22.347  0.00  0.00    +0.000 OA
ATOM     19  O   UNL     1      -0.479   8.653  21.143  0.00  0.00    +0.000 OA
BRANCH  17  20
ATOM     20  C   UNL     1       1.754   7.650  20.290  0.00  0.00    +0.000 A 
ATOM     21  C   UNL     1       2.324   7.896  19.032  0.00  0.00    +0.000 A 
ATOM     22  C   UNL     1       2.798   6.832  18.267  0.00  0.00    +0.000 A 
ATOM     23  C   UNL     1       2.675   5.526  18.737  0.00  0.00    +0.000 A 
ATOM     24  C   UNL     1       2.113   5.279  19.998  0.00  0.00    +0.000 A 
ATOM     25  C   UNL     1       1.661   6.342  20.785  0.00  0.00    +0.000 A 
ATOM     26  O   UNL     1       2.059   4.024  20.543  0.00  0.00    +0.000 OA
ATOM     27  C   UNL     1       1.210   3.136  19.808  0.00  0.00    +0.000 C 
ATOM     28  C   UNL     1       1.874   2.563  18.563  0.00  0.00    +0.000 C 
ATOM     29  C   UNL     1       2.124   3.640  17.521  0.00  0.00    +0.000 C 
ATOM     30  O   UNL     1       3.161   4.535  17.931  0.00  0.00    +0.000 OA
ENDBRANCH  17  20
ENDBRANCH   6  17
TORSDOF 3
ENDMDL
MODEL 4
REMARK VINA RESULT:      -7.4      1.739      2.591
REMARK  Name = 
REMARK  3 active torsions:
REMARK  status: ('A' for Active; 'I' for Inactive)
REMARK    1  A    between atoms: C_2  and  C_3
REMARK    2  A    between atoms: N_14  and  S_15
REMARK    3  A    between atoms: S_15  and  C_18
REMARK                            x       y       z     vdW  Elec       q    Type
REMARK                         _______ _______ _______ _____ _____    ______ ____
ROOT
ATOM      1  O   UNL     1      -1.634  14.129  19.801  0.00  0.00    +0.000 OA
ATOM      2  C   UNL     1      -1.966  12.960  19.985  0.00  0.00    +0.000 C 
ATOM      3  N   UNL     1      -1.009  11.932  20.164  0.00  0.00    +0.000 N 
ATOM      4  C   UNL     1      -1.327  10.493  20.133  0.00  0.00    +0.000 C 
ATOM      5  C   UNL     1      -0.231   9.553  20.671  0.00  0.00    +0.000 C 
ATOM      6  N   UNL     1       1.115   9.900  20.131  0.00  0.00    +0.000 NA
ATOM      7  C   UNL     1       1.412  11.333  20.462  0.00  0.00    +0.000 C 
ATOM      8  C   UNL     1       0.384  12.283  19.834  0.00  0.00    +0.000 C 
ENDROOT
BRANCH   2   9
ATOM      9  C   UNL     1      -3.422  12.657  20.056  0.00  0.00    +0.000 A 
ATOM     10  C   UNL     1      -4.087  12.135  18.943  0.00  0.00    +0.000 A 
ATOM     11  F   UNL     1      -3.483  12.048  17.752  0.00  0.00    +0.000 F 
ATOM     12  C   UNL     1      -5.405  11.689  19.013  0.00  0.00    +0.000 A 
ATOM     13  C   UNL     1      -6.134  11.880  20.177  0.00  0.00    +0.000 A 
ATOM     14  C   UNL     1      -5.539  12.540  21.252  0.00  0.00    +0.000 A 
ATOM     15  C   UNL     1      -4.186  12.921  21.203  0.00  0.00    +0.000 A 
ATOM     16 CL   UNL     1      -3.556  13.694  22.613  0.00  0.00    +0.000 Cl
ENDBRANCH   2   9
BRANCH   6  17
ATOM     17  S   UNL     1       1.447   9.452  18.515  0.00  0.00    +0.000 S 
ATOM     18  O   UNL     1       0.212   9.094  17.853  0.00  0.00    +0.000 OA
ATOM     19  O   UNL     1       2.319  10.459  17.948  0.00  0.00    +0.000 OA
BRANCH  17  20
ATOM     20  C   UNL     1       2.421   7.967  18.654  0.00  0.00    +0.000 A 
ATOM     21  C   UNL     1       3.256   7.619  17.582  0.00  0.00    +0.000 A 
ATOM     22  C   UNL     1       3.875   6.371  17.564  0.00  0.00    +0.000 A 
ATOM     23  C   UNL     1       3.637   5.460  18.591  0.00  0.00    +0.000 A 
ATOM     24  C   UNL     1       2.810   5.808  19.668  0.00  0.00    +0.000 A 
ATOM     25  C   UNL     1       2.207   7.069  19.709  0.00  0.00    +0.000 A 
ATOM     26  O   UNL     1       2.623   4.985  20.746  0.00  0.00    +0.000 OA
ATOM     27  C   UNL     1       1.947   3.770  20.406  0.00  0.00    +0.000 C 
ATOM     28  C   UNL     1       2.863   2.729  19.774  0.00  0.00    +0.000 C 
ATOM     29  C   UNL     1       3.347   3.175  18.404  0.00  0.00    +0.000 C 
ATOM     30  O   UNL     1       4.277   4.255  18.504  0.00  0.00    +0.000 OA
ENDBRANCH  17  20
ENDBRANCH   6  17
TORSDOF 3
ENDMDL
MODEL 5
REMARK VINA RESULT:      -7.3      3.050      4.438
REMARK  Name = 
REMARK  3 active torsions:
REMARK  status: ('A' for Active; 'I' for Inactive)
REMARK    1  A    between atoms: C_2  and  C_3
REMARK    2  A    between atoms: N_14  and  S_15
REMARK    3  A    between atoms: S_15  and  C_18
REMARK                            x       y       z     vdW  Elec       q    Type
REMARK                         _______ _______ _______ _____ _____    ______ ____
ROOT
ATOM      1  O   UNL     1      -2.801  13.807  20.465  0.00  0.00    +0.000 OA
ATOM      2  C   UNL     1      -1.574  13.842  20.389  0.00  0.00    +0.000 C 
ATOM      3  N   UNL     1      -0.824  12.738  19.917  0.00  0.00    +0.000 N 
ATOM      4  C   UNL     1       0.641  12.622  20.041  0.00  0.00    +0.000 C 
ATOM      5  C   UNL     1       1.300  11.524  19.185  0.00  0.00    +0.000 C 
ATOM      6  N   UNL     1       0.567  10.228  19.279  0.00  0.00    +0.000 NA
ATOM      7  C   UNL     1      -0.861  10.453  18.877  0.00  0.00    +0.000 C 
ATOM      8  C   UNL     1      -1.556  11.465  19.798  0.00  0.00    +0.000 C 
ENDROOT
BRANCH   2   9
ATOM      9  C   UNL     1      -0.893  15.109  20.775  0.00  0.00    +0.000 A 
ATOM     10  C   UNL     1      -0.474  16.009  19.792  0.00  0.00    +0.000 A 
ATOM     11  F   UNL     1      -0.524  15.691  18.493  0.00  0.00    +0.000 F 
ATOM     12  C   UNL     1       0.019  17.273  20.111  0.00  0.00    +0.000 A 
ATOM     13  C   UNL     1       0.229  17.613  21.439  0.00  0.00    +0.000 A 
ATOM     14  C   UNL     1      -0.036  16.672  22.433  0.00  0.00    +0.000 A 
ATOM     15  C   UNL     1      -0.604  15.426  22.111  0.00  0.00    +0.000 A 
ATOM     16 CL   UNL     1      -0.922  14.364  23.435  0.00  0.00    +0.000 Cl
ENDBRANCH   2   9
BRANCH   6  17
ATOM     17  S   UNL     1       0.775   9.315  20.709  0.00  0.00    +0.000 S 
ATOM     18  O   UNL     1       1.652  10.029  21.611  0.00  0.00    +0.000 OA
ATOM     19  O   UNL     1      -0.533   8.879  21.149  0.00  0.00    +0.000 OA
BRANCH  17  20
ATOM     20  C   UNL     1       1.642   7.851  20.182  0.00  0.00    +0.000 A 
ATOM     21  C   UNL     1       2.244   7.857  18.915  0.00  0.00    +0.000 A 
ATOM     22  C   UNL     1       2.752   6.673  18.384  0.00  0.00    +0.000 A 
ATOM     23  C   UNL     1       2.631   5.482  19.096  0.00  0.00    +0.000 A 
ATOM     24  C   UNL     1       2.037   5.474  20.366  0.00  0.00    +0.000 A 
ATOM     25  C   UNL     1       1.550   6.662  20.919  0.00  0.00    +0.000 A 
ATOM     26  O   UNL     1       1.982   4.348  21.143  0.00  0.00    +0.000 OA
ATOM     27  C   UNL     1       1.165   3.320  20.574  0.00  0.00    +0.000 C 
ATOM     28  C   UNL     1       1.871   2.527  19.481  0.00  0.00    +0.000 C 
ATOM     29  C   UNL     1       2.138   3.386  18.256  0.00  0.00    +0.000 C 
ATOM     30  O   UNL     1       3.151   4.361  18.511  0.00  0.00    +0.000 OA
ENDBRANCH  17  20
ENDBRANCH   6  17
TORSDOF 3
ENDMDL
MODEL 6
REMARK VINA RESULT:      -7.3      2.866      4.053
REMARK  Name = 
REMARK  3 active torsions:
REMARK  status: ('A' for Active; 'I' for Inactive)
REMARK    1  A    between atoms: C_2  and  C_3
REMARK    2  A    between atoms: N_14  and  S_15
REMARK    3  A    between atoms: S_15  and  C_18
REMARK                            x       y       z     vdW  Elec       q    Type
REMARK                         _______ _______ _______ _____ _____    ______ ____
ROOT
ATOM      1  O   UNL     1      -3.188  13.410  20.960  0.00  0.00    +0.000 OA
ATOM      2  C   UNL     1      -2.000  13.556  21.243  0.00  0.00    +0.000 C 
ATOM      3  N   UNL     1      -1.003  12.681  20.749  0.00  0.00    +0.000 N 
ATOM      4  C   UNL     1       0.385  12.646  21.248  0.00  0.00    +0.000 C 
ATOM      5  C   UNL     1       1.391  11.875  20.373  0.00  0.00    +0.000 C 
ATOM      6  N   UNL     1       0.856  10.552  19.942  0.00  0.00    +0.000 NA
ATOM      7  C   UNL     1      -0.442  10.769  19.221  0.00  0.00    +0.000 C 
ATOM      8  C   UNL     1      -1.486  11.438  20.125  0.00  0.00    +0.000 C 
ENDROOT
BRANCH   2   9
ATOM      9  C   UNL     1      -1.631  14.717  22.099  0.00  0.00    +0.000 A 
ATOM     10  C   UNL     1      -1.723  14.623  23.490  0.00  0.00    +0.000 A 
ATOM     11  F   UNL     1      -2.291  13.562  24.078  0.00  0.00    +0.000 F 
ATOM     12  C   UNL     1      -1.239  15.623  24.331  0.00  0.00    +0.000 A 
ATOM     13  C   UNL     1      -0.768  16.808  23.788  0.00  0.00    +0.000 A 
ATOM     14  C   UNL     1      -0.810  16.988  22.406  0.00  0.00    +0.000 A 
ATOM     15  C   UNL     1      -1.230  15.948  21.558  0.00  0.00    +0.000 A 
ATOM     16 CL   UNL     1      -1.199  16.280  19.863  0.00  0.00    +0.000 Cl
ENDBRANCH   2   9
BRANCH   6  17
ATOM     17  S   UNL     1       0.829   9.302  21.108  0.00  0.00    +0.000 S 
ATOM     18  O   UNL     1       1.656   9.678  22.233  0.00  0.00    +0.000 OA
ATOM     19  O   UNL     1      -0.551   8.915  21.309  0.00  0.00    +0.000 OA
BRANCH  17  20
ATOM     20  C   UNL     1       1.624   7.925  20.306  0.00  0.00    +0.000 A 
ATOM     21  C   UNL     1       2.135   8.116  19.013  0.00  0.00    +0.000 A 
ATOM     22  C   UNL     1       2.579   7.020  18.276  0.00  0.00    +0.000 A 
ATOM     23  C   UNL     1       2.483   5.736  18.808  0.00  0.00    +0.000 A 
ATOM     24  C   UNL     1       1.981   5.543  20.104  0.00  0.00    +0.000 A 
ATOM     25  C   UNL     1       1.560   6.640  20.862  0.00  0.00    +0.000 A 
ATOM     26  O   UNL     1       1.958   4.314  20.705  0.00  0.00    +0.000 OA
ATOM     27  C   UNL     1       1.081   3.392  20.050  0.00  0.00    +0.000 C 
ATOM     28  C   UNL     1       1.691   2.766  18.802  0.00  0.00    +0.000 C 
ATOM     29  C   UNL     1       1.887   3.796  17.704  0.00  0.00    +0.000 C 
ATOM     30  O   UNL     1       2.937   4.711  18.026  0.00  0.00    +0.000 OA
ENDBRANCH  17  20
ENDBRANCH   6  17
TORSDOF 3
ENDMDL
MODEL 7
REMARK VINA RESULT:      -7.2      2.353      3.024
REMARK  Name = 
REMARK  3 active torsions:
REMARK  status: ('A' for Active; 'I' for Inactive)
REMARK    1  A    between atoms: C_2  and  C_3
REMARK    2  A    between atoms: N_14  and  S_15
REMARK    3  A    between atoms: S_15  and  C_18
REMARK                            x       y       z     vdW  Elec       q    Type
REMARK                         _______ _______ _______ _____ _____    ______ ____
ROOT
ATOM      1  O   UNL     1      -3.349  12.346  19.628  0.00  0.00    +0.000 OA
ATOM      2  C   UNL     1      -2.336  12.650  20.255  0.00  0.00    +0.000 C 
ATOM      3  N   UNL     1      -1.126  11.930  20.112  0.00  0.00    +0.000 N 
ATOM      4  C   UNL     1       0.034  12.079  21.011  0.00  0.00    +0.000 C 
ATOM      5  C   UNL     1       1.355  11.468  20.506  0.00  0.00    +0.000 C 
ATOM      6  N   UNL     1       1.162  10.090  19.969  0.00  0.00    +0.000 NA
ATOM      7  C   UNL     1       0.130  10.137  18.881  0.00  0.00    +0.000 C 
ATOM      8  C   UNL     1      -1.222  10.641  19.405  0.00  0.00    +0.000 C 
ENDROOT
BRANCH   2   9
ATOM      9  C   UNL     1      -2.408  13.839  21.150  0.00  0.00    +0.000 A 
ATOM     10  C   UNL     1      -1.924  15.076  20.716  0.00  0.00    +0.000 A 
ATOM     11  F   UNL     1      -1.245  15.192  19.568  0.00  0.00    +0.000 F 
ATOM     12  C   UNL     1      -2.116  16.242  21.453  0.00  0.00    +0.000 A 
ATOM     13  C   UNL     1      -2.685  16.171  22.716  0.00  0.00    +0.000 A 
ATOM     14  C   UNL     1      -3.035  14.925  23.235  0.00  0.00    +0.000 A 
ATOM     15  C   UNL     1      -2.908  13.761  22.458  0.00  0.00    +0.000 A 
ATOM     16 CL   UNL     1      -3.413  12.285  23.201  0.00  0.00    +0.000 Cl
ENDBRANCH   2   9
BRANCH   6  17
ATOM     17  S   UNL     1       0.951   8.831  21.105  0.00  0.00    +0.000 S 
ATOM     18  O   UNL     1       1.779   9.086  22.264  0.00  0.00    +0.000 OA
ATOM     19  O   UNL     1      -0.471   8.605  21.255  0.00  0.00    +0.000 OA
BRANCH  17  20
ATOM     20  C   UNL     1       1.606   7.385  20.297  0.00  0.00    +0.000 A 
ATOM     21  C   UNL     1       1.483   6.149  20.950  0.00  0.00    +0.000 A 
ATOM     22  C   UNL     1       2.156   5.035  20.452  0.00  0.00    +0.000 A 
ATOM     23  C   UNL     1       2.973   5.157  19.330  0.00  0.00    +0.000 A 
ATOM     24  C   UNL     1       3.090   6.390  18.671  0.00  0.00    +0.000 A 
ATOM     25  C   UNL     1       2.396   7.507  19.146  0.00  0.00    +0.000 A 
ATOM     26  O   UNL     1       3.803   6.536  17.512  0.00  0.00    +0.000 OA
ATOM     27  C   UNL     1       5.205   6.312  17.690  0.00  0.00    +0.000 C 
ATOM     28  C   UNL     1       5.578   4.835  17.728  0.00  0.00    +0.000 C 
ATOM     29  C   UNL     1       5.024   4.155  18.968  0.00  0.00    +0.000 C 
ATOM     30  O   UNL     1       3.602   4.021  18.901  0.00  0.00    +0.000 OA
ENDBRANCH  17  20
ENDBRANCH   6  17
TORSDOF 3
ENDMDL
MODEL 8
REMARK VINA RESULT:      -7.1      0.924      1.059
REMARK  Name = 
REMARK  3 active torsions:
REMARK  status: ('A' for Active; 'I' for Inactive)
REMARK    1  A    between atoms: C_2  and  C_3
REMARK    2  A    between atoms: N_14  and  S_15
REMARK    3  A    between atoms: S_15  and  C_18
REMARK                            x       y       z     vdW  Elec       q    Type
REMARK                         _______ _______ _______ _____ _____    ______ ____
ROOT
ATOM      1  O   UNL     1      -1.735  14.789  20.817  0.00  0.00    +0.000 OA
ATOM      2  C   UNL     1      -1.965  13.613  21.094  0.00  0.00    +0.000 C 
ATOM      3  N   UNL     1      -0.956  12.622  21.036  0.00  0.00    +0.000 N 
ATOM      4  C   UNL     1      -1.219  11.172  21.106  0.00  0.00    +0.000 C 
ATOM      5  C   UNL     1       0.011  10.280  21.358  0.00  0.00    +0.000 C 
ATOM      6  N   UNL     1       1.162  10.659  20.488  0.00  0.00    +0.000 NA
ATOM      7  C   UNL     1       1.480  12.107  20.715  0.00  0.00    +0.000 C 
ATOM      8  C   UNL     1       0.292  13.011  20.358  0.00  0.00    +0.000 C 
ENDROOT
BRANCH   2   9
ATOM      9  C   UNL     1      -3.343  13.265  21.538  0.00  0.00    +0.000 A 
ATOM     10  C   UNL     1      -3.722  13.454  22.870  0.00  0.00    +0.000 A 
ATOM     11  F   UNL     1      -2.826  13.794  23.805  0.00  0.00    +0.000 F 
ATOM     12  C   UNL     1      -5.040  13.295  23.292  0.00  0.00    +0.000 A 
ATOM     13  C   UNL     1      -5.990  12.808  22.407  0.00  0.00    +0.000 A 
ATOM     14  C   UNL     1      -5.602  12.464  21.112  0.00  0.00    +0.000 A 
ATOM     15  C   UNL     1      -4.287  12.697  20.670  0.00  0.00    +0.000 A 
ATOM     16 CL   UNL     1      -3.942  12.265  19.034  0.00  0.00    +0.000 Cl
ENDBRANCH   2   9
BRANCH   6  17
ATOM     17  S   UNL     1       1.089  10.188  18.847  0.00  0.00    +0.000 S 
ATOM     18  O   UNL     1      -0.294  10.026  18.455  0.00  0.00    +0.000 OA
ATOM     19  O   UNL     1       1.967  11.061  18.097  0.00  0.00    +0.000 OA
BRANCH  17  20
ATOM     20  C   UNL     1       1.839   8.572  18.812  0.00  0.00    +0.000 A 
ATOM     21  C   UNL     1       1.701   7.754  19.943  0.00  0.00    +0.000 A 
ATOM     22  C   UNL     1       2.438   6.574  20.037  0.00  0.00    +0.000 A 
ATOM     23  C   UNL     1       3.331   6.228  19.026  0.00  0.00    +0.000 A 
ATOM     24  C   UNL     1       3.463   7.040  17.890  0.00  0.00    +0.000 A 
ATOM     25  C   UNL     1       2.708   8.211  17.774  0.00  0.00    +0.000 A 
ATOM     26  O   UNL     1       4.255   6.692  16.828  0.00  0.00    +0.000 OA
ATOM     27  C   UNL     1       5.646   6.650  17.163  0.00  0.00    +0.000 C 
ATOM     28  C   UNL     1       6.053   5.370  17.881  0.00  0.00    +0.000 C 
ATOM     29  C   UNL     1       5.428   5.286  19.264  0.00  0.00    +0.000 C 
ATOM     30  O   UNL     1       4.019   5.057  19.188  0.00  0.00    +0.000 OA
ENDBRANCH  17  20
ENDBRANCH   6  17
TORSDOF 3
ENDMDL
MODEL 9
REMARK VINA RESULT:      -7.1      2.312      3.071
REMARK  Name = 
REMARK  3 active torsions:
REMARK  status: ('A' for Active; 'I' for Inactive)
REMARK    1  A    between atoms: C_2  and  C_3
REMARK    2  A    between atoms: N_14  and  S_15
REMARK    3  A    between atoms: S_15  and  C_18
REMARK                            x       y       z     vdW  Elec       q    Type
REMARK                         _______ _______ _______ _____ _____    ______ ____
ROOT
ATOM      1  O   UNL     1      -2.421  15.188  20.813  0.00  0.00    +0.000 OA
ATOM      2  C   UNL     1      -2.511  14.060  21.295  0.00  0.00    +0.000 C 
ATOM      3  N   UNL     1      -1.443  13.134  21.231  0.00  0.00    +0.000 N 
ATOM      4  C   UNL     1      -1.572  11.701  21.556  0.00  0.00    +0.000 C 
ATOM      5  C   UNL     1      -0.249  10.936  21.747  0.00  0.00    +0.000 C 
ATOM      6  N   UNL     1       0.730  11.238  20.664  0.00  0.00    +0.000 NA
ATOM      7  C   UNL     1       0.957  12.720  20.619  0.00  0.00    +0.000 C 
ATOM      8  C   UNL     1      -0.341  13.482  20.318  0.00  0.00    +0.000 C 
ENDROOT
BRANCH   2   9
ATOM      9  C   UNL     1      -3.779  13.706  21.993  0.00  0.00    +0.000 A 
ATOM     10  C   UNL     1      -4.904  13.325  21.257  0.00  0.00    +0.000 A 
ATOM     11  F   UNL     1      -4.925  13.422  19.922  0.00  0.00    +0.000 F 
ATOM     12  C   UNL     1      -6.054  12.833  21.870  0.00  0.00    +0.000 A 
ATOM     13  C   UNL     1      -6.151  12.839  23.253  0.00  0.00    +0.000 A 
ATOM     14  C   UNL     1      -5.101  13.360  24.007  0.00  0.00    +0.000 A 
ATOM     15  C   UNL     1      -3.912  13.786  23.387  0.00  0.00    +0.000 A 
ATOM     16 CL   UNL     1      -2.670  14.374  24.433  0.00  0.00    +0.000 Cl
ENDBRANCH   2   9
BRANCH   6  17
ATOM     17  S   UNL     1       0.462  10.506  19.142  0.00  0.00    +0.000 S 
ATOM     18  O   UNL     1      -0.901  10.028  19.072  0.00  0.00    +0.000 OA
ATOM     19  O   UNL     1       0.981  11.397  18.126  0.00  0.00    +0.000 OA
BRANCH  17  20
ATOM     20  C   UNL     1       1.523   9.074  19.142  0.00  0.00    +0.000 A 
ATOM     21  C   UNL     1       2.365   8.874  18.038  0.00  0.00    +0.000 A 
ATOM     22  C   UNL     1       3.055   7.671  17.904  0.00  0.00    +0.000 A 
ATOM     23  C   UNL     1       2.883   6.659  18.847  0.00  0.00    +0.000 A 
ATOM     24  C   UNL     1       2.048   6.861  19.956  0.00  0.00    +0.000 A 
ATOM     25  C   UNL     1       1.373   8.075  20.114  0.00  0.00    +0.000 A 
ATOM     26  O   UNL     1       1.922   5.935  20.956  0.00  0.00    +0.000 OA
ATOM     27  C   UNL     1       1.315   4.717  20.513  0.00  0.00    +0.000 C 
ATOM     28  C   UNL     1       2.283   3.793  19.784  0.00  0.00    +0.000 C 
ATOM     29  C   UNL     1       2.725   4.387  18.458  0.00  0.00    +0.000 C 
ATOM     30  O   UNL     1       3.592   5.507  18.648  0.00  0.00    +0.000 OA
ENDBRANCH  17  20
ENDBRANCH   6  17
TORSDOF 3
ENDMDL
