MODEL 1
REMARK VINA RESULT:      -8.3      0.000      0.000
REMARK  Name = 
REMARK  5 active torsions:
REMARK  status: ('A' for Active; 'I' for Inactive)
REMARK    1  A    between atoms: C_2  and  C_18
REMARK    2  A    between atoms: N_3  and  C_4
REMARK    3  A    between atoms: C_4  and  C_5
REMARK    4  A    between atoms: C_5  and  C_6
REMARK    5  A    between atoms: N_9  and  C_10
REMARK                            x       y       z     vdW  Elec       q    Type
REMARK                         _______ _______ _______ _____ _____    ______ ____
ROOT
ATOM      1  O   UNL     1       0.724   4.241  20.306  0.00  0.00    +0.000 OA
ATOM      2  C   UNL     1       1.660   4.968  20.643  0.00  0.00    +0.000 C 
ATOM      3  N   UNL     1       2.701   4.419  21.357  0.00  0.00    +0.000 N 
ATOM      4  H   UNL     1       3.477   4.971  21.692  0.00  0.00    +0.000 HD
ENDROOT
BRANCH   2   5
ATOM      5  C   UNL     1       1.595   6.432  20.269  0.00  0.00    +0.000 A 
ATOM      6  C   UNL     1       2.203   6.670  19.034  0.00  0.00    +0.000 A 
ATOM      7  C   UNL     1       2.257   7.930  18.471  0.00  0.00    +0.000 A 
ATOM      8  F   UNL     1       2.859   8.045  17.277  0.00  0.00    +0.000 F 
ATOM      9  C   UNL     1       1.720   9.039  19.084  0.00  0.00    +0.000 A 
ATOM     10  N   UNL     1       1.839  10.199  18.414  0.00  0.00    +0.000 NA
ATOM     11  C   UNL     1       1.334  11.311  18.955  0.00  0.00    +0.000 A 
ATOM     12  C   UNL     1       0.702  11.316  20.180  0.00  0.00    +0.000 A 
ATOM     13  C   UNL     1       0.581  10.103  20.881  0.00  0.00    +0.000 A 
ATOM     14  C   UNL     1       1.098   8.883  20.344  0.00  0.00    +0.000 A 
ATOM     15  C   UNL     1       1.044   7.549  20.941  0.00  0.00    +0.000 A 
ENDBRANCH   2   5
BRANCH   3  16
ATOM     16  C   UNL     1       2.665   2.969  21.654  0.00  0.00    +0.000 C 
BRANCH  16  17
ATOM     17  C   UNL     1       3.574   2.140  20.733  0.00  0.00    +0.000 C 
BRANCH  17  18
ATOM     18  C   UNL     1       4.077   2.923  19.556  0.00  0.00    +0.000 A 
ATOM     19  C   UNL     1       3.758   2.727  18.196  0.00  0.00    +0.000 A 
ATOM     20  C   UNL     1       4.471   3.686  17.521  0.00  0.00    +0.000 A 
ATOM     21  N   UNL     1       5.181   4.405  18.459  0.00  0.00    +0.000 N 
ATOM     22  N   UNL     1       4.945   3.931  19.717  0.00  0.00    +0.000 NA
BRANCH  21  23
ATOM     23  C   UNL     1       6.049   5.515  18.230  0.00  0.00    +0.000 A 
ATOM     24  C   UNL     1       7.255   5.649  18.939  0.00  0.00    +0.000 A 
ATOM     25  C   UNL     1       8.103   6.732  18.688  0.00  0.00    +0.000 A 
ATOM     26  C   UNL     1       7.746   7.678  17.734  0.00  0.00    +0.000 A 
ATOM     27  F   UNL     1       8.567   8.711  17.495  0.00  0.00    +0.000 F 
ATOM     28  C   UNL     1       6.555   7.566  17.027  0.00  0.00    +0.000 A 
ATOM     29  C   UNL     1       5.704   6.484  17.272  0.00  0.00    +0.000 A 
ENDBRANCH  21  23
ENDBRANCH  17  18
ENDBRANCH  16  17
ENDBRANCH   3  16
TORSDOF 5
ENDMDL
MODEL 2
REMARK VINA RESULT:      -8.2      3.327      8.179
REMARK  Name = 
REMARK  5 active torsions:
REMARK  status: ('A' for Active; 'I' for Inactive)
REMARK    1  A    between atoms: C_2  and  C_18
REMARK    2  A    between atoms: N_3  and  C_4
REMARK    3  A    between atoms: C_4  and  C_5
REMARK    4  A    between atoms: C_5  and  C_6
REMARK    5  A    between atoms: N_9  and  C_10
REMARK                            x       y       z     vdW  Elec       q    Type
REMARK                         _______ _______ _______ _____ _____    ______ ____
ROOT
ATOM      1  O   UNL     1       1.389   5.626  20.756  0.00  0.00    +0.000 OA
ATOM      2  C   UNL     1       2.058   6.434  20.108  0.00  0.00    +0.000 C 
ATOM      3  N   UNL     1       1.939   7.774  20.397  0.00  0.00    +0.000 N 
ATOM      4  H   UNL     1       2.433   8.485  19.877  0.00  0.00    +0.000 HD
ENDROOT
BRANCH   2   5
ATOM      5  C   UNL     1       2.954   5.900  19.013  0.00  0.00    +0.000 A 
ATOM      6  C   UNL     1       3.108   4.515  19.111  0.00  0.00    +0.000 A 
ATOM      7  C   UNL     1       3.872   3.794  18.214  0.00  0.00    +0.000 A 
ATOM      8  F   UNL     1       3.947   2.466  18.398  0.00  0.00    +0.000 F 
ATOM      9  C   UNL     1       4.534   4.385  17.162  0.00  0.00    +0.000 A 
ATOM     10  N   UNL     1       5.231   3.557  16.364  0.00  0.00    +0.000 NA
ATOM     11  C   UNL     1       5.893   4.070  15.324  0.00  0.00    +0.000 A 
ATOM     12  C   UNL     1       5.896   5.419  15.041  0.00  0.00    +0.000 A 
ATOM     13  C   UNL     1       5.169   6.284  15.879  0.00  0.00    +0.000 A 
ATOM     14  C   UNL     1       4.437   5.786  17.002  0.00  0.00    +0.000 A 
ATOM     15  C   UNL     1       3.633   6.549  17.954  0.00  0.00    +0.000 A 
ENDBRANCH   2   5
BRANCH   3  16
ATOM     16  C   UNL     1       1.040   8.181  21.501  0.00  0.00    +0.000 C 
BRANCH  16  17
ATOM     17  C   UNL     1       1.079   9.690  21.788  0.00  0.00    +0.000 C 
BRANCH  17  18
ATOM     18  C   UNL     1       0.013  10.448  21.052  0.00  0.00    +0.000 A 
ATOM     19  C   UNL     1      -0.615  11.647  21.448  0.00  0.00    +0.000 A 
ATOM     20  C   UNL     1      -1.511  11.928  20.446  0.00  0.00    +0.000 A 
ATOM     21  N   UNL     1      -1.405  10.923  19.509  0.00  0.00    +0.000 N 
ATOM     22  N   UNL     1      -0.470  10.003  19.884  0.00  0.00    +0.000 NA
BRANCH  21  23
ATOM     23  C   UNL     1      -2.126  10.798  18.283  0.00  0.00    +0.000 A 
ATOM     24  C   UNL     1      -1.689   9.925  17.272  0.00  0.00    +0.000 A 
ATOM     25  C   UNL     1      -2.418   9.800  16.085  0.00  0.00    +0.000 A 
ATOM     26  C   UNL     1      -3.577  10.546  15.908  0.00  0.00    +0.000 A 
ATOM     27  F   UNL     1      -4.273  10.418  14.770  0.00  0.00    +0.000 F 
ATOM     28  C   UNL     1      -4.021  11.419  16.894  0.00  0.00    +0.000 A 
ATOM     29  C   UNL     1      -3.298  11.547  18.084  0.00  0.00    +0.000 A 
ENDBRANCH  21  23
ENDBRANCH  17  18
ENDBRANCH  16  17
ENDBRANCH   3  16
TORSDOF 5
ENDMDL
MODEL 3
REMARK VINA RESULT:      -8.1      3.998      7.170
REMARK  Name = 
REMARK  5 active torsions:
REMARK  status: ('A' for Active; 'I' for Inactive)
REMARK    1  A    between atoms: C_2  and  C_18
REMARK    2  A    between atoms: N_3  and  C_4
REMARK    3  A    between atoms: C_4  and  C_5
REMARK    4  A    between atoms: C_5  and  C_6
REMARK    5  A    between atoms: N_9  and  C_10
REMARK                            x       y       z     vdW  Elec       q    Type
REMARK                         _______ _______ _______ _____ _____    ______ ____
ROOT
ATOM      1  O   UNL     1       8.427   7.083  18.963  0.00  0.00    +0.000 OA
ATOM      2  C   UNL     1       8.149   7.970  18.154  0.00  0.00    +0.000 C 
ATOM      3  N   UNL     1       7.471   7.629  17.005  0.00  0.00    +0.000 N 
ATOM      4  H   UNL     1       7.248   8.305  16.288  0.00  0.00    +0.000 HD
ENDROOT
BRANCH   2   5
ATOM      5  C   UNL     1       8.592   9.383  18.464  0.00  0.00    +0.000 A 
ATOM      6  C   UNL     1       8.031  10.300  17.573  0.00  0.00    +0.000 A 
ATOM      7  C   UNL     1       8.276  11.656  17.661  0.00  0.00    +0.000 A 
ATOM      8  F   UNL     1       7.680  12.450  16.757  0.00  0.00    +0.000 F 
ATOM      9  C   UNL     1       9.088  12.201  18.630  0.00  0.00    +0.000 A 
ATOM     10  N   UNL     1       9.226  13.538  18.601  0.00  0.00    +0.000 NA
ATOM     11  C   UNL     1      10.000  14.127  19.517  0.00  0.00    +0.000 A 
ATOM     12  C   UNL     1      10.668  13.414  20.488  0.00  0.00    +0.000 A 
ATOM     13  C   UNL     1      10.524  12.015  20.517  0.00  0.00    +0.000 A 
ATOM     14  C   UNL     1       9.704  11.335  19.563  0.00  0.00    +0.000 A 
ATOM     15  C   UNL     1       9.447   9.900  19.466  0.00  0.00    +0.000 A 
ENDBRANCH   2   5
BRANCH   3  16
ATOM     16  C   UNL     1       7.075   6.216  16.813  0.00  0.00    +0.000 C 
BRANCH  16  17
ATOM     17  C   UNL     1       5.757   6.056  16.039  0.00  0.00    +0.000 C 
BRANCH  17  18
ATOM     18  C   UNL     1       4.552   6.085  16.932  0.00  0.00    +0.000 A 
ATOM     19  C   UNL     1       3.799   4.986  17.393  0.00  0.00    +0.000 A 
ATOM     20  C   UNL     1       2.807   5.532  18.168  0.00  0.00    +0.000 A 
ATOM     21  N   UNL     1       2.979   6.899  18.150  0.00  0.00    +0.000 N 
ATOM     22  N   UNL     1       4.052   7.245  17.381  0.00  0.00    +0.000 NA
BRANCH  21  23
ATOM     23  C   UNL     1       2.197   7.883  18.827  0.00  0.00    +0.000 A 
ATOM     24  C   UNL     1       1.855   7.729  20.181  0.00  0.00    +0.000 A 
ATOM     25  C   UNL     1       1.105   8.712  20.834  0.00  0.00    +0.000 A 
ATOM     26  C   UNL     1       0.697   9.843  20.137  0.00  0.00    +0.000 A 
ATOM     27  F   UNL     1      -0.017  10.784  20.771  0.00  0.00    +0.000 F 
ATOM     28  C   UNL     1       1.021  10.010  18.795  0.00  0.00    +0.000 A 
ATOM     29  C   UNL     1       1.772   9.032  18.137  0.00  0.00    +0.000 A 
ENDBRANCH  21  23
ENDBRANCH  17  18
ENDBRANCH  16  17
ENDBRANCH   3  16
TORSDOF 5
ENDMDL
MODEL 4
REMARK VINA RESULT:      -7.9      3.218      8.172
REMARK  Name = 
REMARK  5 active torsions:
REMARK  status: ('A' for Active; 'I' for Inactive)
REMARK    1  A    between atoms: C_2  and  C_18
REMARK    2  A    between atoms: N_3  and  C_4
REMARK    3  A    between atoms: C_4  and  C_5
REMARK    4  A    between atoms: C_5  and  C_6
REMARK    5  A    between atoms: N_9  and  C_10
REMARK                            x       y       z     vdW  Elec       q    Type
REMARK                         _______ _______ _______ _____ _____    ______ ____
ROOT
ATOM      1  O   UNL     1       1.675   5.160  20.028  0.00  0.00    +0.000 OA
ATOM      2  C   UNL     1       2.478   6.042  19.715  0.00  0.00    +0.000 C 
ATOM      3  N   UNL     1       2.297   7.310  20.219  0.00  0.00    +0.000 N 
ATOM      4  H   UNL     1       2.899   8.081  19.970  0.00  0.00    +0.000 HD
ENDROOT
BRANCH   2   5
ATOM      5  C   UNL     1       3.603   5.679  18.773  0.00  0.00    +0.000 A 
ATOM      6  C   UNL     1       4.839   5.702  19.424  0.00  0.00    +0.000 A 
ATOM      7  C   UNL     1       6.018   5.392  18.776  0.00  0.00    +0.000 A 
ATOM      8  F   UNL     1       7.149   5.439  19.498  0.00  0.00    +0.000 F 
ATOM      9  C   UNL     1       6.062   5.039  17.446  0.00  0.00    +0.000 A 
ATOM     10  N   UNL     1       7.280   4.753  16.951  0.00  0.00    +0.000 NA
ATOM     11  C   UNL     1       7.387   4.401  15.667  0.00  0.00    +0.000 A 
ATOM     12  C   UNL     1       6.297   4.327  14.827  0.00  0.00    +0.000 A 
ATOM     13  C   UNL     1       5.025   4.628  15.345  0.00  0.00    +0.000 A 
ATOM     14  C   UNL     1       4.853   5.004  16.714  0.00  0.00    +0.000 A 
ATOM     15  C   UNL     1       3.606   5.337  17.400  0.00  0.00    +0.000 A 
ENDBRANCH   2   5
BRANCH   3  16
ATOM     16  C   UNL     1       1.166   7.547  21.145  0.00  0.00    +0.000 C 
BRANCH  16  17
ATOM     17  C   UNL     1       1.187   8.947  21.780  0.00  0.00    +0.000 C 
BRANCH  17  18
ATOM     18  C   UNL     1       0.261   9.908  21.095  0.00  0.00    +0.000 A 
ATOM     19  C   UNL     1      -0.084  11.211  21.512  0.00  0.00    +0.000 A 
ATOM     20  C   UNL     1      -0.958  11.671  20.559  0.00  0.00    +0.000 A 
ATOM     21  N   UNL     1      -1.116  10.666  19.629  0.00  0.00    +0.000 N 
ATOM     22  N   UNL     1      -0.370   9.573  19.961  0.00  0.00    +0.000 NA
BRANCH  21  23
ATOM     23  C   UNL     1      -1.916  10.693  18.447  0.00  0.00    +0.000 A 
ATOM     24  C   UNL     1      -1.598   9.887  17.340  0.00  0.00    +0.000 A 
ATOM     25  C   UNL     1      -2.404   9.911  16.197  0.00  0.00    +0.000 A 
ATOM     26  C   UNL     1      -3.520  10.739  16.160  0.00  0.00    +0.000 A 
ATOM     27  F   UNL     1      -4.291  10.753  15.063  0.00  0.00    +0.000 F 
ATOM     28  C   UNL     1      -3.846  11.547  17.242  0.00  0.00    +0.000 A 
ATOM     29  C   UNL     1      -3.046  11.526  18.388  0.00  0.00    +0.000 A 
ENDBRANCH  21  23
ENDBRANCH  17  18
ENDBRANCH  16  17
ENDBRANCH   3  16
TORSDOF 5
ENDMDL
MODEL 5
REMARK VINA RESULT:      -7.9      1.572      2.162
REMARK  Name = 
REMARK  5 active torsions:
REMARK  status: ('A' for Active; 'I' for Inactive)
REMARK    1  A    between atoms: C_2  and  C_18
REMARK    2  A    between atoms: N_3  and  C_4
REMARK    3  A    between atoms: C_4  and  C_5
REMARK    4  A    between atoms: C_5  and  C_6
REMARK    5  A    between atoms: N_9  and  C_10
REMARK                            x       y       z     vdW  Elec       q    Type
REMARK                         _______ _______ _______ _____ _____    ______ ____
ROOT
ATOM      1  O   UNL     1       2.288   4.450  21.353  0.00  0.00    +0.000 OA
ATOM      2  C   UNL     1       1.985   4.837  20.223  0.00  0.00    +0.000 C 
ATOM      3  N   UNL     1       1.858   3.907  19.216  0.00  0.00    +0.000 N 
ATOM      4  H   UNL     1       1.648   4.167  18.264  0.00  0.00    +0.000 HD
ENDROOT
BRANCH   2   5
ATOM      5  C   UNL     1       1.793   6.321  20.007  0.00  0.00    +0.000 A 
ATOM      6  C   UNL     1       1.208   6.927  21.122  0.00  0.00    +0.000 A 
ATOM      7  C   UNL     1       0.945   8.282  21.169  0.00  0.00    +0.000 A 
ATOM      8  F   UNL     1       0.388   8.761  22.293  0.00  0.00    +0.000 F 
ATOM      9  C   UNL     1       1.238   9.132  20.126  0.00  0.00    +0.000 A 
ATOM     10  N   UNL     1       0.936  10.428  20.318  0.00  0.00    +0.000 NA
ATOM     11  C   UNL     1       1.199  11.302  19.344  0.00  0.00    +0.000 A 
ATOM     12  C   UNL     1       1.762  10.925  18.144  0.00  0.00    +0.000 A 
ATOM     13  C   UNL     1       2.075   9.568  17.944  0.00  0.00    +0.000 A 
ATOM     14  C   UNL     1       1.821   8.592  18.956  0.00  0.00    +0.000 A 
ATOM     15  C   UNL     1       2.095   7.157  18.905  0.00  0.00    +0.000 A 
ENDBRANCH   2   5
BRANCH   3  16
ATOM     16  C   UNL     1       2.055   2.477  19.548  0.00  0.00    +0.000 C 
BRANCH  16  17
ATOM     17  C   UNL     1       3.203   1.826  18.761  0.00  0.00    +0.000 C 
BRANCH  17  18
ATOM     18  C   UNL     1       4.006   2.822  17.976  0.00  0.00    +0.000 A 
ATOM     19  C   UNL     1       4.040   2.983  16.575  0.00  0.00    +0.000 A 
ATOM     20  C   UNL     1       4.922   4.011  16.355  0.00  0.00    +0.000 A 
ATOM     21  N   UNL     1       5.384   4.425  17.587  0.00  0.00    +0.000 N 
ATOM     22  N   UNL     1       4.826   3.686  18.590  0.00  0.00    +0.000 NA
BRANCH  21  23
ATOM     23  C   UNL     1       6.305   5.480  17.860  0.00  0.00    +0.000 A 
ATOM     24  C   UNL     1       6.246   6.694  17.153  0.00  0.00    +0.000 A 
ATOM     25  C   UNL     1       7.144   7.725  17.448  0.00  0.00    +0.000 A 
ATOM     26  C   UNL     1       8.098   7.543  18.442  0.00  0.00    +0.000 A 
ATOM     27  F   UNL     1       8.951   8.538  18.723  0.00  0.00    +0.000 F 
ATOM     28  C   UNL     1       8.175   6.348  19.148  0.00  0.00    +0.000 A 
ATOM     29  C   UNL     1       7.279   5.315  18.860  0.00  0.00    +0.000 A 
ENDBRANCH  21  23
ENDBRANCH  17  18
ENDBRANCH  16  17
ENDBRANCH   3  16
TORSDOF 5
ENDMDL
MODEL 6
REMARK VINA RESULT:      -7.9      5.717      8.482
REMARK  Name = 
REMARK  5 active torsions:
REMARK  status: ('A' for Active; 'I' for Inactive)
REMARK    1  A    between atoms: C_2  and  C_18
REMARK    2  A    between atoms: N_3  and  C_4
REMARK    3  A    between atoms: C_4  and  C_5
REMARK    4  A    between atoms: C_5  and  C_6
REMARK    5  A    between atoms: N_9  and  C_10
REMARK                            x       y       z     vdW  Elec       q    Type
REMARK                         _______ _______ _______ _____ _____    ______ ____
ROOT
ATOM      1  O   UNL     1       9.989  10.240  19.455  0.00  0.00    +0.000 OA
ATOM      2  C   UNL     1       9.319  10.781  18.573  0.00  0.00    +0.000 C 
ATOM      3  N   UNL     1       8.398  10.025  17.884  0.00  0.00    +0.000 N 
ATOM      4  H   UNL     1       7.847  10.403  17.127  0.00  0.00    +0.000 HD
ENDROOT
BRANCH   2   5
ATOM      5  C   UNL     1       9.569  12.244  18.286  0.00  0.00    +0.000 A 
ATOM      6  C   UNL     1      10.751  12.426  17.563  0.00  0.00    +0.000 A 
ATOM      7  C   UNL     1      11.187  13.676  17.169  0.00  0.00    +0.000 A 
ATOM      8  F   UNL     1      12.333  13.737  16.473  0.00  0.00    +0.000 F 
ATOM      9  C   UNL     1      10.492  14.829  17.458  0.00  0.00    +0.000 A 
ATOM     10  N   UNL     1      11.032  15.973  17.002  0.00  0.00    +0.000 NA
ATOM     11  C   UNL     1      10.403  17.125  17.248  0.00  0.00    +0.000 A 
ATOM     12  C   UNL     1       9.225  17.188  17.960  0.00  0.00    +0.000 A 
ATOM     13  C   UNL     1       8.663  15.990  18.439  0.00  0.00    +0.000 A 
ATOM     14  C   UNL     1       9.291  14.729  18.198  0.00  0.00    +0.000 A 
ATOM     15  C   UNL     1       8.833  13.407  18.619  0.00  0.00    +0.000 A 
ENDBRANCH   2   5
BRANCH   3  16
ATOM     16  C   UNL     1       8.228   8.603  18.261  0.00  0.00    +0.000 C 
BRANCH  16  17
ATOM     17  C   UNL     1       7.373   7.810  17.261  0.00  0.00    +0.000 C 
BRANCH  17  18
ATOM     18  C   UNL     1       6.804   6.553  17.851  0.00  0.00    +0.000 A 
ATOM     19  C   UNL     1       7.480   5.586  18.623  0.00  0.00    +0.000 A 
ATOM     20  C   UNL     1       6.533   4.637  18.916  0.00  0.00    +0.000 A 
ATOM     21  N   UNL     1       5.353   5.041  18.328  0.00  0.00    +0.000 N 
ATOM     22  N   UNL     1       5.519   6.221  17.663  0.00  0.00    +0.000 NA
BRANCH  21  23
ATOM     23  C   UNL     1       4.087   4.383  18.375  0.00  0.00    +0.000 A 
ATOM     24  C   UNL     1       2.943   4.973  17.812  0.00  0.00    +0.000 A 
ATOM     25  C   UNL     1       1.715   4.305  17.850  0.00  0.00    +0.000 A 
ATOM     26  C   UNL     1       1.630   3.054  18.450  0.00  0.00    +0.000 A 
ATOM     27  F   UNL     1       0.451   2.417  18.478  0.00  0.00    +0.000 F 
ATOM     28  C   UNL     1       2.750   2.457  19.017  0.00  0.00    +0.000 A 
ATOM     29  C   UNL     1       3.981   3.119  18.980  0.00  0.00    +0.000 A 
ENDBRANCH  21  23
ENDBRANCH  17  18
ENDBRANCH  16  17
ENDBRANCH   3  16
TORSDOF 5
ENDMDL
MODEL 7
REMARK VINA RESULT:      -7.7      0.677      1.140
REMARK  Name = 
REMARK  5 active torsions:
REMARK  status: ('A' for Active; 'I' for Inactive)
REMARK    1  A    between atoms: C_2  and  C_18
REMARK    2  A    between atoms: N_3  and  C_4
REMARK    3  A    between atoms: C_4  and  C_5
REMARK    4  A    between atoms: C_5  and  C_6
REMARK    5  A    between atoms: N_9  and  C_10
REMARK                            x       y       z     vdW  Elec       q    Type
REMARK                         _______ _______ _______ _____ _____    ______ ____
ROOT
ATOM      1  O   UNL     1       1.407   4.113  18.985  0.00  0.00    +0.000 OA
ATOM      2  C   UNL     1       1.954   4.790  19.859  0.00  0.00    +0.000 C 
ATOM      3  N   UNL     1       2.672   4.146  20.841  0.00  0.00    +0.000 N 
ATOM      4  H   UNL     1       3.111   4.643  21.603  0.00  0.00    +0.000 HD
ENDROOT
BRANCH   2   5
ATOM      5  C   UNL     1       1.782   6.291  19.809  0.00  0.00    +0.000 A 
ATOM      6  C   UNL     1       2.193   6.811  18.579  0.00  0.00    +0.000 A 
ATOM      7  C   UNL     1       2.119   8.159  18.288  0.00  0.00    +0.000 A 
ATOM      8  F   UNL     1       2.534   8.549  17.073  0.00  0.00    +0.000 F 
ATOM      9  C   UNL     1       1.637   9.086  19.185  0.00  0.00    +0.000 A 
ATOM     10  N   UNL     1       1.614  10.361  18.760  0.00  0.00    +0.000 NA
ATOM     11  C   UNL     1       1.155  11.306  19.584  0.00  0.00    +0.000 A 
ATOM     12  C   UNL     1       0.710  11.025  20.858  0.00  0.00    +0.000 A 
ATOM     13  C   UNL     1       0.737   9.691  21.302  0.00  0.00    +0.000 A 
ATOM     14  C   UNL     1       1.213   8.639  20.458  0.00  0.00    +0.000 A 
ATOM     15  C   UNL     1       1.296   7.213  20.767  0.00  0.00    +0.000 A 
ENDBRANCH   2   5
BRANCH   3  16
ATOM     16  C   UNL     1       2.785   2.671  20.781  0.00  0.00    +0.000 C 
BRANCH  16  17
ATOM     17  C   UNL     1       4.088   2.190  20.122  0.00  0.00    +0.000 C 
BRANCH  17  18
ATOM     18  C   UNL     1       4.571   3.118  19.046  0.00  0.00    +0.000 A 
ATOM     19  C   UNL     1       4.286   3.054  17.666  0.00  0.00    +0.000 A 
ATOM     20  C   UNL     1       4.961   4.113  17.113  0.00  0.00    +0.000 A 
ATOM     21  N   UNL     1       5.616   4.762  18.138  0.00  0.00    +0.000 N 
ATOM     22  N   UNL     1       5.383   4.145  19.332  0.00  0.00    +0.000 NA
BRANCH  21  23
ATOM     23  C   UNL     1       6.430   5.931  18.047  0.00  0.00    +0.000 A 
ATOM     24  C   UNL     1       6.079   6.993  17.195  0.00  0.00    +0.000 A 
ATOM     25  C   UNL     1       6.878   8.139  17.133  0.00  0.00    +0.000 A 
ATOM     26  C   UNL     1       8.023   8.223  17.917  0.00  0.00    +0.000 A 
ATOM     27  F   UNL     1       8.780   9.327  17.856  0.00  0.00    +0.000 F 
ATOM     28  C   UNL     1       8.389   7.181  18.761  0.00  0.00    +0.000 A 
ATOM     29  C   UNL     1       7.593   6.033  18.829  0.00  0.00    +0.000 A 
ENDBRANCH  21  23
ENDBRANCH  17  18
ENDBRANCH  16  17
ENDBRANCH   3  16
TORSDOF 5
ENDMDL
MODEL 8
REMARK VINA RESULT:      -7.7      3.080      7.554
REMARK  Name = 
REMARK  5 active torsions:
REMARK  status: ('A' for Active; 'I' for Inactive)
REMARK    1  A    between atoms: C_2  and  C_18
REMARK    2  A    between atoms: N_3  and  C_4
REMARK    3  A    between atoms: C_4  and  C_5
REMARK    4  A    between atoms: C_5  and  C_6
REMARK    5  A    between atoms: N_9  and  C_10
REMARK                            x       y       z     vdW  Elec       q    Type
REMARK                         _______ _______ _______ _____ _____    ______ ____
ROOT
ATOM      1  O   UNL     1       4.554   3.237  19.345  0.00  0.00    +0.000 OA
ATOM      2  C   UNL     1       4.051   3.866  18.411  0.00  0.00    +0.000 C 
ATOM      3  N   UNL     1       2.732   4.248  18.504  0.00  0.00    +0.000 N 
ATOM      4  H   UNL     1       2.256   4.732  17.757  0.00  0.00    +0.000 HD
ENDROOT
BRANCH   2   5
ATOM      5  C   UNL     1       4.914   4.158  17.204  0.00  0.00    +0.000 A 
ATOM      6  C   UNL     1       5.911   5.089  17.504  0.00  0.00    +0.000 A 
ATOM      7  C   UNL     1       6.835   5.506  16.566  0.00  0.00    +0.000 A 
ATOM      8  F   UNL     1       7.755   6.399  16.963  0.00  0.00    +0.000 F 
ATOM      9  C   UNL     1       6.840   5.039  15.271  0.00  0.00    +0.000 A 
ATOM     10  N   UNL     1       7.804   5.526  14.471  0.00  0.00    +0.000 NA
ATOM     11  C   UNL     1       7.863   5.108  13.204  0.00  0.00    +0.000 A 
ATOM     12  C   UNL     1       6.967   4.201  12.682  0.00  0.00    +0.000 A 
ATOM     13  C   UNL     1       5.957   3.694  13.519  0.00  0.00    +0.000 A 
ATOM     14  C   UNL     1       5.852   4.102  14.885  0.00  0.00    +0.000 A 
ATOM     15  C   UNL     1       4.873   3.664  15.878  0.00  0.00    +0.000 A 
ENDBRANCH   2   5
BRANCH   3  16
ATOM     16  C   UNL     1       1.988   3.919  19.741  0.00  0.00    +0.000 C 
BRANCH  16  17
ATOM     17  C   UNL     1       2.280   4.888  20.899  0.00  0.00    +0.000 C 
BRANCH  17  18
ATOM     18  C   UNL     1       1.951   6.312  20.560  0.00  0.00    +0.000 A 
ATOM     19  C   UNL     1       2.395   7.053  19.445  0.00  0.00    +0.000 A 
ATOM     20  C   UNL     1       1.827   8.294  19.592  0.00  0.00    +0.000 A 
ATOM     21  N   UNL     1       1.086   8.270  20.755  0.00  0.00    +0.000 N 
ATOM     22  N   UNL     1       1.167   7.049  21.359  0.00  0.00    +0.000 NA
BRANCH  21  23
ATOM     23  C   UNL     1       0.302   9.327  21.308  0.00  0.00    +0.000 A 
ATOM     24  C   UNL     1      -0.144   9.275  22.640  0.00  0.00    +0.000 A 
ATOM     25  C   UNL     1      -0.894  10.329  23.172  0.00  0.00    +0.000 A 
ATOM     26  C   UNL     1      -1.199  11.427  22.377  0.00  0.00    +0.000 A 
ATOM     27  F   UNL     1      -1.914  12.435  22.896  0.00  0.00    +0.000 F 
ATOM     28  C   UNL     1      -0.772  11.492  21.056  0.00  0.00    +0.000 A 
ATOM     29  C   UNL     1      -0.020  10.444  20.519  0.00  0.00    +0.000 A 
ENDBRANCH  21  23
ENDBRANCH  17  18
ENDBRANCH  16  17
ENDBRANCH   3  16
TORSDOF 5
ENDMDL
MODEL 9
REMARK VINA RESULT:      -7.6      4.829      8.102
REMARK  Name = 
REMARK  5 active torsions:
REMARK  status: ('A' for Active; 'I' for Inactive)
REMARK    1  A    between atoms: C_2  and  C_18
REMARK    2  A    between atoms: N_3  and  C_4
REMARK    3  A    between atoms: C_4  and  C_5
REMARK    4  A    between atoms: C_5  and  C_6
REMARK    5  A    between atoms: N_9  and  C_10
REMARK                            x       y       z     vdW  Elec       q    Type
REMARK                         _______ _______ _______ _____ _____    ______ ____
ROOT
ATOM      1  O   UNL     1       7.494   9.272  17.832  0.00  0.00    +0.000 OA
ATOM      2  C   UNL     1       8.546   9.206  18.472  0.00  0.00    +0.000 C 
ATOM      3  N   UNL     1       8.905   7.999  19.030  0.00  0.00    +0.000 N 
ATOM      4  H   UNL     1       9.735   7.892  19.595  0.00  0.00    +0.000 HD
ENDROOT
BRANCH   2   5
ATOM      5  C   UNL     1       9.367  10.466  18.626  0.00  0.00    +0.000 A 
ATOM      6  C   UNL     1       9.430  10.873  19.960  0.00  0.00    +0.000 A 
ATOM      7  C   UNL     1      10.135  11.993  20.356  0.00  0.00    +0.000 A 
ATOM      8  F   UNL     1      10.135  12.290  21.665  0.00  0.00    +0.000 F 
ATOM      9  C   UNL     1      10.825  12.786  19.467  0.00  0.00    +0.000 A 
ATOM     10  N   UNL     1      11.475  13.837  19.996  0.00  0.00    +0.000 NA
ATOM     11  C   UNL     1      12.165  14.643  19.185  0.00  0.00    +0.000 A 
ATOM     12  C   UNL     1      12.231  14.443  17.824  0.00  0.00    +0.000 A 
ATOM     13  C   UNL     1      11.548  13.344  17.271  0.00  0.00    +0.000 A 
ATOM     14  C   UNL     1      10.800  12.447  18.095  0.00  0.00    +0.000 A 
ATOM     15  C   UNL     1      10.049  11.264  17.677  0.00  0.00    +0.000 A 
ENDBRANCH   2   5
BRANCH   3  16
ATOM     16  C   UNL     1       8.029   6.828  18.802  0.00  0.00    +0.000 C 
BRANCH  16  17
ATOM     17  C   UNL     1       7.440   6.780  17.383  0.00  0.00    +0.000 C 
BRANCH  17  18
ATOM     18  C   UNL     1       6.179   5.971  17.305  0.00  0.00    +0.000 A 
ATOM     19  C   UNL     1       5.537   5.492  16.144  0.00  0.00    +0.000 A 
ATOM     20  C   UNL     1       4.430   4.821  16.599  0.00  0.00    +0.000 A 
ATOM     21  N   UNL     1       4.432   4.913  17.974  0.00  0.00    +0.000 N 
ATOM     22  N   UNL     1       5.507   5.630  18.413  0.00  0.00    +0.000 NA
BRANCH  21  23
ATOM     23  C   UNL     1       3.486   4.352  18.885  0.00  0.00    +0.000 A 
ATOM     24  C   UNL     1       3.020   5.087  19.989  0.00  0.00    +0.000 A 
ATOM     25  C   UNL     1       2.079   4.528  20.860  0.00  0.00    +0.000 A 
ATOM     26  C   UNL     1       1.608   3.241  20.630  0.00  0.00    +0.000 A 
ATOM     27  F   UNL     1       0.702   2.715  21.466  0.00  0.00    +0.000 F 
ATOM     28  C   UNL     1       2.062   2.497  19.547  0.00  0.00    +0.000 A 
ATOM     29  C   UNL     1       3.001   3.050  18.672  0.00  0.00    +0.000 A 
ENDBRANCH  21  23
ENDBRANCH  17  18
ENDBRANCH  16  17
ENDBRANCH   3  16
TORSDOF 5
ENDMDL
