MODEL 1
REMARK VINA RESULT:      -8.9      0.000      0.000
REMARK  Name = 
REMARK  4 active torsions:
REMARK  status: ('A' for Active; 'I' for Inactive)
REMARK    1  A    between atoms: C_1  and  C_2
REMARK    2  A    between atoms: C_2  and  C_3
REMARK    3  A    between atoms: C_2  and  C_20
REMARK    4  A    between atoms: C_8  and  C_9
REMARK                            x       y       z     vdW  Elec       q    Type
REMARK                         _______ _______ _______ _____ _____    ______ ____
ROOT
ATOM      1  C   UNL     1       2.376   5.846  19.048  0.00  0.00    +0.000 C 
ATOM      2  O   UNL     1       2.130   5.187  20.067  0.00  0.00    +0.000 OA
ATOM      3  N   UNL     1       2.227   7.230  19.049  0.00  0.00    +0.000 N 
ATOM      4  C   UNL     1       1.864   7.854  20.326  0.00  0.00    +0.000 C 
ATOM      5  C   UNL     1       1.149   9.160  20.138  0.00  0.00    +0.000 C 
ATOM      6  C   UNL     1       0.961   9.763  18.955  0.00  0.00    +0.000 C 
ATOM      7  C   UNL     1       1.508   9.177  17.685  0.00  0.00    +0.000 C 
ATOM      8  C   UNL     1       2.608   8.152  17.976  0.00  0.00    +0.000 C 
ENDROOT
BRANCH   6   9
ATOM      9  C   UNL     1       0.259  10.990  18.787  0.00  0.00    +0.000 A 
ATOM     10  C   UNL     1      -1.089  11.078  18.511  0.00  0.00    +0.000 A 
ATOM     11  N   UNL     1      -1.411  12.409  18.432  0.00  0.00    +0.000 N 
ATOM     12  C   UNL     1      -0.298  13.169  18.650  0.00  0.00    +0.000 A 
ATOM     13  N   UNL     1      -0.287  14.517  18.639  0.00  0.00    +0.000 NA
ATOM     14  C   UNL     1       0.938  15.033  18.885  0.00  0.00    +0.000 A 
ATOM     15  C   UNL     1       2.092  14.300  19.134  0.00  0.00    +0.000 A 
ATOM     16  C   UNL     1       2.027  12.905  19.137  0.00  0.00    +0.000 A 
ATOM     17  C   UNL     1       0.775  12.313  18.881  0.00  0.00    +0.000 A 
ATOM     18  H   UNL     1      -2.323  12.797  18.245  0.00  0.00    +0.000 HD
ENDBRANCH   6   9
BRANCH   1  20
ATOM     19  C   UNL     1       2.063   3.782  17.603  0.00  0.00    +0.000 C 
ATOM     20  C   UNL     1       2.855   5.085  17.798  0.00  0.00    +0.000 C 
BRANCH  20  21
ATOM     21  C   UNL     1       4.366   4.958  17.605  0.00  0.00    +0.000 A 
ATOM     22  C   UNL     1       4.865   4.387  16.419  0.00  0.00    +0.000 A 
ATOM     23  C   UNL     1       6.237   4.234  16.204  0.00  0.00    +0.000 A 
ATOM     24  C   UNL     1       7.143   4.646  17.177  0.00  0.00    +0.000 A 
ATOM     25  C   UNL     1       6.673   5.250  18.336  0.00  0.00    +0.000 A 
ATOM     26 CL   UNL     1       7.782   5.755  19.552  0.00  0.00    +0.000 Cl
ATOM     27  C   UNL     1       5.303   5.439  18.532  0.00  0.00    +0.000 A 
ENDBRANCH  20  21
ENDBRANCH   1  20
TORSDOF 3
ENDMDL
MODEL 2
REMARK VINA RESULT:      -8.7      0.984      1.348
REMARK  Name = 
REMARK  4 active torsions:
REMARK  status: ('A' for Active; 'I' for Inactive)
REMARK    1  A    between atoms: C_1  and  C_2
REMARK    2  A    between atoms: C_2  and  C_3
REMARK    3  A    between atoms: C_2  and  C_20
REMARK    4  A    between atoms: C_8  and  C_9
REMARK                            x       y       z     vdW  Elec       q    Type
REMARK                         _______ _______ _______ _____ _____    ______ ____
ROOT
ATOM      1  C   UNL     1       2.258   5.954  19.233  0.00  0.00    +0.000 C 
ATOM      2  O   UNL     1       1.952   5.308  20.243  0.00  0.00    +0.000 OA
ATOM      3  N   UNL     1       2.123   7.339  19.213  0.00  0.00    +0.000 N 
ATOM      4  C   UNL     1       1.701   7.980  20.462  0.00  0.00    +0.000 C 
ATOM      5  C   UNL     1       1.010   9.291  20.224  0.00  0.00    +0.000 C 
ATOM      6  C   UNL     1       0.891   9.884  19.027  0.00  0.00    +0.000 C 
ATOM      7  C   UNL     1       1.497   9.280  17.794  0.00  0.00    +0.000 C 
ATOM      8  C   UNL     1       2.571   8.247  18.152  0.00  0.00    +0.000 C 
ENDROOT
BRANCH   6   9
ATOM      9  C   UNL     1       0.212  11.116  18.811  0.00  0.00    +0.000 A 
ATOM     10  C   UNL     1      -1.118  11.215  18.458  0.00  0.00    +0.000 A 
ATOM     11  N   UNL     1      -1.421  12.548  18.351  0.00  0.00    +0.000 N 
ATOM     12  C   UNL     1      -0.315  13.299  18.626  0.00  0.00    +0.000 A 
ATOM     13  N   UNL     1      -0.290  14.647  18.607  0.00  0.00    +0.000 NA
ATOM     14  C   UNL     1       0.924  15.153  18.918  0.00  0.00    +0.000 A 
ATOM     15  C   UNL     1       2.055  14.411  19.238  0.00  0.00    +0.000 A 
ATOM     16  C   UNL     1       1.975  13.017  19.247  0.00  0.00    +0.000 A 
ATOM     17  C   UNL     1       0.735  12.435  18.924  0.00  0.00    +0.000 A 
ATOM     18  H   UNL     1      -2.317  12.943  18.109  0.00  0.00    +0.000 HD
ENDBRANCH   6   9
BRANCH   1  20
ATOM     19  C   UNL     1       2.067   3.831  17.853  0.00  0.00    +0.000 C 
ATOM     20  C   UNL     1       2.794   5.175  18.017  0.00  0.00    +0.000 C 
BRANCH  20  21
ATOM     21  C   UNL     1       4.312   5.113  17.852  0.00  0.00    +0.000 A 
ATOM     22  C   UNL     1       5.136   5.279  18.982  0.00  0.00    +0.000 A 
ATOM     23  C   UNL     1       6.529   5.248  18.879  0.00  0.00    +0.000 A 
ATOM     24  C   UNL     1       7.131   5.055  17.639  0.00  0.00    +0.000 A 
ATOM     25  C   UNL     1       6.336   4.848  16.519  0.00  0.00    +0.000 A 
ATOM     26 CL   UNL     1       7.067   4.619  14.978  0.00  0.00    +0.000 Cl
ATOM     27  C   UNL     1       4.944   4.839  16.629  0.00  0.00    +0.000 A 
ENDBRANCH  20  21
ENDBRANCH   1  20
TORSDOF 3
ENDMDL
MODEL 3
REMARK VINA RESULT:      -8.6      1.362      2.256
REMARK  Name = 
REMARK  4 active torsions:
REMARK  status: ('A' for Active; 'I' for Inactive)
REMARK    1  A    between atoms: C_1  and  C_2
REMARK    2  A    between atoms: C_2  and  C_3
REMARK    3  A    between atoms: C_2  and  C_20
REMARK    4  A    between atoms: C_8  and  C_9
REMARK                            x       y       z     vdW  Elec       q    Type
REMARK                         _______ _______ _______ _____ _____    ______ ____
ROOT
ATOM      1  C   UNL     1       2.652   5.094  18.892  0.00  0.00    +0.000 C 
ATOM      2  O   UNL     1       2.401   4.308  19.816  0.00  0.00    +0.000 OA
ATOM      3  N   UNL     1       2.482   6.464  19.065  0.00  0.00    +0.000 N 
ATOM      4  C   UNL     1       2.093   6.917  20.404  0.00  0.00    +0.000 C 
ATOM      5  C   UNL     1       1.361   8.227  20.371  0.00  0.00    +0.000 C 
ATOM      6  C   UNL     1       1.181   8.972  19.270  0.00  0.00    +0.000 C 
ATOM      7  C   UNL     1       1.754   8.559  17.946  0.00  0.00    +0.000 C 
ATOM      8  C   UNL     1       2.866   7.519  18.123  0.00  0.00    +0.000 C 
ENDROOT
BRANCH   6   9
ATOM      9  C   UNL     1       0.464  10.202  19.247  0.00  0.00    +0.000 A 
ATOM     10  C   UNL     1       0.935  11.382  19.784  0.00  0.00    +0.000 A 
ATOM     11  N   UNL     1      -0.015  12.346  19.565  0.00  0.00    +0.000 N 
ATOM     12  C   UNL     1      -1.080  11.807  18.902  0.00  0.00    +0.000 A 
ATOM     13  N   UNL     1      -2.177  12.501  18.539  0.00  0.00    +0.000 NA
ATOM     14  C   UNL     1      -3.088  11.739  17.893  0.00  0.00    +0.000 A 
ATOM     15  C   UNL     1      -2.956  10.387  17.601  0.00  0.00    +0.000 A 
ATOM     16  C   UNL     1      -1.797   9.715  17.997  0.00  0.00    +0.000 A 
ATOM     17  C   UNL     1      -0.816  10.458  18.681  0.00  0.00    +0.000 A 
ATOM     18  H   UNL     1       0.038  13.316  19.838  0.00  0.00    +0.000 HD
ENDBRANCH   6   9
BRANCH   1  20
ATOM     19  C   UNL     1       2.514   3.137  17.281  0.00  0.00    +0.000 C 
ATOM     20  C   UNL     1       3.160   4.502  17.564  0.00  0.00    +0.000 C 
BRANCH  20  21
ATOM     21  C   UNL     1       4.665   4.571  17.310  0.00  0.00    +0.000 A 
ATOM     22  C   UNL     1       5.175   4.157  16.064  0.00  0.00    +0.000 A 
ATOM     23  C   UNL     1       6.545   4.185  15.792  0.00  0.00    +0.000 A 
ATOM     24  C   UNL     1       7.439   4.623  16.764  0.00  0.00    +0.000 A 
ATOM     25  C   UNL     1       6.954   5.074  17.984  0.00  0.00    +0.000 A 
ATOM     26 CL   UNL     1       8.048   5.610  19.199  0.00  0.00    +0.000 Cl
ATOM     27  C   UNL     1       5.581   5.084  18.241  0.00  0.00    +0.000 A 
ENDBRANCH  20  21
ENDBRANCH   1  20
TORSDOF 3
ENDMDL
MODEL 4
REMARK VINA RESULT:      -8.5      1.784      2.686
REMARK  Name = 
REMARK  4 active torsions:
REMARK  status: ('A' for Active; 'I' for Inactive)
REMARK    1  A    between atoms: C_1  and  C_2
REMARK    2  A    between atoms: C_2  and  C_3
REMARK    3  A    between atoms: C_2  and  C_20
REMARK    4  A    between atoms: C_8  and  C_9
REMARK                            x       y       z     vdW  Elec       q    Type
REMARK                         _______ _______ _______ _____ _____    ______ ____
ROOT
ATOM      1  C   UNL     1       2.720   4.983  18.880  0.00  0.00    +0.000 C 
ATOM      2  O   UNL     1       2.486   4.239  19.842  0.00  0.00    +0.000 OA
ATOM      3  N   UNL     1       2.581   6.362  19.003  0.00  0.00    +0.000 N 
ATOM      4  C   UNL     1       2.244   6.875  20.335  0.00  0.00    +0.000 C 
ATOM      5  C   UNL     1       1.536   8.196  20.273  0.00  0.00    +0.000 C 
ATOM      6  C   UNL     1       1.332   8.901  19.150  0.00  0.00    +0.000 C 
ATOM      7  C   UNL     1       1.853   8.424  17.825  0.00  0.00    +0.000 C 
ATOM      8  C   UNL     1       2.951   7.371  18.007  0.00  0.00    +0.000 C 
ENDROOT
BRANCH   6   9
ATOM      9  C   UNL     1       0.637  10.142  19.101  0.00  0.00    +0.000 A 
ATOM     10  C   UNL     1       1.139  11.329  19.592  0.00  0.00    +0.000 A 
ATOM     11  N   UNL     1       0.202  12.304  19.359  0.00  0.00    +0.000 N 
ATOM     12  C   UNL     1      -0.884  11.764  18.733  0.00  0.00    +0.000 A 
ATOM     13  N   UNL     1      -1.976  12.466  18.368  0.00  0.00    +0.000 NA
ATOM     14  C   UNL     1      -2.911  11.702  17.762  0.00  0.00    +0.000 A 
ATOM     15  C   UNL     1      -2.809  10.339  17.512  0.00  0.00    +0.000 A 
ATOM     16  C   UNL     1      -1.655   9.658  17.907  0.00  0.00    +0.000 A 
ATOM     17  C   UNL     1      -0.649  10.404  18.550  0.00  0.00    +0.000 A 
ATOM     18  H   UNL     1       0.277  13.280  19.601  0.00  0.00    +0.000 HD
ENDBRANCH   6   9
BRANCH   1  20
ATOM     19  C   UNL     1       2.586   2.917  17.410  0.00  0.00    +0.000 C 
ATOM     20  C   UNL     1       3.172   4.330  17.560  0.00  0.00    +0.000 C 
BRANCH  20  21
ATOM     21  C   UNL     1       4.652   4.457  17.200  0.00  0.00    +0.000 A 
ATOM     22  C   UNL     1       5.610   4.524  18.230  0.00  0.00    +0.000 A 
ATOM     23  C   UNL     1       6.973   4.659  17.950  0.00  0.00    +0.000 A 
ATOM     24  C   UNL     1       7.408   4.735  16.630  0.00  0.00    +0.000 A 
ATOM     25  C   UNL     1       6.483   4.630  15.599  0.00  0.00    +0.000 A 
ATOM     26 CL   UNL     1       7.006   4.732  13.963  0.00  0.00    +0.000 Cl
ATOM     27  C   UNL     1       5.126   4.454  15.879  0.00  0.00    +0.000 A 
ENDBRANCH  20  21
ENDBRANCH   1  20
TORSDOF 3
ENDMDL
MODEL 5
REMARK VINA RESULT:      -8.5      1.866      2.189
REMARK  Name = 
REMARK  4 active torsions:
REMARK  status: ('A' for Active; 'I' for Inactive)
REMARK    1  A    between atoms: C_1  and  C_2
REMARK    2  A    between atoms: C_2  and  C_3
REMARK    3  A    between atoms: C_2  and  C_20
REMARK    4  A    between atoms: C_8  and  C_9
REMARK                            x       y       z     vdW  Elec       q    Type
REMARK                         _______ _______ _______ _____ _____    ______ ____
ROOT
ATOM      1  C   UNL     1       2.423   6.268  19.124  0.00  0.00    +0.000 C 
ATOM      2  O   UNL     1       2.525   5.576  20.145  0.00  0.00    +0.000 OA
ATOM      3  N   UNL     1       2.047   7.605  19.211  0.00  0.00    +0.000 N 
ATOM      4  C   UNL     1       1.880   8.157  20.559  0.00  0.00    +0.000 C 
ATOM      5  C   UNL     1       0.932   9.321  20.584  0.00  0.00    +0.000 C 
ATOM      6  C   UNL     1       0.386   9.882  19.495  0.00  0.00    +0.000 C 
ATOM      7  C   UNL     1       0.725   9.400  18.115  0.00  0.00    +0.000 C 
ATOM      8  C   UNL     1       2.019   8.579  18.116  0.00  0.00    +0.000 C 
ENDROOT
BRANCH   6   9
ATOM      9  C   UNL     1      -0.531  10.970  19.533  0.00  0.00    +0.000 A 
ATOM     10  C   UNL     1      -1.030  11.601  18.413  0.00  0.00    +0.000 A 
ATOM     11  N   UNL     1      -1.887  12.585  18.837  0.00  0.00    +0.000 N 
ATOM     12  C   UNL     1      -1.944  12.595  20.201  0.00  0.00    +0.000 A 
ATOM     13  N   UNL     1      -2.700  13.447  20.922  0.00  0.00    +0.000 NA
ATOM     14  C   UNL     1      -2.583  13.251  22.254  0.00  0.00    +0.000 A 
ATOM     15  C   UNL     1      -1.790  12.289  22.867  0.00  0.00    +0.000 A 
ATOM     16  C   UNL     1      -1.028  11.429  22.075  0.00  0.00    +0.000 A 
ATOM     17  C   UNL     1      -1.106  11.591  20.678  0.00  0.00    +0.000 A 
ATOM     18  H   UNL     1      -2.411  13.218  18.253  0.00  0.00    +0.000 HD
ENDBRANCH   6   9
BRANCH   1  20
ATOM     19  C   UNL     1       1.927   4.302  17.595  0.00  0.00    +0.000 C 
ATOM     20  C   UNL     1       2.731   5.600  17.770  0.00  0.00    +0.000 C 
BRANCH  20  21
ATOM     21  C   UNL     1       4.202   5.510  17.365  0.00  0.00    +0.000 A 
ATOM     22  C   UNL     1       4.671   4.348  16.724  0.00  0.00    +0.000 A 
ATOM     23  C   UNL     1       6.012   4.212  16.351  0.00  0.00    +0.000 A 
ATOM     24  C   UNL     1       6.915   5.237  16.617  0.00  0.00    +0.000 A 
ATOM     25  C   UNL     1       6.464   6.408  17.211  0.00  0.00    +0.000 A 
ATOM     26 CL   UNL     1       7.572   7.679  17.554  0.00  0.00    +0.000 Cl
ATOM     27  C   UNL     1       5.116   6.559  17.547  0.00  0.00    +0.000 A 
ENDBRANCH  20  21
ENDBRANCH   1  20
TORSDOF 3
ENDMDL
MODEL 6
REMARK VINA RESULT:      -8.4      1.693      2.727
REMARK  Name = 
REMARK  4 active torsions:
REMARK  status: ('A' for Active; 'I' for Inactive)
REMARK    1  A    between atoms: C_1  and  C_2
REMARK    2  A    between atoms: C_2  and  C_3
REMARK    3  A    between atoms: C_2  and  C_20
REMARK    4  A    between atoms: C_8  and  C_9
REMARK                            x       y       z     vdW  Elec       q    Type
REMARK                         _______ _______ _______ _____ _____    ______ ____
ROOT
ATOM      1  C   UNL     1       2.668   6.191  19.152  0.00  0.00    +0.000 C 
ATOM      2  O   UNL     1       2.675   5.451  20.144  0.00  0.00    +0.000 OA
ATOM      3  N   UNL     1       2.186   7.493  19.246  0.00  0.00    +0.000 N 
ATOM      4  C   UNL     1       1.789   7.955  20.580  0.00  0.00    +0.000 C 
ATOM      5  C   UNL     1       0.763   9.050  20.521  0.00  0.00    +0.000 C 
ATOM      6  C   UNL     1       0.336   9.635  19.392  0.00  0.00    +0.000 C 
ATOM      7  C   UNL     1       0.903   9.255  18.054  0.00  0.00    +0.000 C 
ATOM      8  C   UNL     1       2.241   8.524  18.205  0.00  0.00    +0.000 C 
ENDROOT
BRANCH   6   9
ATOM      9  C   UNL     1      -0.655  10.655  19.347  0.00  0.00    +0.000 A 
ATOM     10  C   UNL     1      -0.561  11.854  20.023  0.00  0.00    +0.000 A 
ATOM     11  N   UNL     1      -1.686  12.583  19.733  0.00  0.00    +0.000 N 
ATOM     12  C   UNL     1      -2.494  11.875  18.890  0.00  0.00    +0.000 A 
ATOM     13  N   UNL     1      -3.676  12.321  18.420  0.00  0.00    +0.000 NA
ATOM     14  C   UNL     1      -4.282  11.434  17.600  0.00  0.00    +0.000 A 
ATOM     15  C   UNL     1      -3.784  10.187  17.243  0.00  0.00    +0.000 A 
ATOM     16  C   UNL     1      -2.553   9.773  17.755  0.00  0.00    +0.000 A 
ATOM     17  C   UNL     1      -1.879  10.656  18.620  0.00  0.00    +0.000 A 
ATOM     18  H   UNL     1      -1.910  13.505  20.074  0.00  0.00    +0.000 HD
ENDBRANCH   6   9
BRANCH   1  20
ATOM     19  C   UNL     1       2.542   4.285  17.479  0.00  0.00    +0.000 C 
ATOM     20  C   UNL     1       3.213   5.623  17.828  0.00  0.00    +0.000 C 
BRANCH  20  21
ATOM     21  C   UNL     1       4.729   5.656  17.636  0.00  0.00    +0.000 A 
ATOM     22  C   UNL     1       5.426   4.449  17.440  0.00  0.00    +0.000 A 
ATOM     23  C   UNL     1       6.815   4.428  17.279  0.00  0.00    +0.000 A 
ATOM     24  C   UNL     1       7.538   5.616  17.314  0.00  0.00    +0.000 A 
ATOM     25  C   UNL     1       6.864   6.821  17.464  0.00  0.00    +0.000 A 
ATOM     26 CL   UNL     1       7.747   8.297  17.519  0.00  0.00    +0.000 Cl
ATOM     27  C   UNL     1       5.473   6.845  17.586  0.00  0.00    +0.000 A 
ENDBRANCH  20  21
ENDBRANCH   1  20
TORSDOF 3
ENDMDL
MODEL 7
REMARK VINA RESULT:      -8.4      3.607      8.685
REMARK  Name = 
REMARK  4 active torsions:
REMARK  status: ('A' for Active; 'I' for Inactive)
REMARK    1  A    between atoms: C_1  and  C_2
REMARK    2  A    between atoms: C_2  and  C_3
REMARK    3  A    between atoms: C_2  and  C_20
REMARK    4  A    between atoms: C_8  and  C_9
REMARK                            x       y       z     vdW  Elec       q    Type
REMARK                         _______ _______ _______ _____ _____    ______ ____
ROOT
ATOM      1  C   UNL     1       1.025   9.191  19.905  0.00  0.00    +0.000 C 
ATOM      2  O   UNL     1       0.660   9.115  21.085  0.00  0.00    +0.000 OA
ATOM      3  N   UNL     1       1.722   8.141  19.313  0.00  0.00    +0.000 N 
ATOM      4  C   UNL     1       1.905   6.932  20.121  0.00  0.00    +0.000 C 
ATOM      5  C   UNL     1       3.114   6.146  19.703  0.00  0.00    +0.000 C 
ATOM      6  C   UNL     1       3.880   6.433  18.640  0.00  0.00    +0.000 C 
ATOM      7  C   UNL     1       3.551   7.581  17.729  0.00  0.00    +0.000 C 
ATOM      8  C   UNL     1       2.096   8.026  17.900  0.00  0.00    +0.000 C 
ENDROOT
BRANCH   6   9
ATOM      9  C   UNL     1       5.038   5.695  18.269  0.00  0.00    +0.000 A 
ATOM     10  C   UNL     1       5.875   5.064  19.166  0.00  0.00    +0.000 A 
ATOM     11  N   UNL     1       6.867   4.448  18.447  0.00  0.00    +0.000 N 
ATOM     12  C   UNL     1       6.682   4.674  17.113  0.00  0.00    +0.000 A 
ATOM     13  N   UNL     1       7.492   4.199  16.145  0.00  0.00    +0.000 NA
ATOM     14  C   UNL     1       7.092   4.559  14.906  0.00  0.00    +0.000 A 
ATOM     15  C   UNL     1       5.974   5.327  14.604  0.00  0.00    +0.000 A 
ATOM     16  C   UNL     1       5.166   5.792  15.644  0.00  0.00    +0.000 A 
ATOM     17  C   UNL     1       5.539   5.452  16.958  0.00  0.00    +0.000 A 
ATOM     18  H   UNL     1       7.630   3.903  18.820  0.00  0.00    +0.000 HD
ENDBRANCH   6   9
BRANCH   1  20
ATOM     19  C   UNL     1       1.237  11.720  19.828  0.00  0.00    +0.000 C 
ATOM     20  C   UNL     1       0.677  10.473  19.125  0.00  0.00    +0.000 C 
BRANCH  20  21
ATOM     21  C   UNL     1      -0.760  10.605  18.623  0.00  0.00    +0.000 A 
ATOM     22  C   UNL     1      -1.158   9.892  17.476  0.00  0.00    +0.000 A 
ATOM     23  C   UNL     1      -2.457   9.995  16.968  0.00  0.00    +0.000 A 
ATOM     24  C   UNL     1      -3.386  10.819  17.596  0.00  0.00    +0.000 A 
ATOM     25  C   UNL     1      -3.025  11.497  18.753  0.00  0.00    +0.000 A 
ATOM     26 CL   UNL     1      -4.162  12.527  19.534  0.00  0.00    +0.000 Cl
ATOM     27  C   UNL     1      -1.740  11.363  19.282  0.00  0.00    +0.000 A 
ENDBRANCH  20  21
ENDBRANCH   1  20
TORSDOF 3
ENDMDL
MODEL 8
REMARK VINA RESULT:      -8.3      2.056      2.804
REMARK  Name = 
REMARK  4 active torsions:
REMARK  status: ('A' for Active; 'I' for Inactive)
REMARK    1  A    between atoms: C_1  and  C_2
REMARK    2  A    between atoms: C_2  and  C_3
REMARK    3  A    between atoms: C_2  and  C_20
REMARK    4  A    between atoms: C_8  and  C_9
REMARK                            x       y       z     vdW  Elec       q    Type
REMARK                         _______ _______ _______ _____ _____    ______ ____
ROOT
ATOM      1  C   UNL     1       2.694   4.683  18.912  0.00  0.00    +0.000 C 
ATOM      2  O   UNL     1       2.438   3.821  19.763  0.00  0.00    +0.000 OA
ATOM      3  N   UNL     1       2.595   6.035  19.225  0.00  0.00    +0.000 N 
ATOM      4  C   UNL     1       2.273   6.369  20.616  0.00  0.00    +0.000 C 
ATOM      5  C   UNL     1       1.603   7.706  20.740  0.00  0.00    +0.000 C 
ATOM      6  C   UNL     1       1.420   8.565  19.726  0.00  0.00    +0.000 C 
ATOM      7  C   UNL     1       1.928   8.261  18.346  0.00  0.00    +0.000 C 
ATOM      8  C   UNL     1       2.995   7.162  18.377  0.00  0.00    +0.000 C 
ENDROOT
BRANCH   6   9
ATOM      9  C   UNL     1       0.762   9.820  19.852  0.00  0.00    +0.000 A 
ATOM     10  C   UNL     1       0.721  10.775  18.858  0.00  0.00    +0.000 A 
ATOM     11  N   UNL     1      -0.007  11.837  19.331  0.00  0.00    +0.000 N 
ATOM     12  C   UNL     1      -0.429  11.580  20.604  0.00  0.00    +0.000 A 
ATOM     13  N   UNL     1      -1.169  12.430  21.343  0.00  0.00    +0.000 NA
ATOM     14  C   UNL     1      -1.459  11.941  22.569  0.00  0.00    +0.000 A 
ATOM     15  C   UNL     1      -1.070  10.702  23.062  0.00  0.00    +0.000 A 
ATOM     16  C   UNL     1      -0.306   9.856  22.255  0.00  0.00    +0.000 A 
ATOM     17  C   UNL     1       0.032  10.318  20.968  0.00  0.00    +0.000 A 
ATOM     18  H   UNL     1      -0.217  12.690  18.836  0.00  0.00    +0.000 HD
ENDBRANCH   6   9
BRANCH   1  20
ATOM     19  C   UNL     1       2.530   2.829  17.185  0.00  0.00    +0.000 C 
ATOM     20  C   UNL     1       3.128   4.206  17.513  0.00  0.00    +0.000 C 
BRANCH  20  21
ATOM     21  C   UNL     1       4.604   4.372  17.155  0.00  0.00    +0.000 A 
ATOM     22  C   UNL     1       5.558   4.462  18.187  0.00  0.00    +0.000 A 
ATOM     23  C   UNL     1       6.918   4.632  17.910  0.00  0.00    +0.000 A 
ATOM     24  C   UNL     1       7.353   4.721  16.591  0.00  0.00    +0.000 A 
ATOM     25  C   UNL     1       6.433   4.592  15.558  0.00  0.00    +0.000 A 
ATOM     26 CL   UNL     1       6.957   4.710  13.923  0.00  0.00    +0.000 Cl
ATOM     27  C   UNL     1       5.081   4.382  15.835  0.00  0.00    +0.000 A 
ENDBRANCH  20  21
ENDBRANCH   1  20
TORSDOF 3
ENDMDL
MODEL 9
REMARK VINA RESULT:      -8.2      1.728      2.396
REMARK  Name = 
REMARK  4 active torsions:
REMARK  status: ('A' for Active; 'I' for Inactive)
REMARK    1  A    between atoms: C_1  and  C_2
REMARK    2  A    between atoms: C_2  and  C_3
REMARK    3  A    between atoms: C_2  and  C_20
REMARK    4  A    between atoms: C_8  and  C_9
REMARK                            x       y       z     vdW  Elec       q    Type
REMARK                         _______ _______ _______ _____ _____    ______ ____
ROOT
ATOM      1  C   UNL     1       2.602   4.720  19.009  0.00  0.00    +0.000 C 
ATOM      2  O   UNL     1       2.335   3.856  19.855  0.00  0.00    +0.000 OA
ATOM      3  N   UNL     1       2.488   6.071  19.320  0.00  0.00    +0.000 N 
ATOM      4  C   UNL     1       2.137   6.403  20.705  0.00  0.00    +0.000 C 
ATOM      5  C   UNL     1       1.456   7.736  20.815  0.00  0.00    +0.000 C 
ATOM      6  C   UNL     1       1.288   8.593  19.797  0.00  0.00    +0.000 C 
ATOM      7  C   UNL     1       1.824   8.292  18.427  0.00  0.00    +0.000 C 
ATOM      8  C   UNL     1       2.897   7.200  18.479  0.00  0.00    +0.000 C 
ENDROOT
BRANCH   6   9
ATOM      9  C   UNL     1       0.618   9.844  19.910  0.00  0.00    +0.000 A 
ATOM     10  C   UNL     1       0.553  10.780  18.898  0.00  0.00    +0.000 A 
ATOM     11  N   UNL     1      -0.178  11.843  19.363  0.00  0.00    +0.000 N 
ATOM     12  C   UNL     1      -0.578  11.606  20.647  0.00  0.00    +0.000 A 
ATOM     13  N   UNL     1      -1.315  12.463  21.382  0.00  0.00    +0.000 NA
ATOM     14  C   UNL     1      -1.582  11.994  22.621  0.00  0.00    +0.000 A 
ATOM     15  C   UNL     1      -1.172  10.768  23.131  0.00  0.00    +0.000 A 
ATOM     16  C   UNL     1      -0.413   9.915  22.328  0.00  0.00    +0.000 A 
ATOM     17  C   UNL     1      -0.099  10.356  21.027  0.00  0.00    +0.000 A 
ATOM     18  H   UNL     1      -0.404  12.685  18.856  0.00  0.00    +0.000 HD
ENDBRANCH   6   9
BRANCH   1  20
ATOM     19  C   UNL     1       2.451   2.882  17.263  0.00  0.00    +0.000 C 
ATOM     20  C   UNL     1       3.066   4.245  17.619  0.00  0.00    +0.000 C 
BRANCH  20  21
ATOM     21  C   UNL     1       4.555   4.385  17.305  0.00  0.00    +0.000 A 
ATOM     22  C   UNL     1       5.025   4.045  16.022  0.00  0.00    +0.000 A 
ATOM     23  C   UNL     1       6.381   4.139  15.694  0.00  0.00    +0.000 A 
ATOM     24  C   UNL     1       7.299   4.572  16.646  0.00  0.00    +0.000 A 
ATOM     25  C   UNL     1       6.850   4.952  17.904  0.00  0.00    +0.000 A 
ATOM     26 CL   UNL     1       7.975   5.480  19.094  0.00  0.00    +0.000 Cl
ATOM     27  C   UNL     1       5.490   4.896  18.219  0.00  0.00    +0.000 A 
ENDBRANCH  20  21
ENDBRANCH   1  20
TORSDOF 3
ENDMDL
