MODEL 1
REMARK VINA RESULT:      -8.0      0.000      0.000
REMARK  Name = 
REMARK  6 active torsions:
REMARK  status: ('A' for Active; 'I' for Inactive)
REMARK    1  A    between atoms: C_1  and  C_2
REMARK    2  A    between atoms: C_6  and  N_7
REMARK    3  A    between atoms: C_8  and  C_10
REMARK    4  A    between atoms: C_14  and  S_15
REMARK    5  A    between atoms: S_15  and  C_16
REMARK    6  A    between atoms: C_20  and  C_21
REMARK                            x       y       z     vdW  Elec       q    Type
REMARK                         _______ _______ _______ _____ _____    ______ ____
ROOT
ATOM      1  C   UNL     1       7.226   4.808  13.744  0.00  0.00    +0.000 C 
ATOM      2  C   UNL     1       6.270   5.045  14.879  0.00  0.00    +0.000 A 
ATOM      3  C   UNL     1       5.841   6.415  15.151  0.00  0.00    +0.000 A 
ATOM      4  C   UNL     1       4.987   6.655  16.164  0.00  0.00    +0.000 A 
ATOM      5  N   UNL     1       4.514   5.590  16.936  0.00  0.00    +0.000 N 
ATOM      6  C   UNL     1       3.721   5.569  18.079  0.00  0.00    +0.000 A 
ATOM      7  C   UNL     1       3.630   4.228  18.427  0.00  0.00    +0.000 A 
ATOM      8  N   UNL     1       4.384   3.443  17.587  0.00  0.00    +0.000 NA
ATOM      9  C   UNL     1       4.908   4.271  16.710  0.00  0.00    +0.000 A 
ATOM     10  C   UNL     1       5.810   4.024  15.635  0.00  0.00    +0.000 A 
ENDROOT
BRANCH   7  11
ATOM     11  C   UNL     1       2.853   3.671  19.527  0.00  0.00    +0.000 A 
ATOM     12  C   UNL     1       3.458   2.967  20.580  0.00  0.00    +0.000 A 
ATOM     13  C   UNL     1       2.689   2.416  21.607  0.00  0.00    +0.000 A 
ATOM     14  C   UNL     1       1.309   2.595  21.614  0.00  0.00    +0.000 A 
ATOM     15  C   UNL     1       0.698   3.330  20.598  0.00  0.00    +0.000 A 
ATOM     16  C   UNL     1       1.467   3.867  19.561  0.00  0.00    +0.000 A 
ENDBRANCH   7  11
BRANCH   6  17
ATOM     17  N   UNL     1       3.260   6.685  18.774  0.00  0.00    +0.000 N 
ATOM     18  C   UNL     1       2.100   7.333  18.380  0.00  0.00    +0.000 C 
ATOM     19  O   UNL     1       1.431   7.068  17.389  0.00  0.00    +0.000 OA
ATOM     20  H   UNL     1       3.423   6.662  19.776  0.00  0.00    +0.000 HD
BRANCH  18  21
ATOM     21  C   UNL     1       1.628   8.406  19.311  0.00  0.00    +0.000 A 
ATOM     22  C   UNL     1       1.448   8.153  20.679  0.00  0.00    +0.000 A 
ATOM     23  C   UNL     1       1.091   9.188  21.548  0.00  0.00    +0.000 A 
ATOM     24  C   UNL     1       0.917  10.482  21.062  0.00  0.00    +0.000 A 
ATOM     25  C   UNL     1       1.086  10.733  19.698  0.00  0.00    +0.000 A 
ATOM     26  C   UNL     1       1.426   9.702  18.814  0.00  0.00    +0.000 A 
BRANCH  25  27
ATOM     27  S   UNL     1       0.872  12.389  19.082  0.00  0.00    +0.000 S 
ATOM     28  C   UNL     1       0.941  13.412  20.528  0.00  0.00    +0.000 C 
ATOM     29  O   UNL     1       2.024  12.675  18.251  0.00  0.00    +0.000 OA
ATOM     30  O   UNL     1      -0.476  12.485  18.550  0.00  0.00    +0.000 OA
ENDBRANCH  25  27
ENDBRANCH  18  21
ENDBRANCH   6  17
TORSDOF 4
ENDMDL
MODEL 2
REMARK VINA RESULT:      -8.0      0.679      1.272
REMARK  Name = 
REMARK  6 active torsions:
REMARK  status: ('A' for Active; 'I' for Inactive)
REMARK    1  A    between atoms: C_1  and  C_2
REMARK    2  A    between atoms: C_6  and  N_7
REMARK    3  A    between atoms: C_8  and  C_10
REMARK    4  A    between atoms: C_14  and  S_15
REMARK    5  A    between atoms: S_15  and  C_16
REMARK    6  A    between atoms: C_20  and  C_21
REMARK                            x       y       z     vdW  Elec       q    Type
REMARK                         _______ _______ _______ _____ _____    ______ ____
ROOT
ATOM      1  C   UNL     1       7.225   4.966  13.855  0.00  0.00    +0.000 C 
ATOM      2  C   UNL     1       6.259   5.156  14.989  0.00  0.00    +0.000 A 
ATOM      3  C   UNL     1       5.823   6.514  15.309  0.00  0.00    +0.000 A 
ATOM      4  C   UNL     1       4.960   6.713  16.323  0.00  0.00    +0.000 A 
ATOM      5  N   UNL     1       4.484   5.618  17.050  0.00  0.00    +0.000 N 
ATOM      6  C   UNL     1       3.681   5.551  18.184  0.00  0.00    +0.000 A 
ATOM      7  C   UNL     1       3.592   4.198  18.481  0.00  0.00    +0.000 A 
ATOM      8  N   UNL     1       4.355   3.448  17.619  0.00  0.00    +0.000 NA
ATOM      9  C   UNL     1       4.884   4.310  16.778  0.00  0.00    +0.000 A 
ATOM     10  C   UNL     1       5.796   4.107  15.703  0.00  0.00    +0.000 A 
ENDROOT
BRANCH   7  11
ATOM     11  C   UNL     1       2.808   3.598  19.553  0.00  0.00    +0.000 A 
ATOM     12  C   UNL     1       1.408   3.694  19.591  0.00  0.00    +0.000 A 
ATOM     13  C   UNL     1       0.681   3.137  20.645  0.00  0.00    +0.000 A 
ATOM     14  C   UNL     1       1.342   2.443  21.655  0.00  0.00    +0.000 A 
ATOM     15  C   UNL     1       2.728   2.301  21.607  0.00  0.00    +0.000 A 
ATOM     16  C   UNL     1       3.457   2.874  20.560  0.00  0.00    +0.000 A 
ENDBRANCH   7  11
BRANCH   6  17
ATOM     17  N   UNL     1       3.210   6.640  18.917  0.00  0.00    +0.000 N 
ATOM     18  C   UNL     1       2.195   7.440  18.420  0.00  0.00    +0.000 C 
ATOM     19  O   UNL     1       1.681   7.343  17.312  0.00  0.00    +0.000 OA
ATOM     20  H   UNL     1       3.201   6.504  19.924  0.00  0.00    +0.000 HD
BRANCH  18  21
ATOM     21  C   UNL     1       1.670   8.464  19.377  0.00  0.00    +0.000 A 
ATOM     22  C   UNL     1       1.594   8.200  20.753  0.00  0.00    +0.000 A 
ATOM     23  C   UNL     1       1.183   9.198  21.642  0.00  0.00    +0.000 A 
ATOM     24  C   UNL     1       0.853  10.466  21.168  0.00  0.00    +0.000 A 
ATOM     25  C   UNL     1       0.919  10.727  19.797  0.00  0.00    +0.000 A 
ATOM     26  C   UNL     1       1.312   9.731  18.894  0.00  0.00    +0.000 A 
BRANCH  25  27
ATOM     27  S   UNL     1       0.506  12.350  19.197  0.00  0.00    +0.000 S 
ATOM     28  C   UNL     1      -0.965  12.106  18.238  0.00  0.00    +0.000 C 
ATOM     29  O   UNL     1       0.181  13.153  20.358  0.00  0.00    +0.000 OA
ATOM     30  O   UNL     1       1.556  12.754  18.278  0.00  0.00    +0.000 OA
ENDBRANCH  25  27
ENDBRANCH  18  21
ENDBRANCH   6  17
TORSDOF 4
ENDMDL
MODEL 3
REMARK VINA RESULT:      -7.7      3.962      8.934
REMARK  Name = 
REMARK  6 active torsions:
REMARK  status: ('A' for Active; 'I' for Inactive)
REMARK    1  A    between atoms: C_1  and  C_2
REMARK    2  A    between atoms: C_6  and  N_7
REMARK    3  A    between atoms: C_8  and  C_10
REMARK    4  A    between atoms: C_14  and  S_15
REMARK    5  A    between atoms: S_15  and  C_16
REMARK    6  A    between atoms: C_20  and  C_21
REMARK                            x       y       z     vdW  Elec       q    Type
REMARK                         _______ _______ _______ _____ _____    ______ ____
ROOT
ATOM      1  C   UNL     1      -5.733  11.030  18.012  0.00  0.00    +0.000 C 
ATOM      2  C   UNL     1      -4.232  10.999  18.029  0.00  0.00    +0.000 A 
ATOM      3  C   UNL     1      -3.555   9.817  17.497  0.00  0.00    +0.000 A 
ATOM      4  C   UNL     1      -2.210   9.763  17.503  0.00  0.00    +0.000 A 
ATOM      5  N   UNL     1      -1.477  10.841  18.008  0.00  0.00    +0.000 N 
ATOM      6  C   UNL     1      -0.112  11.001  18.221  0.00  0.00    +0.000 A 
ATOM      7  C   UNL     1       0.018  12.259  18.794  0.00  0.00    +0.000 A 
ATOM      8  N   UNL     1      -1.211  12.841  18.999  0.00  0.00    +0.000 NA
ATOM      9  C   UNL     1      -2.089  11.980  18.531  0.00  0.00    +0.000 A 
ATOM     10  C   UNL     1      -3.512  12.032  18.520  0.00  0.00    +0.000 A 
ENDROOT
BRANCH   7  11
ATOM     11  C   UNL     1       1.265  12.922  19.152  0.00  0.00    +0.000 A 
ATOM     12  C   UNL     1       2.089  13.522  18.187  0.00  0.00    +0.000 A 
ATOM     13  C   UNL     1       3.295  14.124  18.552  0.00  0.00    +0.000 A 
ATOM     14  C   UNL     1       3.673  14.168  19.891  0.00  0.00    +0.000 A 
ATOM     15  C   UNL     1       2.843  13.615  20.865  0.00  0.00    +0.000 A 
ATOM     16  C   UNL     1       1.644  12.997  20.498  0.00  0.00    +0.000 A 
ENDBRANCH   7  11
BRANCH   6  17
ATOM     17  N   UNL     1       0.865  10.027  18.022  0.00  0.00    +0.000 N 
ATOM     18  C   UNL     1       1.217   9.160  19.043  0.00  0.00    +0.000 C 
ATOM     19  O   UNL     1       0.797   9.197  20.194  0.00  0.00    +0.000 OA
ATOM     20  H   UNL     1       0.885   9.626  17.089  0.00  0.00    +0.000 HD
BRANCH  18  21
ATOM     21  C   UNL     1       2.150   8.059  18.646  0.00  0.00    +0.000 A 
ATOM     22  C   UNL     1       3.125   8.255  17.657  0.00  0.00    +0.000 A 
ATOM     23  C   UNL     1       4.044   7.244  17.361  0.00  0.00    +0.000 A 
ATOM     24  C   UNL     1       4.003   6.035  18.053  0.00  0.00    +0.000 A 
ATOM     25  C   UNL     1       3.026   5.835  19.031  0.00  0.00    +0.000 A 
ATOM     26  C   UNL     1       2.088   6.832  19.325  0.00  0.00    +0.000 A 
BRANCH  25  27
ATOM     27  S   UNL     1       2.982   4.293  19.918  0.00  0.00    +0.000 S 
ATOM     28  C   UNL     1       1.800   3.308  19.036  0.00  0.00    +0.000 C 
ATOM     29  O   UNL     1       4.292   3.692  19.774  0.00  0.00    +0.000 OA
ATOM     30  O   UNL     1       2.422   4.563  21.231  0.00  0.00    +0.000 OA
ENDBRANCH  25  27
ENDBRANCH  18  21
ENDBRANCH   6  17
TORSDOF 4
ENDMDL
MODEL 4
REMARK VINA RESULT:      -7.6      3.966      8.969
REMARK  Name = 
REMARK  6 active torsions:
REMARK  status: ('A' for Active; 'I' for Inactive)
REMARK    1  A    between atoms: C_1  and  C_2
REMARK    2  A    between atoms: C_6  and  N_7
REMARK    3  A    between atoms: C_8  and  C_10
REMARK    4  A    between atoms: C_14  and  S_15
REMARK    5  A    between atoms: S_15  and  C_16
REMARK    6  A    between atoms: C_20  and  C_21
REMARK                            x       y       z     vdW  Elec       q    Type
REMARK                         _______ _______ _______ _____ _____    ______ ____
ROOT
ATOM      1  C   UNL     1      -5.907  11.063  18.225  0.00  0.00    +0.000 C 
ATOM      2  C   UNL     1      -4.405  11.022  18.201  0.00  0.00    +0.000 A 
ATOM      3  C   UNL     1      -3.752   9.853  17.617  0.00  0.00    +0.000 A 
ATOM      4  C   UNL     1      -2.407   9.790  17.585  0.00  0.00    +0.000 A 
ATOM      5  N   UNL     1      -1.654  10.848  18.102  0.00  0.00    +0.000 N 
ATOM      6  C   UNL     1      -0.282  10.993  18.283  0.00  0.00    +0.000 A 
ATOM      7  C   UNL     1      -0.129  12.232  18.889  0.00  0.00    +0.000 A 
ATOM      8  N   UNL     1      -1.347  12.816  19.143  0.00  0.00    +0.000 NA
ATOM      9  C   UNL     1      -2.243  11.975  18.674  0.00  0.00    +0.000 A 
ATOM     10  C   UNL     1      -3.666  12.036  18.702  0.00  0.00    +0.000 A 
ENDROOT
BRANCH   7  11
ATOM     11  C   UNL     1       1.132  12.877  19.233  0.00  0.00    +0.000 A 
ATOM     12  C   UNL     1       1.536  13.050  20.566  0.00  0.00    +0.000 A 
ATOM     13  C   UNL     1       2.735  13.699  20.872  0.00  0.00    +0.000 A 
ATOM     14  C   UNL     1       3.563  14.148  19.846  0.00  0.00    +0.000 A 
ATOM     15  C   UNL     1       3.195  13.944  18.517  0.00  0.00    +0.000 A 
ATOM     16  C   UNL     1       1.987  13.309  18.212  0.00  0.00    +0.000 A 
ENDBRANCH   7  11
BRANCH   6  17
ATOM     17  N   UNL     1       0.683  10.019  18.030  0.00  0.00    +0.000 N 
ATOM     18  C   UNL     1       1.173   9.227  19.055  0.00  0.00    +0.000 C 
ATOM     19  O   UNL     1       0.896   9.337  20.243  0.00  0.00    +0.000 OA
ATOM     20  H   UNL     1       0.597   9.557  17.130  0.00  0.00    +0.000 HD
BRANCH  18  21
ATOM     21  C   UNL     1       2.072   8.112  18.620  0.00  0.00    +0.000 A 
ATOM     22  C   UNL     1       3.076   8.321  17.662  0.00  0.00    +0.000 A 
ATOM     23  C   UNL     1       3.963   7.292  17.331  0.00  0.00    +0.000 A 
ATOM     24  C   UNL     1       3.860   6.052  17.957  0.00  0.00    +0.000 A 
ATOM     25  C   UNL     1       2.855   5.839  18.904  0.00  0.00    +0.000 A 
ATOM     26  C   UNL     1       1.949   6.856  19.231  0.00  0.00    +0.000 A 
BRANCH  25  27
ATOM     27  S   UNL     1       2.733   4.257  19.708  0.00  0.00    +0.000 S 
ATOM     28  C   UNL     1       4.342   3.537  19.516  0.00  0.00    +0.000 C 
ATOM     29  O   UNL     1       2.503   4.521  21.114  0.00  0.00    +0.000 OA
ATOM     30  O   UNL     1       1.806   3.448  18.938  0.00  0.00    +0.000 OA
ENDBRANCH  25  27
ENDBRANCH  18  21
ENDBRANCH   6  17
TORSDOF 4
ENDMDL
MODEL 5
REMARK VINA RESULT:      -7.6      3.901      8.925
REMARK  Name = 
REMARK  6 active torsions:
REMARK  status: ('A' for Active; 'I' for Inactive)
REMARK    1  A    between atoms: C_1  and  C_2
REMARK    2  A    between atoms: C_6  and  N_7
REMARK    3  A    between atoms: C_8  and  C_10
REMARK    4  A    between atoms: C_14  and  S_15
REMARK    5  A    between atoms: S_15  and  C_16
REMARK    6  A    between atoms: C_20  and  C_21
REMARK                            x       y       z     vdW  Elec       q    Type
REMARK                         _______ _______ _______ _____ _____    ______ ____
ROOT
ATOM      1  C   UNL     1      -5.747  10.912  18.206  0.00  0.00    +0.000 C 
ATOM      2  C   UNL     1      -4.246  10.903  18.150  0.00  0.00    +0.000 A 
ATOM      3  C   UNL     1      -3.582   9.764  17.519  0.00  0.00    +0.000 A 
ATOM      4  C   UNL     1      -2.237   9.730  17.458  0.00  0.00    +0.000 A 
ATOM      5  N   UNL     1      -1.494  10.788  17.990  0.00  0.00    +0.000 N 
ATOM      6  C   UNL     1      -0.122  10.955  18.147  0.00  0.00    +0.000 A 
ATOM      7  C   UNL     1       0.019  12.180  18.786  0.00  0.00    +0.000 A 
ATOM      8  N   UNL     1      -1.205  12.731  19.082  0.00  0.00    +0.000 NA
ATOM      9  C   UNL     1      -2.094  11.886  18.607  0.00  0.00    +0.000 A 
ATOM     10  C   UNL     1      -3.517  11.917  18.666  0.00  0.00    +0.000 A 
ENDROOT
BRANCH   7  11
ATOM     11  C   UNL     1       1.273  12.840  19.123  0.00  0.00    +0.000 A 
ATOM     12  C   UNL     1       1.689  13.008  20.453  0.00  0.00    +0.000 A 
ATOM     13  C   UNL     1       2.881  13.672  20.752  0.00  0.00    +0.000 A 
ATOM     14  C   UNL     1       3.691  14.141  19.722  0.00  0.00    +0.000 A 
ATOM     15  C   UNL     1       3.313  13.944  18.395  0.00  0.00    +0.000 A 
ATOM     16  C   UNL     1       2.111  13.294  18.097  0.00  0.00    +0.000 A 
ENDBRANCH   7  11
BRANCH   6  17
ATOM     17  N   UNL     1       0.856  10.009  17.846  0.00  0.00    +0.000 N 
ATOM     18  C   UNL     1       1.255   9.080  18.792  0.00  0.00    +0.000 C 
ATOM     19  O   UNL     1       0.879   9.034  19.957  0.00  0.00    +0.000 OA
ATOM     20  H   UNL     1       0.844   9.673  16.887  0.00  0.00    +0.000 HD
BRANCH  18  21
ATOM     21  C   UNL     1       2.183   8.020  18.286  0.00  0.00    +0.000 A 
ATOM     22  C   UNL     1       3.375   8.353  17.626  0.00  0.00    +0.000 A 
ATOM     23  C   UNL     1       4.272   7.353  17.238  0.00  0.00    +0.000 A 
ATOM     24  C   UNL     1       3.990   6.016  17.511  0.00  0.00    +0.000 A 
ATOM     25  C   UNL     1       2.799   5.682  18.159  0.00  0.00    +0.000 A 
ATOM     26  C   UNL     1       1.883   6.673  18.537  0.00  0.00    +0.000 A 
BRANCH  25  27
ATOM     27  S   UNL     1       2.447   3.974  18.514  0.00  0.00    +0.000 S 
ATOM     28  C   UNL     1       1.318   4.029  19.880  0.00  0.00    +0.000 C 
ATOM     29  O   UNL     1       1.755   3.443  17.357  0.00  0.00    +0.000 OA
ATOM     30  O   UNL     1       3.675   3.368  18.995  0.00  0.00    +0.000 OA
ENDBRANCH  25  27
ENDBRANCH  18  21
ENDBRANCH   6  17
TORSDOF 4
ENDMDL
MODEL 6
REMARK VINA RESULT:      -7.5      3.733      8.486
REMARK  Name = 
REMARK  6 active torsions:
REMARK  status: ('A' for Active; 'I' for Inactive)
REMARK    1  A    between atoms: C_1  and  C_2
REMARK    2  A    between atoms: C_6  and  N_7
REMARK    3  A    between atoms: C_8  and  C_10
REMARK    4  A    between atoms: C_14  and  S_15
REMARK    5  A    between atoms: S_15  and  C_16
REMARK    6  A    between atoms: C_20  and  C_21
REMARK                            x       y       z     vdW  Elec       q    Type
REMARK                         _______ _______ _______ _____ _____    ______ ____
ROOT
ATOM      1  C   UNL     1       3.010  16.518  19.999  0.00  0.00    +0.000 C 
ATOM      2  C   UNL     1       2.307  15.198  19.857  0.00  0.00    +0.000 A 
ATOM      3  C   UNL     1       2.908  14.021  20.481  0.00  0.00    +0.000 A 
ATOM      4  C   UNL     1       2.300  12.825  20.366  0.00  0.00    +0.000 A 
ATOM      5  N   UNL     1       1.097  12.727  19.661  0.00  0.00    +0.000 N 
ATOM      6  C   UNL     1       0.329  11.621  19.312  0.00  0.00    +0.000 A 
ATOM      7  C   UNL     1      -0.724  12.136  18.567  0.00  0.00    +0.000 A 
ATOM      8  N   UNL     1      -0.593  13.493  18.393  0.00  0.00    +0.000 NA
ATOM      9  C   UNL     1       0.500  13.827  19.045  0.00  0.00    +0.000 A 
ATOM     10  C   UNL     1       1.147  15.089  19.173  0.00  0.00    +0.000 A 
ENDROOT
BRANCH   7  11
ATOM     11  C   UNL     1      -1.844  11.384  18.017  0.00  0.00    +0.000 A 
ATOM     12  C   UNL     1      -3.163  11.600  18.444  0.00  0.00    +0.000 A 
ATOM     13  C   UNL     1      -4.217  10.845  17.925  0.00  0.00    +0.000 A 
ATOM     14  C   UNL     1      -3.968   9.889  16.943  0.00  0.00    +0.000 A 
ATOM     15  C   UNL     1      -2.668   9.693  16.478  0.00  0.00    +0.000 A 
ATOM     16  C   UNL     1      -1.612  10.438  17.011  0.00  0.00    +0.000 A 
ENDBRANCH   7  11
BRANCH   6  17
ATOM     17  N   UNL     1       0.658  10.288  19.554  0.00  0.00    +0.000 N 
ATOM     18  C   UNL     1       1.490   9.598  18.689  0.00  0.00    +0.000 C 
ATOM     19  O   UNL     1       1.941  10.024  17.632  0.00  0.00    +0.000 OA
ATOM     20  H   UNL     1       0.754  10.043  20.534  0.00  0.00    +0.000 HD
BRANCH  18  21
ATOM     21  C   UNL     1       1.898   8.235  19.155  0.00  0.00    +0.000 A 
ATOM     22  C   UNL     1       1.462   7.729  20.388  0.00  0.00    +0.000 A 
ATOM     23  C   UNL     1       1.780   6.422  20.769  0.00  0.00    +0.000 A 
ATOM     24  C   UNL     1       2.528   5.608  19.920  0.00  0.00    +0.000 A 
ATOM     25  C   UNL     1       2.971   6.114  18.695  0.00  0.00    +0.000 A 
ATOM     26  C   UNL     1       2.674   7.428  18.311  0.00  0.00    +0.000 A 
BRANCH  25  27
ATOM     27  S   UNL     1       3.918   5.069  17.610  0.00  0.00    +0.000 S 
ATOM     28  C   UNL     1       5.161   4.357  18.654  0.00  0.00    +0.000 C 
ATOM     29  O   UNL     1       3.026   4.019  17.161  0.00  0.00    +0.000 OA
ATOM     30  O   UNL     1       4.597   5.931  16.659  0.00  0.00    +0.000 OA
ENDBRANCH  25  27
ENDBRANCH  18  21
ENDBRANCH   6  17
TORSDOF 4
ENDMDL
MODEL 7
REMARK VINA RESULT:      -7.3      1.853      2.432
REMARK  Name = 
REMARK  6 active torsions:
REMARK  status: ('A' for Active; 'I' for Inactive)
REMARK    1  A    between atoms: C_1  and  C_2
REMARK    2  A    between atoms: C_6  and  N_7
REMARK    3  A    between atoms: C_8  and  C_10
REMARK    4  A    between atoms: C_14  and  S_15
REMARK    5  A    between atoms: S_15  and  C_16
REMARK    6  A    between atoms: C_20  and  C_21
REMARK                            x       y       z     vdW  Elec       q    Type
REMARK                         _______ _______ _______ _____ _____    ______ ____
ROOT
ATOM      1  C   UNL     1       7.366   4.834  13.894  0.00  0.00    +0.000 C 
ATOM      2  C   UNL     1       6.339   5.074  14.964  0.00  0.00    +0.000 A 
ATOM      3  C   UNL     1       5.829   6.431  15.144  0.00  0.00    +0.000 A 
ATOM      4  C   UNL     1       4.910   6.674  16.098  0.00  0.00    +0.000 A 
ATOM      5  N   UNL     1       4.448   5.623  16.896  0.00  0.00    +0.000 N 
ATOM      6  C   UNL     1       3.596   5.615  17.995  0.00  0.00    +0.000 A 
ATOM      7  C   UNL     1       3.553   4.289  18.405  0.00  0.00    +0.000 A 
ATOM      8  N   UNL     1       4.389   3.506  17.647  0.00  0.00    +0.000 NA
ATOM      9  C   UNL     1       4.919   4.318  16.758  0.00  0.00    +0.000 A 
ATOM     10  C   UNL     1       5.890   4.067  15.746  0.00  0.00    +0.000 A 
ENDROOT
BRANCH   7  11
ATOM     11  C   UNL     1       2.746   3.746  19.490  0.00  0.00    +0.000 A 
ATOM     12  C   UNL     1       1.344   3.831  19.486  0.00  0.00    +0.000 A 
ATOM     13  C   UNL     1       0.594   3.330  20.553  0.00  0.00    +0.000 A 
ATOM     14  C   UNL     1       1.235   2.702  21.618  0.00  0.00    +0.000 A 
ATOM     15  C   UNL     1       2.623   2.571  21.615  0.00  0.00    +0.000 A 
ATOM     16  C   UNL     1       3.374   3.089  20.555  0.00  0.00    +0.000 A 
ENDBRANCH   7  11
BRANCH   6  17
ATOM     17  N   UNL     1       3.042   6.738  18.608  0.00  0.00    +0.000 N 
ATOM     18  C   UNL     1       2.636   7.826  17.854  0.00  0.00    +0.000 C 
ATOM     19  O   UNL     1       2.781   7.957  16.645  0.00  0.00    +0.000 OA
ATOM     20  H   UNL     1       2.472   6.541  19.425  0.00  0.00    +0.000 HD
BRANCH  18  21
ATOM     21  C   UNL     1       1.905   8.887  18.616  0.00  0.00    +0.000 A 
ATOM     22  C   UNL     1       1.509  10.083  17.999  0.00  0.00    +0.000 A 
ATOM     23  C   UNL     1       0.752  11.024  18.701  0.00  0.00    +0.000 A 
ATOM     24  C   UNL     1       0.377  10.778  20.020  0.00  0.00    +0.000 A 
ATOM     25  C   UNL     1       0.779   9.592  20.640  0.00  0.00    +0.000 A 
ATOM     26  C   UNL     1       1.553   8.649  19.953  0.00  0.00    +0.000 A 
BRANCH  25  27
ATOM     27  S   UNL     1       0.291   9.277  22.322  0.00  0.00    +0.000 S 
ATOM     28  C   UNL     1      -0.655  10.704  22.783  0.00  0.00    +0.000 C 
ATOM     29  O   UNL     1      -0.586   8.124  22.292  0.00  0.00    +0.000 OA
ATOM     30  O   UNL     1       1.496   9.279  23.132  0.00  0.00    +0.000 OA
ENDBRANCH  25  27
ENDBRANCH  18  21
ENDBRANCH   6  17
TORSDOF 4
ENDMDL
MODEL 8
REMARK VINA RESULT:      -7.2      2.047      2.320
REMARK  Name = 
REMARK  6 active torsions:
REMARK  status: ('A' for Active; 'I' for Inactive)
REMARK    1  A    between atoms: C_1  and  C_2
REMARK    2  A    between atoms: C_6  and  N_7
REMARK    3  A    between atoms: C_8  and  C_10
REMARK    4  A    between atoms: C_14  and  S_15
REMARK    5  A    between atoms: S_15  and  C_16
REMARK    6  A    between atoms: C_20  and  C_21
REMARK                            x       y       z     vdW  Elec       q    Type
REMARK                         _______ _______ _______ _____ _____    ______ ____
ROOT
ATOM      1  C   UNL     1       7.682   4.686  13.673  0.00  0.00    +0.000 C 
ATOM      2  C   UNL     1       6.549   4.853  14.646  0.00  0.00    +0.000 A 
ATOM      3  C   UNL     1       5.776   6.092  14.605  0.00  0.00    +0.000 A 
ATOM      4  C   UNL     1       4.757   6.268  15.469  0.00  0.00    +0.000 A 
ATOM      5  N   UNL     1       4.447   5.260  16.386  0.00  0.00    +0.000 N 
ATOM      6  C   UNL     1       3.531   5.225  17.432  0.00  0.00    +0.000 A 
ATOM      7  C   UNL     1       3.712   3.982  18.025  0.00  0.00    +0.000 A 
ATOM      8  N   UNL     1       4.739   3.291  17.429  0.00  0.00    +0.000 NA
ATOM      9  C   UNL     1       5.169   4.069  16.459  0.00  0.00    +0.000 A 
ATOM     10  C   UNL     1       6.243   3.888  15.542  0.00  0.00    +0.000 A 
ENDROOT
BRANCH   7  11
ATOM     11  C   UNL     1       2.944   3.435  19.136  0.00  0.00    +0.000 A 
ATOM     12  C   UNL     1       3.564   2.952  20.299  0.00  0.00    +0.000 A 
ATOM     13  C   UNL     1       2.808   2.403  21.338  0.00  0.00    +0.000 A 
ATOM     14  C   UNL     1       1.420   2.365  21.241  0.00  0.00    +0.000 A 
ATOM     15  C   UNL     1       0.787   2.881  20.111  0.00  0.00    +0.000 A 
ATOM     16  C   UNL     1       1.546   3.415  19.064  0.00  0.00    +0.000 A 
ENDBRANCH   7  11
BRANCH   6  17
ATOM     17  N   UNL     1       2.727   6.284  17.851  0.00  0.00    +0.000 N 
ATOM     18  C   UNL     1       2.892   6.842  19.107  0.00  0.00    +0.000 C 
ATOM     19  O   UNL     1       3.659   6.444  19.976  0.00  0.00    +0.000 OA
ATOM     20  H   UNL     1       2.466   6.937  17.118  0.00  0.00    +0.000 HD
BRANCH  18  21
ATOM     21  C   UNL     1       2.085   8.077  19.362  0.00  0.00    +0.000 A 
ATOM     22  C   UNL     1       1.822   8.997  18.337  0.00  0.00    +0.000 A 
ATOM     23  C   UNL     1       0.994  10.099  18.571  0.00  0.00    +0.000 A 
ATOM     24  C   UNL     1       0.417  10.287  19.825  0.00  0.00    +0.000 A 
ATOM     25  C   UNL     1       0.685   9.377  20.850  0.00  0.00    +0.000 A 
ATOM     26  C   UNL     1       1.528   8.279  20.634  0.00  0.00    +0.000 A 
BRANCH  25  27
ATOM     27  S   UNL     1      -0.061   9.615  22.447  0.00  0.00    +0.000 S 
ATOM     28  C   UNL     1      -0.833  11.207  22.342  0.00  0.00    +0.000 C 
ATOM     29  O   UNL     1      -1.090   8.604  22.581  0.00  0.00    +0.000 OA
ATOM     30  O   UNL     1       1.014   9.722  23.418  0.00  0.00    +0.000 OA
ENDBRANCH  25  27
ENDBRANCH  18  21
ENDBRANCH   6  17
TORSDOF 4
ENDMDL
MODEL 9
REMARK VINA RESULT:      -7.1      7.494     10.334
REMARK  Name = 
REMARK  6 active torsions:
REMARK  status: ('A' for Active; 'I' for Inactive)
REMARK    1  A    between atoms: C_1  and  C_2
REMARK    2  A    between atoms: C_6  and  N_7
REMARK    3  A    between atoms: C_8  and  C_10
REMARK    4  A    between atoms: C_14  and  S_15
REMARK    5  A    between atoms: S_15  and  C_16
REMARK    6  A    between atoms: C_20  and  C_21
REMARK                            x       y       z     vdW  Elec       q    Type
REMARK                         _______ _______ _______ _____ _____    ______ ____
ROOT
ATOM      1  C   UNL     1      -7.460  13.759  23.625  0.00  0.00    +0.000 C 
ATOM      2  C   UNL     1      -6.333  13.446  22.683  0.00  0.00    +0.000 A 
ATOM      3  C   UNL     1      -4.999  13.950  23.005  0.00  0.00    +0.000 A 
ATOM      4  C   UNL     1      -3.972  13.686  22.175  0.00  0.00    +0.000 A 
ATOM      5  N   UNL     1      -4.191  12.927  21.023  0.00  0.00    +0.000 N 
ATOM      6  C   UNL     1      -3.347  12.600  19.967  0.00  0.00    +0.000 A 
ATOM      7  C   UNL     1      -4.137  11.872  19.087  0.00  0.00    +0.000 A 
ATOM      8  N   UNL     1      -5.436  11.798  19.530  0.00  0.00    +0.000 NA
ATOM      9  C   UNL     1      -5.452  12.437  20.680  0.00  0.00    +0.000 A 
ATOM     10  C   UNL     1      -6.534  12.718  21.562  0.00  0.00    +0.000 A 
ENDROOT
BRANCH   7  11
ATOM     11  C   UNL     1      -3.699  11.247  17.846  0.00  0.00    +0.000 A 
ATOM     12  C   UNL     1      -4.313  11.530  16.616  0.00  0.00    +0.000 A 
ATOM     13  C   UNL     1      -3.896  10.894  15.445  0.00  0.00    +0.000 A 
ATOM     14  C   UNL     1      -2.832   9.997  15.483  0.00  0.00    +0.000 A 
ATOM     15  C   UNL     1      -2.184   9.738  16.689  0.00  0.00    +0.000 A 
ATOM     16  C   UNL     1      -2.614  10.362  17.865  0.00  0.00    +0.000 A 
ENDBRANCH   7  11
BRANCH   6  17
ATOM     17  N   UNL     1      -2.038  13.049  19.798  0.00  0.00    +0.000 N 
ATOM     18  C   UNL     1      -0.974  12.349  20.343  0.00  0.00    +0.000 C 
ATOM     19  O   UNL     1      -1.058  11.360  21.061  0.00  0.00    +0.000 OA
ATOM     20  H   UNL     1      -1.851  13.493  18.904  0.00  0.00    +0.000 HD
BRANCH  18  21
ATOM     21  C   UNL     1       0.381  12.843  19.944  0.00  0.00    +0.000 A 
ATOM     22  C   UNL     1       0.796  12.820  18.604  0.00  0.00    +0.000 A 
ATOM     23  C   UNL     1       2.030  13.366  18.237  0.00  0.00    +0.000 A 
ATOM     24  C   UNL     1       2.853  13.945  19.201  0.00  0.00    +0.000 A 
ATOM     25  C   UNL     1       2.446  13.959  20.537  0.00  0.00    +0.000 A 
ATOM     26  C   UNL     1       1.220  13.399  20.920  0.00  0.00    +0.000 A 
BRANCH  25  27
ATOM     27  S   UNL     1       3.496  14.707  21.763  0.00  0.00    +0.000 S 
ATOM     28  C   UNL     1       4.482  15.866  20.854  0.00  0.00    +0.000 C 
ATOM     29  O   UNL     1       2.629  15.436  22.665  0.00  0.00    +0.000 OA
ATOM     30  O   UNL     1       4.391  13.675  22.256  0.00  0.00    +0.000 OA
ENDBRANCH  25  27
ENDBRANCH  18  21
ENDBRANCH   6  17
TORSDOF 4
ENDMDL
