MODEL 1
REMARK VINA RESULT:      -8.5      0.000      0.000
REMARK  Name = 
REMARK  5 active torsions:
REMARK  status: ('A' for Active; 'I' for Inactive)
REMARK    1  A    between atoms: C_2  and  C_3
REMARK    2  A    between atoms: C_3  and  C_4
REMARK    3  A    between atoms: N_15  and  C_16
REMARK    4  A    between atoms: C_20  and  S_21
REMARK    5  A    between atoms: S_21  and  N_24
REMARK                            x       y       z     vdW  Elec       q    Type
REMARK                         _______ _______ _______ _____ _____    ______ ____
ROOT
ATOM      1  O   UNL     1       0.928   5.481  20.587  0.00  0.00    +0.000 OA
ATOM      2  C   UNL     1       2.071   5.919  20.447  0.00  0.00    +0.000 C 
ATOM      3  N   UNL     1       2.415   7.257  20.505  0.00  0.00    +0.000 N 
ATOM      4  H   UNL     1       3.178   7.556  19.910  0.00  0.00    +0.000 HD
ENDROOT
BRANCH   3   5
ATOM      5  C   UNL     1       1.452   8.246  20.807  0.00  0.00    +0.000 A 
ATOM      6  C   UNL     1       0.827   8.319  22.056  0.00  0.00    +0.000 A 
ATOM      7  C   UNL     1      -0.225   9.213  22.270  0.00  0.00    +0.000 A 
ATOM      8  C   UNL     1      -0.677  10.019  21.226  0.00  0.00    +0.000 A 
ATOM      9  C   UNL     1      -0.025   9.968  19.990  0.00  0.00    +0.000 A 
ATOM     10  C   UNL     1       1.088   9.138  19.806  0.00  0.00    +0.000 A 
BRANCH   9  11
ATOM     11  S   UNL     1      -0.551  11.003  18.651  0.00  0.00    +0.000 S 
ATOM     12  O   UNL     1      -0.957  10.137  17.561  0.00  0.00    +0.000 OA
ATOM     13  O   UNL     1      -1.469  11.998  19.167  0.00  0.00    +0.000 OA
BRANCH  11  14
ATOM     14  N   UNL     1       0.820  11.787  18.102  0.00  0.00    +0.000 N 
ATOM     15  C   UNL     1       1.565  12.712  18.829  0.00  0.00    +0.000 C 
ATOM     16  N   UNL     1       1.618  12.713  20.115  0.00  0.00    +0.000 NA
ATOM     17  C   UNL     1       2.493  13.833  20.489  0.00  0.00    +0.000 C 
ATOM     18  C   UNL     1       3.257  14.210  19.232  0.00  0.00    +0.000 C 
ATOM     19  C   UNL     1       2.343  13.764  18.113  0.00  0.00    +0.000 C 
ATOM     20  H   UNL     1       0.901  11.725  17.091  0.00  0.00    +0.000 HD
ENDBRANCH  11  14
ENDBRANCH   9  11
ENDBRANCH   3   5
BRANCH   2  21
ATOM     21  C   UNL     1       3.217   4.950  20.268  0.00  0.00    +0.000 C 
BRANCH  21  22
ATOM     22  C   UNL     1       3.085   3.934  19.134  0.00  0.00    +0.000 C 
ATOM     23  S   UNL     1       3.065   4.807  17.522  0.00  0.00    +0.000 S 
ATOM     24  C   UNL     1       4.754   5.380  17.595  0.00  0.00    +0.000 A 
ATOM     25  C   UNL     1       5.061   6.656  17.117  0.00  0.00    +0.000 A 
ATOM     26  C   UNL     1       6.342   7.174  17.301  0.00  0.00    +0.000 A 
ATOM     27  C   UNL     1       7.332   6.400  17.906  0.00  0.00    +0.000 A 
ATOM     28  C   UNL     1       7.050   5.097  18.320  0.00  0.00    +0.000 A 
ATOM     29  C   UNL     1       5.753   4.601  18.209  0.00  0.00    +0.000 A 
ATOM     30  N   UNL     1       5.468   3.343  18.773  0.00  0.00    +0.000 N 
ATOM     31  C   UNL     1       4.214   2.911  19.127  0.00  0.00    +0.000 C 
ATOM     32  O   UNL     1       4.031   1.760  19.518  0.00  0.00    +0.000 OA
ATOM     33  H   UNL     1       6.229   2.707  18.980  0.00  0.00    +0.000 HD
ENDBRANCH  21  22
ENDBRANCH   2  21
TORSDOF 5
ENDMDL
MODEL 2
REMARK VINA RESULT:      -8.4      2.877      3.589
REMARK  Name = 
REMARK  5 active torsions:
REMARK  status: ('A' for Active; 'I' for Inactive)
REMARK    1  A    between atoms: C_2  and  C_3
REMARK    2  A    between atoms: C_3  and  C_4
REMARK    3  A    between atoms: N_15  and  C_16
REMARK    4  A    between atoms: C_20  and  S_21
REMARK    5  A    between atoms: S_21  and  N_24
REMARK                            x       y       z     vdW  Elec       q    Type
REMARK                         _______ _______ _______ _____ _____    ______ ____
ROOT
ATOM      1  O   UNL     1       2.078   6.156  18.074  0.00  0.00    +0.000 OA
ATOM      2  C   UNL     1       2.997   6.975  18.042  0.00  0.00    +0.000 C 
ATOM      3  N   UNL     1       2.860   8.325  18.306  0.00  0.00    +0.000 N 
ATOM      4  H   UNL     1       3.466   8.952  17.789  0.00  0.00    +0.000 HD
ENDROOT
BRANCH   3   5
ATOM      5  C   UNL     1       1.620   8.868  18.709  0.00  0.00    +0.000 A 
ATOM      6  C   UNL     1       0.739   9.466  17.801  0.00  0.00    +0.000 A 
ATOM      7  C   UNL     1      -0.406  10.124  18.255  0.00  0.00    +0.000 A 
ATOM      8  C   UNL     1      -0.663  10.212  19.623  0.00  0.00    +0.000 A 
ATOM      9  C   UNL     1       0.200   9.582  20.523  0.00  0.00    +0.000 A 
ATOM     10  C   UNL     1       1.297   8.844  20.060  0.00  0.00    +0.000 A 
BRANCH   9  11
ATOM     11  S   UNL     1      -0.114   9.644  22.266  0.00  0.00    +0.000 S 
ATOM     12  O   UNL     1      -0.929   8.494  22.606  0.00  0.00    +0.000 OA
ATOM     13  O   UNL     1       1.141   9.872  22.954  0.00  0.00    +0.000 OA
BRANCH  11  14
ATOM     14  N   UNL     1      -1.099  10.971  22.515  0.00  0.00    +0.000 N 
ATOM     15  C   UNL     1      -0.686  12.300  22.475  0.00  0.00    +0.000 C 
ATOM     16  N   UNL     1       0.319  12.701  21.779  0.00  0.00    +0.000 NA
ATOM     17  C   UNL     1       0.426  14.148  22.008  0.00  0.00    +0.000 C 
ATOM     18  C   UNL     1      -0.902  14.582  22.602  0.00  0.00    +0.000 C 
ATOM     19  C   UNL     1      -1.419  13.328  23.270  0.00  0.00    +0.000 C 
ATOM     20  H   UNL     1      -1.971  10.705  22.964  0.00  0.00    +0.000 HD
ENDBRANCH  11  14
ENDBRANCH   9  11
ENDBRANCH   3   5
BRANCH   2  21
ATOM     21  C   UNL     1       4.405   6.495  17.771  0.00  0.00    +0.000 C 
BRANCH  21  22
ATOM     22  C   UNL     1       4.855   5.236  18.512  0.00  0.00    +0.000 C 
ATOM     23  S   UNL     1       4.384   3.751  17.546  0.00  0.00    +0.000 S 
ATOM     24  C   UNL     1       5.495   4.050  16.181  0.00  0.00    +0.000 A 
ATOM     25  C   UNL     1       5.069   3.765  14.882  0.00  0.00    +0.000 A 
ATOM     26  C   UNL     1       5.865   4.130  13.797  0.00  0.00    +0.000 A 
ATOM     27  C   UNL     1       7.110   4.722  14.009  0.00  0.00    +0.000 A 
ATOM     28  C   UNL     1       7.572   4.943  15.308  0.00  0.00    +0.000 A 
ATOM     29  C   UNL     1       6.750   4.652  16.393  0.00  0.00    +0.000 A 
ATOM     30  N   UNL     1       7.183   5.026  17.679  0.00  0.00    +0.000 N 
ATOM     31  C   UNL     1       6.358   5.207  18.761  0.00  0.00    +0.000 C 
ATOM     32  O   UNL     1       6.820   5.432  19.877  0.00  0.00    +0.000 OA
ATOM     33  H   UNL     1       8.165   5.222  17.836  0.00  0.00    +0.000 HD
ENDBRANCH  21  22
ENDBRANCH   2  21
TORSDOF 5
ENDMDL
MODEL 3
REMARK VINA RESULT:      -8.2      2.998      8.905
REMARK  Name = 
REMARK  5 active torsions:
REMARK  status: ('A' for Active; 'I' for Inactive)
REMARK    1  A    between atoms: C_2  and  C_3
REMARK    2  A    between atoms: C_3  and  C_4
REMARK    3  A    between atoms: N_15  and  C_16
REMARK    4  A    between atoms: C_20  and  S_21
REMARK    5  A    between atoms: S_21  and  N_24
REMARK                            x       y       z     vdW  Elec       q    Type
REMARK                         _______ _______ _______ _____ _____    ______ ____
ROOT
ATOM      1  O   UNL     1       1.943   7.910  19.991  0.00  0.00    +0.000 OA
ATOM      2  C   UNL     1       2.003   8.554  18.943  0.00  0.00    +0.000 C 
ATOM      3  N   UNL     1       2.658   8.140  17.799  0.00  0.00    +0.000 N 
ATOM      4  H   UNL     1       3.083   8.865  17.231  0.00  0.00    +0.000 HD
ENDROOT
BRANCH   3   5
ATOM      5  C   UNL     1       3.274   6.871  17.729  0.00  0.00    +0.000 A 
ATOM      6  C   UNL     1       2.572   5.688  17.987  0.00  0.00    +0.000 A 
ATOM      7  C   UNL     1       3.246   4.466  18.056  0.00  0.00    +0.000 A 
ATOM      8  C   UNL     1       4.631   4.424  17.894  0.00  0.00    +0.000 A 
ATOM      9  C   UNL     1       5.321   5.603  17.600  0.00  0.00    +0.000 A 
ATOM     10  C   UNL     1       4.632   6.812  17.440  0.00  0.00    +0.000 A 
BRANCH   9  11
ATOM     11  S   UNL     1       7.077   5.581  17.354  0.00  0.00    +0.000 S 
ATOM     12  O   UNL     1       7.632   6.717  18.064  0.00  0.00    +0.000 OA
ATOM     13  O   UNL     1       7.565   4.245  17.627  0.00  0.00    +0.000 OA
BRANCH  11  14
ATOM     14  N   UNL     1       7.324   5.911  15.734  0.00  0.00    +0.000 N 
ATOM     15  C   UNL     1       7.024   5.050  14.682  0.00  0.00    +0.000 C 
ATOM     16  N   UNL     1       6.100   4.158  14.748  0.00  0.00    +0.000 NA
ATOM     17  C   UNL     1       6.103   3.465  13.452  0.00  0.00    +0.000 C 
ATOM     18  C   UNL     1       6.875   4.359  12.498  0.00  0.00    +0.000 C 
ATOM     19  C   UNL     1       7.795   5.140  13.408  0.00  0.00    +0.000 C 
ATOM     20  H   UNL     1       7.964   6.690  15.610  0.00  0.00    +0.000 HD
ENDBRANCH  11  14
ENDBRANCH   9  11
ENDBRANCH   3   5
BRANCH   2  21
ATOM     21  C   UNL     1       1.256   9.865  18.838  0.00  0.00    +0.000 C 
BRANCH  21  22
ATOM     22  C   UNL     1      -0.233   9.834  19.182  0.00  0.00    +0.000 C 
ATOM     23  S   UNL     1      -0.512  10.671  20.789  0.00  0.00    +0.000 S 
ATOM     24  C   UNL     1      -0.078  12.310  20.229  0.00  0.00    +0.000 A 
ATOM     25  C   UNL     1       0.636  13.153  21.083  0.00  0.00    +0.000 A 
ATOM     26  C   UNL     1       1.109  14.376  20.609  0.00  0.00    +0.000 A 
ATOM     27  C   UNL     1       0.820  14.784  19.307  0.00  0.00    +0.000 A 
ATOM     28  C   UNL     1       0.045  13.976  18.473  0.00  0.00    +0.000 A 
ATOM     29  C   UNL     1      -0.367  12.720  18.914  0.00  0.00    +0.000 A 
ATOM     30  N   UNL     1      -1.014  11.870  17.998  0.00  0.00    +0.000 N 
ATOM     31  C   UNL     1      -1.095  10.505  18.120  0.00  0.00    +0.000 C 
ATOM     32  O   UNL     1      -1.767   9.841  17.335  0.00  0.00    +0.000 OA
ATOM     33  H   UNL     1      -1.425  12.263  17.159  0.00  0.00    +0.000 HD
ENDBRANCH  21  22
ENDBRANCH   2  21
TORSDOF 5
ENDMDL
MODEL 4
REMARK VINA RESULT:      -8.2      1.925      2.851
REMARK  Name = 
REMARK  5 active torsions:
REMARK  status: ('A' for Active; 'I' for Inactive)
REMARK    1  A    between atoms: C_2  and  C_3
REMARK    2  A    between atoms: C_3  and  C_4
REMARK    3  A    between atoms: N_15  and  C_16
REMARK    4  A    between atoms: C_20  and  S_21
REMARK    5  A    between atoms: S_21  and  N_24
REMARK                            x       y       z     vdW  Elec       q    Type
REMARK                         _______ _______ _______ _____ _____    ______ ____
ROOT
ATOM      1  O   UNL     1       1.018   5.494  20.745  0.00  0.00    +0.000 OA
ATOM      2  C   UNL     1       2.122   5.958  20.456  0.00  0.00    +0.000 C 
ATOM      3  N   UNL     1       2.415   7.306  20.378  0.00  0.00    +0.000 N 
ATOM      4  H   UNL     1       3.103   7.583  19.686  0.00  0.00    +0.000 HD
ENDROOT
BRANCH   3   5
ATOM      5  C   UNL     1       1.447   8.284  20.700  0.00  0.00    +0.000 A 
ATOM      6  C   UNL     1       0.536   8.111  21.747  0.00  0.00    +0.000 A 
ATOM      7  C   UNL     1      -0.501   9.027  21.941  0.00  0.00    +0.000 A 
ATOM      8  C   UNL     1      -0.648  10.107  21.072  0.00  0.00    +0.000 A 
ATOM      9  C   UNL     1       0.287  10.295  20.050  0.00  0.00    +0.000 A 
ATOM     10  C   UNL     1       1.378   9.427  19.914  0.00  0.00    +0.000 A 
BRANCH   9  11
ATOM     11  S   UNL     1       0.151  11.676  18.947  0.00  0.00    +0.000 S 
ATOM     12  O   UNL     1      -0.620  12.702  19.622  0.00  0.00    +0.000 OA
ATOM     13  O   UNL     1       1.467  11.983  18.425  0.00  0.00    +0.000 OA
BRANCH  11  14
ATOM     14  N   UNL     1      -0.812  11.166  17.679  0.00  0.00    +0.000 N 
ATOM     15  C   UNL     1      -2.199  11.056  17.715  0.00  0.00    +0.000 C 
ATOM     16  N   UNL     1      -2.940  11.770  18.487  0.00  0.00    +0.000 NA
ATOM     17  C   UNL     1      -4.325  11.353  18.230  0.00  0.00    +0.000 C 
ATOM     18  C   UNL     1      -4.301  10.597  16.913  0.00  0.00    +0.000 C 
ATOM     19  C   UNL     1      -2.887  10.069  16.832  0.00  0.00    +0.000 C 
ATOM     20  H   UNL     1      -0.265  10.689  16.969  0.00  0.00    +0.000 HD
ENDBRANCH  11  14
ENDBRANCH   9  11
ENDBRANCH   3   5
BRANCH   2  21
ATOM     21  C   UNL     1       3.284   5.016  20.235  0.00  0.00    +0.000 C 
BRANCH  21  22
ATOM     22  C   UNL     1       3.149   4.018  19.085  0.00  0.00    +0.000 C 
ATOM     23  S   UNL     1       3.170   4.913  17.486  0.00  0.00    +0.000 S 
ATOM     24  C   UNL     1       4.869   5.452  17.591  0.00  0.00    +0.000 A 
ATOM     25  C   UNL     1       5.208   6.728  17.135  0.00  0.00    +0.000 A 
ATOM     26  C   UNL     1       6.496   7.217  17.345  0.00  0.00    +0.000 A 
ATOM     27  C   UNL     1       7.461   6.415  17.953  0.00  0.00    +0.000 A 
ATOM     28  C   UNL     1       7.147   5.112  18.345  0.00  0.00    +0.000 A 
ATOM     29  C   UNL     1       5.843   4.644  18.208  0.00  0.00    +0.000 A 
ATOM     30  N   UNL     1       5.525   3.385  18.751  0.00  0.00    +0.000 N 
ATOM     31  C   UNL     1       4.257   2.973  19.081  0.00  0.00    +0.000 C 
ATOM     32  O   UNL     1       4.045   1.821  19.453  0.00  0.00    +0.000 OA
ATOM     33  H   UNL     1       6.270   2.730  18.960  0.00  0.00    +0.000 HD
ENDBRANCH  21  22
ENDBRANCH   2  21
TORSDOF 5
ENDMDL
MODEL 5
REMARK VINA RESULT:      -8.1      3.098      8.873
REMARK  Name = 
REMARK  5 active torsions:
REMARK  status: ('A' for Active; 'I' for Inactive)
REMARK    1  A    between atoms: C_2  and  C_3
REMARK    2  A    between atoms: C_3  and  C_4
REMARK    3  A    between atoms: N_15  and  C_16
REMARK    4  A    between atoms: C_20  and  S_21
REMARK    5  A    between atoms: S_21  and  N_24
REMARK                            x       y       z     vdW  Elec       q    Type
REMARK                         _______ _______ _______ _____ _____    ______ ____
ROOT
ATOM      1  O   UNL     1       1.958   8.782  17.099  0.00  0.00    +0.000 OA
ATOM      2  C   UNL     1       1.816   8.842  18.322  0.00  0.00    +0.000 C 
ATOM      3  N   UNL     1       2.121   7.821  19.202  0.00  0.00    +0.000 N 
ATOM      4  H   UNL     1       1.539   7.743  20.028  0.00  0.00    +0.000 HD
ENDROOT
BRANCH   3   5
ATOM      5  C   UNL     1       2.700   6.614  18.749  0.00  0.00    +0.000 A 
ATOM      6  C   UNL     1       2.190   5.363  19.109  0.00  0.00    +0.000 A 
ATOM      7  C   UNL     1       2.874   4.194  18.767  0.00  0.00    +0.000 A 
ATOM      8  C   UNL     1       4.089   4.272  18.086  0.00  0.00    +0.000 A 
ATOM      9  C   UNL     1       4.576   5.523  17.697  0.00  0.00    +0.000 A 
ATOM     10  C   UNL     1       3.842   6.687  17.960  0.00  0.00    +0.000 A 
BRANCH   9  11
ATOM     11  S   UNL     1       6.099   5.658  16.800  0.00  0.00    +0.000 S 
ATOM     12  O   UNL     1       6.075   6.918  16.083  0.00  0.00    +0.000 OA
ATOM     13  O   UNL     1       7.194   5.356  17.700  0.00  0.00    +0.000 OA
BRANCH  11  14
ATOM     14  N   UNL     1       6.050   4.477  15.617  0.00  0.00    +0.000 N 
ATOM     15  C   UNL     1       6.588   4.595  14.339  0.00  0.00    +0.000 C 
ATOM     16  N   UNL     1       7.584   5.362  14.066  0.00  0.00    +0.000 NA
ATOM     17  C   UNL     1       7.840   5.207  12.627  0.00  0.00    +0.000 C 
ATOM     18  C   UNL     1       7.119   3.939  12.204  0.00  0.00    +0.000 C 
ATOM     19  C   UNL     1       6.000   3.813  13.212  0.00  0.00    +0.000 C 
ATOM     20  H   UNL     1       5.354   3.769  15.832  0.00  0.00    +0.000 HD
ENDBRANCH  11  14
ENDBRANCH   9  11
ENDBRANCH   3   5
BRANCH   2  21
ATOM     21  C   UNL     1       1.345  10.134  18.948  0.00  0.00    +0.000 C 
BRANCH  21  22
ATOM     22  C   UNL     1      -0.020  10.106  19.634  0.00  0.00    +0.000 C 
ATOM     23  S   UNL     1       0.055  11.061  21.197  0.00  0.00    +0.000 S 
ATOM     24  C   UNL     1       0.289  12.658  20.435  0.00  0.00    +0.000 A 
ATOM     25  C   UNL     1       1.153  13.577  21.033  0.00  0.00    +0.000 A 
ATOM     26  C   UNL     1       1.460  14.767  20.375  0.00  0.00    +0.000 A 
ATOM     27  C   UNL     1       0.861  15.068  19.152  0.00  0.00    +0.000 A 
ATOM     28  C   UNL     1      -0.059  14.184  18.584  0.00  0.00    +0.000 A 
ATOM     29  C   UNL     1      -0.312  12.960  19.198  0.00  0.00    +0.000 A 
ATOM     30  N   UNL     1      -1.126  12.030  18.524  0.00  0.00    +0.000 N 
ATOM     31  C   UNL     1      -1.129  10.678  18.759  0.00  0.00    +0.000 C 
ATOM     32  O   UNL     1      -1.942   9.943  18.205  0.00  0.00    +0.000 OA
ATOM     33  H   UNL     1      -1.735  12.350  17.779  0.00  0.00    +0.000 HD
ENDBRANCH  21  22
ENDBRANCH   2  21
TORSDOF 5
ENDMDL
MODEL 6
REMARK VINA RESULT:      -8.1      2.151      3.049
REMARK  Name = 
REMARK  5 active torsions:
REMARK  status: ('A' for Active; 'I' for Inactive)
REMARK    1  A    between atoms: C_2  and  C_3
REMARK    2  A    between atoms: C_3  and  C_4
REMARK    3  A    between atoms: N_15  and  C_16
REMARK    4  A    between atoms: C_20  and  S_21
REMARK    5  A    between atoms: S_21  and  N_24
REMARK                            x       y       z     vdW  Elec       q    Type
REMARK                         _______ _______ _______ _____ _____    ______ ____
ROOT
ATOM      1  O   UNL     1       0.798   5.990  20.551  0.00  0.00    +0.000 OA
ATOM      2  C   UNL     1       1.958   6.405  20.519  0.00  0.00    +0.000 C 
ATOM      3  N   UNL     1       2.333   7.716  20.743  0.00  0.00    +0.000 N 
ATOM      4  H   UNL     1       3.136   8.054  20.225  0.00  0.00    +0.000 HD
ENDROOT
BRANCH   3   5
ATOM      5  C   UNL     1       1.381   8.696  21.100  0.00  0.00    +0.000 A 
ATOM      6  C   UNL     1       0.896   8.821  22.407  0.00  0.00    +0.000 A 
ATOM      7  C   UNL     1      -0.152   9.700  22.692  0.00  0.00    +0.000 A 
ATOM      8  C   UNL     1      -0.740  10.439  21.667  0.00  0.00    +0.000 A 
ATOM      9  C   UNL     1      -0.228  10.338  20.370  0.00  0.00    +0.000 A 
ATOM     10  C   UNL     1       0.882   9.526  20.104  0.00  0.00    +0.000 A 
BRANCH   9  11
ATOM     11  S   UNL     1      -0.929  11.288  19.048  0.00  0.00    +0.000 S 
ATOM     12  O   UNL     1      -2.272  11.664  19.443  0.00  0.00    +0.000 OA
ATOM     13  O   UNL     1       0.024  12.307  18.655  0.00  0.00    +0.000 OA
BRANCH  11  14
ATOM     14  N   UNL     1      -1.126  10.230  17.768  0.00  0.00    +0.000 N 
ATOM     15  C   UNL     1      -2.090  10.345  16.770  0.00  0.00    +0.000 C 
ATOM     16  N   UNL     1      -2.595  11.472  16.410  0.00  0.00    +0.000 NA
ATOM     17  C   UNL     1      -3.564  11.167  15.348  0.00  0.00    +0.000 C 
ATOM     18  C   UNL     1      -3.240   9.763  14.870  0.00  0.00    +0.000 C 
ATOM     19  C   UNL     1      -2.581   9.122  16.070  0.00  0.00    +0.000 C 
ATOM     20  H   UNL     1      -0.649   9.351  17.940  0.00  0.00    +0.000 HD
ENDBRANCH  11  14
ENDBRANCH   9  11
ENDBRANCH   3   5
BRANCH   2  21
ATOM     21  C   UNL     1       3.087   5.425  20.295  0.00  0.00    +0.000 C 
BRANCH  21  22
ATOM     22  C   UNL     1       2.867   4.359  19.221  0.00  0.00    +0.000 C 
ATOM     23  S   UNL     1       2.997   5.122  17.560  0.00  0.00    +0.000 S 
ATOM     24  C   UNL     1       4.739   5.498  17.657  0.00  0.00    +0.000 A 
ATOM     25  C   UNL     1       5.209   6.695  17.114  0.00  0.00    +0.000 A 
ATOM     26  C   UNL     1       6.537   7.071  17.311  0.00  0.00    +0.000 A 
ATOM     27  C   UNL     1       7.410   6.227  17.997  0.00  0.00    +0.000 A 
ATOM     28  C   UNL     1       6.963   4.995  18.479  0.00  0.00    +0.000 A 
ATOM     29  C   UNL     1       5.620   4.648  18.352  0.00  0.00    +0.000 A 
ATOM     30  N   UNL     1       5.172   3.472  18.982  0.00  0.00    +0.000 N 
ATOM     31  C   UNL     1       3.866   3.213  19.318  0.00  0.00    +0.000 C 
ATOM     32  O   UNL     1       3.536   2.119  19.771  0.00  0.00    +0.000 OA
ATOM     33  H   UNL     1       5.846   2.765  19.255  0.00  0.00    +0.000 HD
ENDBRANCH  21  22
ENDBRANCH   2  21
TORSDOF 5
ENDMDL
MODEL 7
REMARK VINA RESULT:      -8.0      3.695      5.072
REMARK  Name = 
REMARK  5 active torsions:
REMARK  status: ('A' for Active; 'I' for Inactive)
REMARK    1  A    between atoms: C_2  and  C_3
REMARK    2  A    between atoms: C_3  and  C_4
REMARK    3  A    between atoms: N_15  and  C_16
REMARK    4  A    between atoms: C_20  and  S_21
REMARK    5  A    between atoms: S_21  and  N_24
REMARK                            x       y       z     vdW  Elec       q    Type
REMARK                         _______ _______ _______ _____ _____    ______ ____
ROOT
ATOM      1  O   UNL     1       2.693   8.744  16.956  0.00  0.00    +0.000 OA
ATOM      2  C   UNL     1       2.422   8.193  18.024  0.00  0.00    +0.000 C 
ATOM      3  N   UNL     1       1.511   8.668  18.948  0.00  0.00    +0.000 N 
ATOM      4  H   UNL     1       1.716   8.486  19.924  0.00  0.00    +0.000 HD
ENDROOT
BRANCH   3   5
ATOM      5  C   UNL     1       0.750   9.830  18.692  0.00  0.00    +0.000 A 
ATOM      6  C   UNL     1       1.084  11.074  19.238  0.00  0.00    +0.000 A 
ATOM      7  C   UNL     1       0.228  12.167  19.086  0.00  0.00    +0.000 A 
ATOM      8  C   UNL     1      -0.983  12.016  18.410  0.00  0.00    +0.000 A 
ATOM      9  C   UNL     1      -1.294  10.780  17.835  0.00  0.00    +0.000 A 
ATOM     10  C   UNL     1      -0.392   9.711  17.909  0.00  0.00    +0.000 A 
BRANCH   9  11
ATOM     11  S   UNL     1      -2.808  10.560  16.939  0.00  0.00    +0.000 S 
ATOM     12  O   UNL     1      -2.509  10.713  15.529  0.00  0.00    +0.000 OA
ATOM     13  O   UNL     1      -3.457   9.355  17.417  0.00  0.00    +0.000 OA
BRANCH  11  14
ATOM     14  N   UNL     1      -3.775  11.868  17.329  0.00  0.00    +0.000 N 
ATOM     15  C   UNL     1      -5.101  11.793  17.743  0.00  0.00    +0.000 C 
ATOM     16  N   UNL     1      -5.590  10.769  18.349  0.00  0.00    +0.000 NA
ATOM     17  C   UNL     1      -7.003  11.080  18.608  0.00  0.00    +0.000 C 
ATOM     18  C   UNL     1      -7.143  12.582  18.435  0.00  0.00    +0.000 C 
ATOM     19  C   UNL     1      -6.024  12.937  17.483  0.00  0.00    +0.000 C 
ATOM     20  H   UNL     1      -3.382  12.735  16.974  0.00  0.00    +0.000 HD
ENDBRANCH  11  14
ENDBRANCH   9  11
ENDBRANCH   3   5
BRANCH   2  21
ATOM     21  C   UNL     1       3.059   6.861  18.350  0.00  0.00    +0.000 C 
BRANCH  21  22
ATOM     22  C   UNL     1       4.534   6.698  17.985  0.00  0.00    +0.000 C 
ATOM     23  S   UNL     1       5.354   5.600  19.202  0.00  0.00    +0.000 S 
ATOM     24  C   UNL     1       4.474   4.116  18.743  0.00  0.00    +0.000 A 
ATOM     25  C   UNL     1       4.083   3.220  19.740  0.00  0.00    +0.000 A 
ATOM     26  C   UNL     1       3.271   2.135  19.415  0.00  0.00    +0.000 A 
ATOM     27  C   UNL     1       2.898   1.909  18.091  0.00  0.00    +0.000 A 
ATOM     28  C   UNL     1       3.346   2.761  17.079  0.00  0.00    +0.000 A 
ATOM     29  C   UNL     1       4.094   3.889  17.406  0.00  0.00    +0.000 A 
ATOM     30  N   UNL     1       4.400   4.807  16.384  0.00  0.00    +0.000 N 
ATOM     31  C   UNL     1       4.734   6.123  16.588  0.00  0.00    +0.000 C 
ATOM     32  O   UNL     1       5.089   6.836  15.653  0.00  0.00    +0.000 OA
ATOM     33  H   UNL     1       4.339   4.513  15.416  0.00  0.00    +0.000 HD
ENDBRANCH  21  22
ENDBRANCH   2  21
TORSDOF 5
ENDMDL
MODEL 8
REMARK VINA RESULT:      -8.0      2.411      3.441
REMARK  Name = 
REMARK  5 active torsions:
REMARK  status: ('A' for Active; 'I' for Inactive)
REMARK    1  A    between atoms: C_2  and  C_3
REMARK    2  A    between atoms: C_3  and  C_4
REMARK    3  A    between atoms: N_15  and  C_16
REMARK    4  A    between atoms: C_20  and  S_21
REMARK    5  A    between atoms: S_21  and  N_24
REMARK                            x       y       z     vdW  Elec       q    Type
REMARK                         _______ _______ _______ _____ _____    ______ ____
ROOT
ATOM      1  O   UNL     1       2.044   9.085  17.497  0.00  0.00    +0.000 OA
ATOM      2  C   UNL     1       2.242   8.147  18.271  0.00  0.00    +0.000 C 
ATOM      3  N   UNL     1       1.827   8.110  19.588  0.00  0.00    +0.000 N 
ATOM      4  H   UNL     1       2.425   7.614  20.239  0.00  0.00    +0.000 HD
ENDROOT
BRANCH   3   5
ATOM      5  C   UNL     1       1.062   9.161  20.142  0.00  0.00    +0.000 A 
ATOM      6  C   UNL     1       0.365   9.019  21.347  0.00  0.00    +0.000 A 
ATOM      7  C   UNL     1      -0.499  10.024  21.787  0.00  0.00    +0.000 A 
ATOM      8  C   UNL     1      -0.694  11.166  21.010  0.00  0.00    +0.000 A 
ATOM      9  C   UNL     1       0.032  11.319  19.826  0.00  0.00    +0.000 A 
ATOM     10  C   UNL     1       0.967  10.353  19.433  0.00  0.00    +0.000 A 
BRANCH   9  11
ATOM     11  S   UNL     1      -0.164  12.772  18.830  0.00  0.00    +0.000 S 
ATOM     12  O   UNL     1      -1.064  13.666  19.533  0.00  0.00    +0.000 OA
ATOM     13  O   UNL     1       1.147  13.235  18.423  0.00  0.00    +0.000 OA
BRANCH  11  14
ATOM     14  N   UNL     1      -1.000  12.292  17.464  0.00  0.00    +0.000 N 
ATOM     15  C   UNL     1      -2.234  11.647  17.460  0.00  0.00    +0.000 C 
ATOM     16  N   UNL     1      -3.098  11.783  18.404  0.00  0.00    +0.000 NA
ATOM     17  C   UNL     1      -4.249  10.948  18.030  0.00  0.00    +0.000 C 
ATOM     18  C   UNL     1      -4.089  10.646  16.551  0.00  0.00    +0.000 C 
ATOM     19  C   UNL     1      -2.597  10.749  16.325  0.00  0.00    +0.000 C 
ATOM     20  H   UNL     1      -0.395  12.274  16.649  0.00  0.00    +0.000 HD
ENDBRANCH  11  14
ENDBRANCH   9  11
ENDBRANCH   3   5
BRANCH   2  21
ATOM     21  C   UNL     1       2.920   6.896  17.757  0.00  0.00    +0.000 C 
BRANCH  21  22
ATOM     22  C   UNL     1       2.498   5.575  18.401  0.00  0.00    +0.000 C 
ATOM     23  S   UNL     1       2.786   4.198  17.226  0.00  0.00    +0.000 S 
ATOM     24  C   UNL     1       4.568   4.307  17.236  0.00  0.00    +0.000 A 
ATOM     25  C   UNL     1       5.269   4.106  16.045  0.00  0.00    +0.000 A 
ATOM     26  C   UNL     1       6.643   4.332  16.005  0.00  0.00    +0.000 A 
ATOM     27  C   UNL     1       7.328   4.700  17.163  0.00  0.00    +0.000 A 
ATOM     28  C   UNL     1       6.643   4.832  18.372  0.00  0.00    +0.000 A 
ATOM     29  C   UNL     1       5.259   4.682  18.404  0.00  0.00    +0.000 A 
ATOM     30  N   UNL     1       4.583   4.971  19.604  0.00  0.00    +0.000 N 
ATOM     31  C   UNL     1       3.250   5.286  19.695  0.00  0.00    +0.000 C 
ATOM     32  O   UNL     1       2.707   5.423  20.788  0.00  0.00    +0.000 OA
ATOM     33  H   UNL     1       5.101   4.993  20.474  0.00  0.00    +0.000 HD
ENDBRANCH  21  22
ENDBRANCH   2  21
TORSDOF 5
ENDMDL
MODEL 9
REMARK VINA RESULT:      -7.9      2.698      4.256
REMARK  Name = 
REMARK  5 active torsions:
REMARK  status: ('A' for Active; 'I' for Inactive)
REMARK    1  A    between atoms: C_2  and  C_3
REMARK    2  A    between atoms: C_3  and  C_4
REMARK    3  A    between atoms: N_15  and  C_16
REMARK    4  A    between atoms: C_20  and  S_21
REMARK    5  A    between atoms: S_21  and  N_24
REMARK                            x       y       z     vdW  Elec       q    Type
REMARK                         _______ _______ _______ _____ _____    ______ ____
ROOT
ATOM      1  O   UNL     1       2.399   8.902  17.587  0.00  0.00    +0.000 OA
ATOM      2  C   UNL     1       2.431   7.815  18.167  0.00  0.00    +0.000 C 
ATOM      3  N   UNL     1       1.988   7.597  19.457  0.00  0.00    +0.000 N 
ATOM      4  H   UNL     1       2.487   6.899  19.997  0.00  0.00    +0.000 HD
ENDROOT
BRANCH   3   5
ATOM      5  C   UNL     1       1.385   8.632  20.207  0.00  0.00    +0.000 A 
ATOM      6  C   UNL     1       1.336   8.607  21.605  0.00  0.00    +0.000 A 
ATOM      7  C   UNL     1       0.603   9.567  22.305  0.00  0.00    +0.000 A 
ATOM      8  C   UNL     1      -0.110  10.543  21.609  0.00  0.00    +0.000 A 
ATOM      9  C   UNL     1      -0.028  10.586  20.214  0.00  0.00    +0.000 A 
ATOM     10  C   UNL     1       0.782   9.678  19.520  0.00  0.00    +0.000 A 
BRANCH   9  11
ATOM     11  S   UNL     1      -0.894  11.833  19.299  0.00  0.00    +0.000 S 
ATOM     12  O   UNL     1      -2.235  11.923  19.841  0.00  0.00    +0.000 OA
ATOM     13  O   UNL     1      -0.060  13.016  19.226  0.00  0.00    +0.000 OA
BRANCH  11  14
ATOM     14  N   UNL     1      -1.084  11.227  17.752  0.00  0.00    +0.000 N 
ATOM     15  C   UNL     1      -2.303  11.034  17.108  0.00  0.00    +0.000 C 
ATOM     16  N   UNL     1      -3.355  11.725  17.375  0.00  0.00    +0.000 NA
ATOM     17  C   UNL     1      -4.415  11.217  16.494  0.00  0.00    +0.000 C 
ATOM     18  C   UNL     1      -3.715  10.425  15.403  0.00  0.00    +0.000 C 
ATOM     19  C   UNL     1      -2.427   9.981  16.057  0.00  0.00    +0.000 C 
ATOM     20  H   UNL     1      -0.240  10.763  17.431  0.00  0.00    +0.000 HD
ENDBRANCH  11  14
ENDBRANCH   9  11
ENDBRANCH   3   5
BRANCH   2  21
ATOM     21  C   UNL     1       2.916   6.593  17.420  0.00  0.00    +0.000 C 
BRANCH  21  22
ATOM     22  C   UNL     1       4.287   6.046  17.817  0.00  0.00    +0.000 C 
ATOM     23  S   UNL     1       4.238   5.462  19.554  0.00  0.00    +0.000 S 
ATOM     24  C   UNL     1       3.128   4.094  19.265  0.00  0.00    +0.000 A 
ATOM     25  C   UNL     1       2.152   3.796  20.218  0.00  0.00    +0.000 A 
ATOM     26  C   UNL     1       1.187   2.829  19.941  0.00  0.00    +0.000 A 
ATOM     27  C   UNL     1       1.229   2.119  18.741  0.00  0.00    +0.000 A 
ATOM     28  C   UNL     1       2.246   2.362  17.816  0.00  0.00    +0.000 A 
ATOM     29  C   UNL     1       3.168   3.379  18.053  0.00  0.00    +0.000 A 
ATOM     30  N   UNL     1       4.084   3.701  17.034  0.00  0.00    +0.000 N 
ATOM     31  C   UNL     1       4.744   4.900  16.924  0.00  0.00    +0.000 C 
ATOM     32  O   UNL     1       5.607   5.069  16.066  0.00  0.00    +0.000 OA
ATOM     33  H   UNL     1       4.260   3.031  16.293  0.00  0.00    +0.000 HD
ENDBRANCH  21  22
ENDBRANCH   2  21
TORSDOF 5
ENDMDL
