MODEL 1
REMARK VINA RESULT:      -7.8      0.000      0.000
REMARK  Name = 
REMARK  4 active torsions:
REMARK  status: ('A' for Active; 'I' for Inactive)
REMARK    1  A    between atoms: C_1  and  C_2
REMARK    2  A    between atoms: C_10  and  C_12
REMARK    3  A    between atoms: C_12  and  C_13
REMARK    4  A    between atoms: C_13  and  C_14
REMARK                            x       y       z     vdW  Elec       q    Type
REMARK                         _______ _______ _______ _____ _____    ______ ____
ROOT
ATOM      1  C   UNL     1       1.619  15.906  19.195  0.00  0.00    +0.000 C 
ATOM      2  C   UNL     1       0.566  15.722  20.246  0.00  0.00    +0.000 C 
ATOM      3  O   UNL     1       0.043  16.706  20.785  0.00  0.00    +0.000 OA
ATOM      4  N   UNL     1       0.137  14.437  20.494  0.00  0.00    +0.000 N 
ATOM      5  C   UNL     1       0.684  13.159  20.029  0.00  0.00    +0.000 C 
ATOM      6  C   UNL     1      -0.426  12.068  20.279  0.00  0.00    +0.000 C 
ATOM      7  C   UNL     1      -0.067  10.988  21.334  0.00  0.00    +0.000 C 
ATOM      8  C   UNL     1       0.449   9.607  20.897  0.00  0.00    +0.000 C 
ATOM      9  N   UNL     1       0.907   9.490  19.532  0.00  0.00    +0.000 N 
ATOM     10  C   UNL     1       1.622   8.383  19.045  0.00  0.00    +0.000 C 
ATOM     11  O   UNL     1       1.737   8.201  17.827  0.00  0.00    +0.000 OA
ATOM     12  C   UNL     1       0.195  10.232  18.504  0.00  0.00    +0.000 C 
ATOM     13  C   UNL     1      -0.727  11.376  18.934  0.00  0.00    +0.000 C 
ATOM     14  C   UNL     1      -1.663  12.967  20.724  0.00  0.00    +0.000 C 
ATOM     15  C   UNL     1      -2.522  12.604  21.926  0.00  0.00    +0.000 C 
ATOM     16  O   UNL     1      -1.743  12.897  23.098  0.00  0.00    +0.000 OA
ATOM     17  C   UNL     1      -0.817  13.942  22.748  0.00  0.00    +0.000 C 
ATOM     18  C   UNL     1      -1.049  14.238  21.269  0.00  0.00    +0.000 C 
ENDROOT
BRANCH  10  19
ATOM     19  C   UNL     1       2.235   7.361  19.999  0.00  0.00    +0.000 C 
BRANCH  19  20
ATOM     20  C   UNL     1       2.957   6.288  19.170  0.00  0.00    +0.000 C 
BRANCH  20  21
ATOM     21  C   UNL     1       2.389   4.900  19.312  0.00  0.00    +0.000 A 
ATOM     22  C   UNL     1       1.933   4.437  20.555  0.00  0.00    +0.000 A 
ATOM     23  C   UNL     1       1.353   3.174  20.656  0.00  0.00    +0.000 A 
ATOM     24  F   UNL     1       0.907   2.747  21.845  0.00  0.00    +0.000 F 
ATOM     25  C   UNL     1       1.218   2.352  19.542  0.00  0.00    +0.000 A 
ATOM     26  C   UNL     1       1.679   2.798  18.304  0.00  0.00    +0.000 A 
ATOM     27  C   UNL     1       2.262   4.061  18.200  0.00  0.00    +0.000 A 
ATOM     28  F   UNL     1       2.691   4.476  17.000  0.00  0.00    +0.000 F 
ENDBRANCH  20  21
ENDBRANCH  19  20
ENDBRANCH  10  19
TORSDOF 3
ENDMDL
MODEL 2
REMARK VINA RESULT:      -7.7      1.599      1.823
REMARK  Name = 
REMARK  4 active torsions:
REMARK  status: ('A' for Active; 'I' for Inactive)
REMARK    1  A    between atoms: C_1  and  C_2
REMARK    2  A    between atoms: C_10  and  C_12
REMARK    3  A    between atoms: C_12  and  C_13
REMARK    4  A    between atoms: C_13  and  C_14
REMARK                            x       y       z     vdW  Elec       q    Type
REMARK                         _______ _______ _______ _____ _____    ______ ____
ROOT
ATOM      1  C   UNL     1       2.556  14.847  18.342  0.00  0.00    +0.000 C 
ATOM      2  C   UNL     1       1.269  14.789  19.109  0.00  0.00    +0.000 C 
ATOM      3  O   UNL     1       0.658  15.830  19.384  0.00  0.00    +0.000 OA
ATOM      4  N   UNL     1       0.753  13.543  19.386  0.00  0.00    +0.000 N 
ATOM      5  C   UNL     1       1.360  12.219  19.222  0.00  0.00    +0.000 C 
ATOM      6  C   UNL     1       0.190  11.165  19.307  0.00  0.00    +0.000 C 
ATOM      7  C   UNL     1       0.242  10.216  20.534  0.00  0.00    +0.000 C 
ATOM      8  C   UNL     1       0.809   8.793  20.401  0.00  0.00    +0.000 C 
ATOM      9  N   UNL     1       1.590   8.516  19.218  0.00  0.00    +0.000 N 
ATOM     10  C   UNL     1       2.370   7.359  19.055  0.00  0.00    +0.000 C 
ATOM     11  O   UNL     1       2.780   7.035  17.933  0.00  0.00    +0.000 OA
ATOM     12  C   UNL     1       1.179   9.133  17.966  0.00  0.00    +0.000 C 
ATOM     13  C   UNL     1       0.214  10.319  18.017  0.00  0.00    +0.000 C 
ATOM     14  C   UNL     1      -1.091  12.110  19.321  0.00  0.00    +0.000 C 
ATOM     15  C   UNL     1      -2.233  11.892  20.302  0.00  0.00    +0.000 C 
ATOM     16  O   UNL     1      -1.763  12.321  21.591  0.00  0.00    +0.000 OA
ATOM     17  C   UNL     1      -0.748  13.317  21.369  0.00  0.00    +0.000 C 
ATOM     18  C   UNL     1      -0.594  13.437  19.855  0.00  0.00    +0.000 C 
ENDROOT
BRANCH  10  19
ATOM     19  C   UNL     1       2.694   6.456  20.242  0.00  0.00    +0.000 C 
BRANCH  19  20
ATOM     20  C   UNL     1       1.800   5.208  20.166  0.00  0.00    +0.000 C 
BRANCH  20  21
ATOM     21  C   UNL     1       2.423   4.036  19.453  0.00  0.00    +0.000 A 
ATOM     22  C   UNL     1       3.400   3.252  20.082  0.00  0.00    +0.000 A 
ATOM     23  C   UNL     1       3.920   2.134  19.432  0.00  0.00    +0.000 A 
ATOM     24  F   UNL     1       4.842   1.384  20.048  0.00  0.00    +0.000 F 
ATOM     25  C   UNL     1       3.490   1.778  18.158  0.00  0.00    +0.000 A 
ATOM     26  C   UNL     1       2.527   2.558  17.519  0.00  0.00    +0.000 A 
ATOM     27  C   UNL     1       2.006   3.677  18.166  0.00  0.00    +0.000 A 
ATOM     28  F   UNL     1       1.075   4.410  17.540  0.00  0.00    +0.000 F 
ENDBRANCH  20  21
ENDBRANCH  19  20
ENDBRANCH  10  19
TORSDOF 3
ENDMDL
MODEL 3
REMARK VINA RESULT:      -7.6      1.045      1.207
REMARK  Name = 
REMARK  4 active torsions:
REMARK  status: ('A' for Active; 'I' for Inactive)
REMARK    1  A    between atoms: C_1  and  C_2
REMARK    2  A    between atoms: C_10  and  C_12
REMARK    3  A    between atoms: C_12  and  C_13
REMARK    4  A    between atoms: C_13  and  C_14
REMARK                            x       y       z     vdW  Elec       q    Type
REMARK                         _______ _______ _______ _____ _____    ______ ____
ROOT
ATOM      1  C   UNL     1       3.541  15.629  18.530  0.00  0.00    +0.000 C 
ATOM      2  C   UNL     1       2.425  15.828  19.511  0.00  0.00    +0.000 C 
ATOM      3  O   UNL     1       2.134  16.966  19.903  0.00  0.00    +0.000 OA
ATOM      4  N   UNL     1       1.682  14.721  19.857  0.00  0.00    +0.000 N 
ATOM      5  C   UNL     1       1.920  13.304  19.570  0.00  0.00    +0.000 C 
ATOM      6  C   UNL     1       0.565  12.547  19.845  0.00  0.00    +0.000 C 
ATOM      7  C   UNL     1       0.596  11.546  21.030  0.00  0.00    +0.000 C 
ATOM      8  C   UNL     1       0.777  10.040  20.780  0.00  0.00    +0.000 C 
ATOM      9  N   UNL     1       1.260   9.654  19.474  0.00  0.00    +0.000 N 
ATOM     10  C   UNL     1       1.704   8.359  19.160  0.00  0.00    +0.000 C 
ATOM     11  O   UNL     1       1.830   8.012  17.979  0.00  0.00    +0.000 OA
ATOM     12  C   UNL     1       0.803  10.418  18.323  0.00  0.00    +0.000 C 
ATOM     13  C   UNL     1       0.170  11.791  18.560  0.00  0.00    +0.000 C 
ATOM     14  C   UNL     1      -0.434  13.761  20.099  0.00  0.00    +0.000 C 
ATOM     15  C   UNL     1      -1.413  13.759  21.263  0.00  0.00    +0.000 C 
ATOM     16  O   UNL     1      -0.645  13.996  22.454  0.00  0.00    +0.000 OA
ATOM     17  C   UNL     1       0.526  14.740  22.070  0.00  0.00    +0.000 C 
ATOM     18  C   UNL     1       0.447  14.905  20.555  0.00  0.00    +0.000 C 
ENDROOT
BRANCH  10  19
ATOM     19  C   UNL     1       1.998   7.342  20.259  0.00  0.00    +0.000 C 
BRANCH  19  20
ATOM     20  C   UNL     1       2.863   6.218  19.667  0.00  0.00    +0.000 C 
BRANCH  20  21
ATOM     21  C   UNL     1       2.233   4.850  19.724  0.00  0.00    +0.000 A 
ATOM     22  C   UNL     1       2.128   4.160  20.940  0.00  0.00    +0.000 A 
ATOM     23  C   UNL     1       1.487   2.924  20.985  0.00  0.00    +0.000 A 
ATOM     24  F   UNL     1       1.378   2.281  22.155  0.00  0.00    +0.000 F 
ATOM     25  C   UNL     1       0.948   2.350  19.839  0.00  0.00    +0.000 A 
ATOM     26  C   UNL     1       1.059   3.021  18.622  0.00  0.00    +0.000 A 
ATOM     27  C   UNL     1       1.700   4.258  18.573  0.00  0.00    +0.000 A 
ATOM     28  F   UNL     1       1.789   4.893  17.396  0.00  0.00    +0.000 F 
ENDBRANCH  20  21
ENDBRANCH  19  20
ENDBRANCH  10  19
TORSDOF 3
ENDMDL
MODEL 4
REMARK VINA RESULT:      -7.6      1.339      1.428
REMARK  Name = 
REMARK  4 active torsions:
REMARK  status: ('A' for Active; 'I' for Inactive)
REMARK    1  A    between atoms: C_1  and  C_2
REMARK    2  A    between atoms: C_10  and  C_12
REMARK    3  A    between atoms: C_12  and  C_13
REMARK    4  A    between atoms: C_13  and  C_14
REMARK                            x       y       z     vdW  Elec       q    Type
REMARK                         _______ _______ _______ _____ _____    ______ ____
ROOT
ATOM      1  C   UNL     1       2.582  15.313  19.164  0.00  0.00    +0.000 C 
ATOM      2  C   UNL     1       1.389  15.184  20.063  0.00  0.00    +0.000 C 
ATOM      3  O   UNL     1       0.857  16.194  20.544  0.00  0.00    +0.000 OA
ATOM      4  N   UNL     1       0.856  13.926  20.232  0.00  0.00    +0.000 N 
ATOM      5  C   UNL     1       1.385  12.621  19.824  0.00  0.00    +0.000 C 
ATOM      6  C   UNL     1       0.189  11.597  19.907  0.00  0.00    +0.000 C 
ATOM      7  C   UNL     1       0.341  10.489  20.983  0.00  0.00    +0.000 C 
ATOM      8  C   UNL     1       0.828   9.083  20.597  0.00  0.00    +0.000 C 
ATOM      9  N   UNL     1       1.457   8.948  19.303  0.00  0.00    +0.000 N 
ATOM     10  C   UNL     1       2.164   7.805  18.897  0.00  0.00    +0.000 C 
ATOM     11  O   UNL     1       2.429   7.626  17.702  0.00  0.00    +0.000 OA
ATOM     12  C   UNL     1       0.932   9.741  18.202  0.00  0.00    +0.000 C 
ATOM     13  C   UNL     1       0.030  10.934  18.523  0.00  0.00    +0.000 C 
ATOM     14  C   UNL     1      -1.042  12.564  20.198  0.00  0.00    +0.000 C 
ATOM     15  C   UNL     1      -2.073  12.245  21.270  0.00  0.00    +0.000 C 
ATOM     16  O   UNL     1      -1.441  12.482  22.539  0.00  0.00    +0.000 OA
ATOM     17  C   UNL     1      -0.417  13.472  22.332  0.00  0.00    +0.000 C 
ATOM     18  C   UNL     1      -0.432  13.793  20.840  0.00  0.00    +0.000 C 
ENDROOT
BRANCH  10  19
ATOM     19  C   UNL     1       2.583   6.740  19.908  0.00  0.00    +0.000 C 
BRANCH  19  20
ATOM     20  C   UNL     1       3.627   5.825  19.251  0.00  0.00    +0.000 C 
BRANCH  20  21
ATOM     21  C   UNL     1       3.176   4.400  19.057  0.00  0.00    +0.000 A 
ATOM     22  C   UNL     1       1.812   4.084  18.991  0.00  0.00    +0.000 A 
ATOM     23  C   UNL     1       1.413   2.771  18.748  0.00  0.00    +0.000 A 
ATOM     24  F   UNL     1       0.108   2.482  18.672  0.00  0.00    +0.000 F 
ATOM     25  C   UNL     1       2.348   1.756  18.573  0.00  0.00    +0.000 A 
ATOM     26  C   UNL     1       3.707   2.057  18.650  0.00  0.00    +0.000 A 
ATOM     27  C   UNL     1       4.109   3.370  18.893  0.00  0.00    +0.000 A 
ATOM     28  F   UNL     1       5.419   3.643  18.954  0.00  0.00    +0.000 F 
ENDBRANCH  20  21
ENDBRANCH  19  20
ENDBRANCH  10  19
TORSDOF 3
ENDMDL
MODEL 5
REMARK VINA RESULT:      -7.6      1.983      2.693
REMARK  Name = 
REMARK  4 active torsions:
REMARK  status: ('A' for Active; 'I' for Inactive)
REMARK    1  A    between atoms: C_1  and  C_2
REMARK    2  A    between atoms: C_10  and  C_12
REMARK    3  A    between atoms: C_12  and  C_13
REMARK    4  A    between atoms: C_13  and  C_14
REMARK                            x       y       z     vdW  Elec       q    Type
REMARK                         _______ _______ _______ _____ _____    ______ ____
ROOT
ATOM      1  C   UNL     1       2.483  13.810  18.110  0.00  0.00    +0.000 C 
ATOM      2  C   UNL     1       1.362  13.403  19.020  0.00  0.00    +0.000 C 
ATOM      3  O   UNL     1       0.585  14.254  19.473  0.00  0.00    +0.000 OA
ATOM      4  N   UNL     1       1.175  12.055  19.228  0.00  0.00    +0.000 N 
ATOM      5  C   UNL     1       2.025  10.921  18.855  0.00  0.00    +0.000 C 
ATOM      6  C   UNL     1       1.137   9.624  18.976  0.00  0.00    +0.000 C 
ATOM      7  C   UNL     1       1.569   8.626  20.083  0.00  0.00    +0.000 C 
ATOM      8  C   UNL     1       2.406   7.385  19.736  0.00  0.00    +0.000 C 
ATOM      9  N   UNL     1       3.051   7.380  18.443  0.00  0.00    +0.000 N 
ATOM     10  C   UNL     1       4.032   6.447  18.067  0.00  0.00    +0.000 C 
ATOM     11  O   UNL     1       4.337   6.308  16.876  0.00  0.00    +0.000 OA
ATOM     12  C   UNL     1       2.341   7.975  17.322  0.00  0.00    +0.000 C 
ATOM     13  C   UNL     1       1.158   8.902  17.613  0.00  0.00    +0.000 C 
ATOM     14  C   UNL     1      -0.304  10.247  19.245  0.00  0.00    +0.000 C 
ATOM     15  C   UNL     1      -1.219   9.702  20.332  0.00  0.00    +0.000 C 
ATOM     16  O   UNL     1      -0.673  10.133  21.590  0.00  0.00    +0.000 OA
ATOM     17  C   UNL     1       0.059  11.349  21.348  0.00  0.00    +0.000 C 
ATOM     18  C   UNL     1      -0.035  11.610  19.847  0.00  0.00    +0.000 C 
ENDROOT
BRANCH  10  19
ATOM     19  C   UNL     1       4.711   5.559  19.107  0.00  0.00    +0.000 C 
BRANCH  19  20
ATOM     20  C   UNL     1       4.454   4.090  18.738  0.00  0.00    +0.000 C 
BRANCH  20  21
ATOM     21  C   UNL     1       3.109   3.563  19.167  0.00  0.00    +0.000 A 
ATOM     22  C   UNL     1       2.852   3.267  20.513  0.00  0.00    +0.000 A 
ATOM     23  C   UNL     1       1.584   2.841  20.901  0.00  0.00    +0.000 A 
ATOM     24  F   UNL     1       1.345   2.574  22.192  0.00  0.00    +0.000 F 
ATOM     25  C   UNL     1       0.557   2.698  19.974  0.00  0.00    +0.000 A 
ATOM     26  C   UNL     1       0.805   2.978  18.631  0.00  0.00    +0.000 A 
ATOM     27  C   UNL     1       2.074   3.404  18.239  0.00  0.00    +0.000 A 
ATOM     28  F   UNL     1       2.291   3.677  16.945  0.00  0.00    +0.000 F 
ENDBRANCH  20  21
ENDBRANCH  19  20
ENDBRANCH  10  19
TORSDOF 3
ENDMDL
MODEL 6
REMARK VINA RESULT:      -7.5      1.071      1.071
REMARK  Name = 
REMARK  4 active torsions:
REMARK  status: ('A' for Active; 'I' for Inactive)
REMARK    1  A    between atoms: C_1  and  C_2
REMARK    2  A    between atoms: C_10  and  C_12
REMARK    3  A    between atoms: C_12  and  C_13
REMARK    4  A    between atoms: C_13  and  C_14
REMARK                            x       y       z     vdW  Elec       q    Type
REMARK                         _______ _______ _______ _____ _____    ______ ____
ROOT
ATOM      1  C   UNL     1       2.765  15.487  21.353  0.00  0.00    +0.000 C 
ATOM      2  C   UNL     1       1.393  15.221  21.897  0.00  0.00    +0.000 C 
ATOM      3  O   UNL     1       0.805  16.087  22.559  0.00  0.00    +0.000 OA
ATOM      4  N   UNL     1       0.787  14.039  21.535  0.00  0.00    +0.000 N 
ATOM      5  C   UNL     1       1.344  12.873  20.842  0.00  0.00    +0.000 C 
ATOM      6  C   UNL     1       0.122  12.012  20.341  0.00  0.00    +0.000 C 
ATOM      7  C   UNL     1      -0.021  10.617  21.006  0.00  0.00    +0.000 C 
ATOM      8  C   UNL     1       0.487   9.353  20.293  0.00  0.00    +0.000 C 
ATOM      9  N   UNL     1       1.390   9.555  19.184  0.00  0.00    +0.000 N 
ATOM     10  C   UNL     1       2.127   8.520  18.584  0.00  0.00    +0.000 C 
ATOM     11  O   UNL     1       2.653   8.690  17.477  0.00  0.00    +0.000 OA
ATOM     12  C   UNL     1       1.165  10.700  18.317  0.00  0.00    +0.000 C 
ATOM     13  C   UNL     1       0.260  11.829  18.816  0.00  0.00    +0.000 C 
ATOM     14  C   UNL     1      -1.104  12.973  20.671  0.00  0.00    +0.000 C 
ATOM     15  C   UNL     1      -2.365  12.456  21.345  0.00  0.00    +0.000 C 
ATOM     16  O   UNL     1      -2.034  12.219  22.724  0.00  0.00    +0.000 OA
ATOM     17  C   UNL     1      -0.952  13.105  23.064  0.00  0.00    +0.000 C 
ATOM     18  C   UNL     1      -0.610  13.869  21.788  0.00  0.00    +0.000 C 
ENDROOT
BRANCH  10  19
ATOM     19  C   UNL     1       2.260   7.157  19.257  0.00  0.00    +0.000 C 
BRANCH  19  20
ATOM     20  C   UNL     1       2.019   6.065  18.204  0.00  0.00    +0.000 C 
BRANCH  20  21
ATOM     21  C   UNL     1       2.077   4.657  18.739  0.00  0.00    +0.000 A 
ATOM     22  C   UNL     1       1.449   4.324  19.947  0.00  0.00    +0.000 A 
ATOM     23  C   UNL     1       1.459   3.004  20.396  0.00  0.00    +0.000 A 
ATOM     24  F   UNL     1       0.843   2.695  21.544  0.00  0.00    +0.000 F 
ATOM     25  C   UNL     1       2.087   2.001  19.666  0.00  0.00    +0.000 A 
ATOM     26  C   UNL     1       2.725   2.324  18.469  0.00  0.00    +0.000 A 
ATOM     27  C   UNL     1       2.718   3.643  18.018  0.00  0.00    +0.000 A 
ATOM     28  F   UNL     1       3.328   3.933  16.861  0.00  0.00    +0.000 F 
ENDBRANCH  20  21
ENDBRANCH  19  20
ENDBRANCH  10  19
TORSDOF 3
ENDMDL
MODEL 7
REMARK VINA RESULT:      -7.5      2.471      3.204
REMARK  Name = 
REMARK  4 active torsions:
REMARK  status: ('A' for Active; 'I' for Inactive)
REMARK    1  A    between atoms: C_1  and  C_2
REMARK    2  A    between atoms: C_10  and  C_12
REMARK    3  A    between atoms: C_12  and  C_13
REMARK    4  A    between atoms: C_13  and  C_14
REMARK                            x       y       z     vdW  Elec       q    Type
REMARK                         _______ _______ _______ _____ _____    ______ ____
ROOT
ATOM      1  C   UNL     1       2.822  14.628  17.914  0.00  0.00    +0.000 C 
ATOM      2  C   UNL     1       1.747  14.613  18.959  0.00  0.00    +0.000 C 
ATOM      3  O   UNL     1       1.256  15.675  19.365  0.00  0.00    +0.000 OA
ATOM      4  N   UNL     1       1.263  13.385  19.351  0.00  0.00    +0.000 N 
ATOM      5  C   UNL     1       1.764  12.041  19.054  0.00  0.00    +0.000 C 
ATOM      6  C   UNL     1       0.607  11.031  19.412  0.00  0.00    +0.000 C 
ATOM      7  C   UNL     1       0.906  10.074  20.596  0.00  0.00    +0.000 C 
ATOM      8  C   UNL     1       1.372   8.632  20.340  0.00  0.00    +0.000 C 
ATOM      9  N   UNL     1       1.846   8.332  19.008  0.00  0.00    +0.000 N 
ATOM     10  C   UNL     1       2.522   7.148  18.672  0.00  0.00    +0.000 C 
ATOM     11  O   UNL     1       2.648   6.815  17.487  0.00  0.00    +0.000 OA
ATOM     12  C   UNL     1       1.180   8.971  17.884  0.00  0.00    +0.000 C 
ATOM     13  C   UNL     1       0.298  10.193  18.154  0.00  0.00    +0.000 C 
ATOM     14  C   UNL     1      -0.599  12.024  19.721  0.00  0.00    +0.000 C 
ATOM     15  C   UNL     1      -1.490  11.843  20.941  0.00  0.00    +0.000 C 
ATOM     16  O   UNL     1      -0.718  12.246  22.084  0.00  0.00    +0.000 OA
ATOM     17  C   UNL     1       0.255  13.205  21.629  0.00  0.00    +0.000 C 
ATOM     18  C   UNL     1       0.058  13.328  20.121  0.00  0.00    +0.000 C 
ENDROOT
BRANCH  10  19
ATOM     19  C   UNL     1       3.078   6.226  19.754  0.00  0.00    +0.000 C 
BRANCH  19  20
ATOM     20  C   UNL     1       3.495   4.899  19.101  0.00  0.00    +0.000 C 
BRANCH  20  21
ATOM     21  C   UNL     1       4.880   4.904  18.506  0.00  0.00    +0.000 A 
ATOM     22  C   UNL     1       5.977   5.363  19.249  0.00  0.00    +0.000 A 
ATOM     23  C   UNL     1       7.259   5.302  18.706  0.00  0.00    +0.000 A 
ATOM     24  F   UNL     1       8.302   5.730  19.430  0.00  0.00    +0.000 F 
ATOM     25  C   UNL     1       7.477   4.794  17.430  0.00  0.00    +0.000 A 
ATOM     26  C   UNL     1       6.392   4.346  16.678  0.00  0.00    +0.000 A 
ATOM     27  C   UNL     1       5.107   4.407  17.218  0.00  0.00    +0.000 A 
ATOM     28  F   UNL     1       4.078   3.964  16.484  0.00  0.00    +0.000 F 
ENDBRANCH  20  21
ENDBRANCH  19  20
ENDBRANCH  10  19
TORSDOF 3
ENDMDL
MODEL 8
REMARK VINA RESULT:      -7.5      1.489      1.625
REMARK  Name = 
REMARK  4 active torsions:
REMARK  status: ('A' for Active; 'I' for Inactive)
REMARK    1  A    between atoms: C_1  and  C_2
REMARK    2  A    between atoms: C_10  and  C_12
REMARK    3  A    between atoms: C_12  and  C_13
REMARK    4  A    between atoms: C_13  and  C_14
REMARK                            x       y       z     vdW  Elec       q    Type
REMARK                         _______ _______ _______ _____ _____    ______ ____
ROOT
ATOM      1  C   UNL     1       2.102  15.705  21.803  0.00  0.00    +0.000 C 
ATOM      2  C   UNL     1       0.732  15.343  22.295  0.00  0.00    +0.000 C 
ATOM      3  O   UNL     1       0.082  16.146  22.978  0.00  0.00    +0.000 OA
ATOM      4  N   UNL     1       0.201  14.148  21.865  0.00  0.00    +0.000 N 
ATOM      5  C   UNL     1       0.837  13.046  21.138  0.00  0.00    +0.000 C 
ATOM      6  C   UNL     1      -0.324  12.145  20.565  0.00  0.00    +0.000 C 
ATOM      7  C   UNL     1      -0.409  10.716  21.164  0.00  0.00    +0.000 C 
ATOM      8  C   UNL     1       0.184   9.514  20.411  0.00  0.00    +0.000 C 
ATOM      9  N   UNL     1       1.104   9.813  19.338  0.00  0.00    +0.000 N 
ATOM     10  C   UNL     1       1.910   8.847  18.713  0.00  0.00    +0.000 C 
ATOM     11  O   UNL     1       2.454   9.094  17.630  0.00  0.00    +0.000 OA
ATOM     12  C   UNL     1       0.840  10.983  18.515  0.00  0.00    +0.000 C 
ATOM     13  C   UNL     1      -0.137  12.039  19.038  0.00  0.00    +0.000 C 
ATOM     14  C   UNL     1      -1.608  13.025  20.903  0.00  0.00    +0.000 C 
ATOM     15  C   UNL     1      -2.857  12.412  21.518  0.00  0.00    +0.000 C 
ATOM     16  O   UNL     1      -2.548  12.131  22.894  0.00  0.00    +0.000 OA
ATOM     17  C   UNL     1      -1.525  13.056  23.303  0.00  0.00    +0.000 C 
ATOM     18  C   UNL     1      -1.192  13.894  22.071  0.00  0.00    +0.000 C 
ENDROOT
BRANCH  10  19
ATOM     19  C   UNL     1       2.099   7.464  19.330  0.00  0.00    +0.000 C 
BRANCH  19  20
ATOM     20  C   UNL     1       2.470   6.476  18.213  0.00  0.00    +0.000 C 
BRANCH  20  21
ATOM     21  C   UNL     1       2.545   5.036  18.651  0.00  0.00    +0.000 A 
ATOM     22  C   UNL     1       1.476   4.160  18.417  0.00  0.00    +0.000 A 
ATOM     23  C   UNL     1       1.587   2.817  18.773  0.00  0.00    +0.000 A 
ATOM     24  F   UNL     1       0.565   1.985  18.532  0.00  0.00    +0.000 F 
ATOM     25  C   UNL     1       2.745   2.322  19.363  0.00  0.00    +0.000 A 
ATOM     26  C   UNL     1       3.809   3.188  19.611  0.00  0.00    +0.000 A 
ATOM     27  C   UNL     1       3.701   4.532  19.258  0.00  0.00    +0.000 A 
ATOM     28  F   UNL     1       4.737   5.347  19.495  0.00  0.00    +0.000 F 
ENDBRANCH  20  21
ENDBRANCH  19  20
ENDBRANCH  10  19
TORSDOF 3
ENDMDL
MODEL 9
REMARK VINA RESULT:      -7.3      1.021      1.087
REMARK  Name = 
REMARK  4 active torsions:
REMARK  status: ('A' for Active; 'I' for Inactive)
REMARK    1  A    between atoms: C_1  and  C_2
REMARK    2  A    between atoms: C_10  and  C_12
REMARK    3  A    between atoms: C_12  and  C_13
REMARK    4  A    between atoms: C_13  and  C_14
REMARK                            x       y       z     vdW  Elec       q    Type
REMARK                         _______ _______ _______ _____ _____    ______ ____
ROOT
ATOM      1  C   UNL     1       2.158  15.777  19.010  0.00  0.00    +0.000 C 
ATOM      2  C   UNL     1       1.082  15.639  20.046  0.00  0.00    +0.000 C 
ATOM      3  O   UNL     1       0.598  16.645  20.581  0.00  0.00    +0.000 OA
ATOM      4  N   UNL     1       0.591  14.375  20.283  0.00  0.00    +0.000 N 
ATOM      5  C   UNL     1       1.084  13.074  19.821  0.00  0.00    +0.000 C 
ATOM      6  C   UNL     1      -0.079  12.035  20.051  0.00  0.00    +0.000 C 
ATOM      7  C   UNL     1       0.214  10.937  21.107  0.00  0.00    +0.000 C 
ATOM      8  C   UNL     1       0.672   9.534  20.672  0.00  0.00    +0.000 C 
ATOM      9  N   UNL     1       1.144   9.400  19.314  0.00  0.00    +0.000 N 
ATOM     10  C   UNL     1       1.813   8.262  18.832  0.00  0.00    +0.000 C 
ATOM     11  O   UNL     1       1.937   8.079  17.615  0.00  0.00    +0.000 OA
ATOM     12  C   UNL     1       0.481  10.178  18.278  0.00  0.00    +0.000 C 
ATOM     13  C   UNL     1      -0.393  11.362  18.699  0.00  0.00    +0.000 C 
ATOM     14  C   UNL     1      -1.279  12.989  20.482  0.00  0.00    +0.000 C 
ATOM     15  C   UNL     1      -2.171  12.663  21.670  0.00  0.00    +0.000 C 
ATOM     16  O   UNL     1      -1.396  12.916  22.854  0.00  0.00    +0.000 OA
ATOM     17  C   UNL     1      -0.417  13.918  22.522  0.00  0.00    +0.000 C 
ATOM     18  C   UNL     1      -0.614  14.229  21.040  0.00  0.00    +0.000 C 
ENDROOT
BRANCH  10  19
ATOM     19  C   UNL     1       2.364   7.210  19.791  0.00  0.00    +0.000 C 
BRANCH  19  20
ATOM     20  C   UNL     1       2.885   6.022  18.968  0.00  0.00    +0.000 C 
BRANCH  20  21
ATOM     21  C   UNL     1       2.971   4.724  19.729  0.00  0.00    +0.000 A 
ATOM     22  C   UNL     1       1.979   4.369  20.653  0.00  0.00    +0.000 A 
ATOM     23  C   UNL     1       2.042   3.137  21.302  0.00  0.00    +0.000 A 
ATOM     24  F   UNL     1       1.081   2.801  22.172  0.00  0.00    +0.000 F 
ATOM     25  C   UNL     1       3.079   2.245  21.053  0.00  0.00    +0.000 A 
ATOM     26  C   UNL     1       4.078   2.594  20.145  0.00  0.00    +0.000 A 
ATOM     27  C   UNL     1       4.018   3.826  19.495  0.00  0.00    +0.000 A 
ATOM     28  F   UNL     1       4.982   4.140  18.619  0.00  0.00    +0.000 F 
ENDBRANCH  20  21
ENDBRANCH  19  20
ENDBRANCH  10  19
TORSDOF 3
ENDMDL
