MODEL 1
REMARK VINA RESULT:      -9.5      0.000      0.000
REMARK  Name = 
REMARK  6 active torsions:
REMARK  status: ('A' for Active; 'I' for Inactive)
REMARK    1  A    between atoms: C_1  and  N_2
REMARK    2  A    between atoms: N_7  and  C_8
REMARK    3  A    between atoms: C_8  and  C_9
REMARK    4  A    between atoms: C_14  and  N_15
REMARK    5  A    between atoms: C_22  and  C_23
REMARK    6  A    between atoms: C_23  and  C_24
REMARK                            x       y       z     vdW  Elec       q    Type
REMARK                         _______ _______ _______ _____ _____    ______ ____
ROOT
ATOM      1  C   UNL     1       4.702   4.309  17.479  0.00  0.00    +0.000 A 
ATOM      2  C   UNL     1       4.007   3.171  17.897  0.00  0.00    +0.000 A 
ATOM      3  C   UNL     1       2.811   3.314  18.589  0.00  0.00    +0.000 A 
ATOM      4  F   UNL     1       2.152   2.216  18.986  0.00  0.00    +0.000 F 
ATOM      5  C   UNL     1       2.289   4.569  18.885  0.00  0.00    +0.000 A 
ATOM      6  C   UNL     1       2.944   5.725  18.452  0.00  0.00    +0.000 A 
ATOM      7  C   UNL     1       4.140   5.575  17.730  0.00  0.00    +0.000 A 
ENDROOT
BRANCH   6   8
ATOM      8  N   UNL     1       2.430   7.016  18.735  0.00  0.00    +0.000 N 
ATOM      9  C   UNL     1       1.725   7.319  19.974  0.00  0.00    +0.000 C 
ATOM     10  C   UNL     1       1.395   8.772  19.839  0.00  0.00    +0.000 A 
ATOM     11  C   UNL     1       1.863   9.240  18.615  0.00  0.00    +0.000 A 
ATOM     12  C   UNL     1       1.678  10.542  18.188  0.00  0.00    +0.000 A 
ATOM     13  C   UNL     1       0.997  11.407  19.041  0.00  0.00    +0.000 A 
ATOM     14  C   UNL     1       0.531  10.955  20.290  0.00  0.00    +0.000 A 
ATOM     15  C   UNL     1       0.728   9.625  20.716  0.00  0.00    +0.000 A 
ATOM     16  C   UNL     1       2.534   8.141  17.914  0.00  0.00    +0.000 C 
ATOM     17  O   UNL     1       3.030   8.277  16.811  0.00  0.00    +0.000 OA
BRANCH  15  18
ATOM     18  C   UNL     1       0.234   9.170  22.068  0.00  0.00    +0.000 C 
ATOM     19  C   UNL     1      -0.473  10.286  22.818  0.00  0.00    +0.000 C 
ATOM     20  F   UNL     1      -0.632   8.120  21.971  0.00  0.00    +0.000 F 
ATOM     21  F   UNL     1       1.251   8.720  22.860  0.00  0.00    +0.000 F 
ENDBRANCH  15  18
ENDBRANCH   6   8
BRANCH   1  22
ATOM     22  C   UNL     1       6.049   4.202  16.804  0.00  0.00    +0.000 C 
BRANCH  22  29
ATOM     23  C   UNL     1       5.845   3.289  12.479  0.00  0.00    +0.000 C 
ATOM     24  N   UNL     1       6.698   4.222  13.158  0.00  0.00    +0.000 N 
ATOM     25  C   UNL     1       7.669   4.981  12.578  0.00  0.00    +0.000 A 
ATOM     26  N   UNL     1       8.292   5.676  13.500  0.00  0.00    +0.000 NA
ATOM     27  N   UNL     1       7.720   5.358  14.711  0.00  0.00    +0.000 NA
ATOM     28  C   UNL     1       6.750   4.492  14.502  0.00  0.00    +0.000 A 
ATOM     29  N   UNL     1       5.922   3.904  15.392  0.00  0.00    +0.000 N 
ATOM     30  H   UNL     1       5.087   3.403  15.121  0.00  0.00    +0.000 HD
ENDBRANCH  22  29
ENDBRANCH   1  22
TORSDOF 4
ENDMDL
MODEL 2
REMARK VINA RESULT:      -9.4      3.627      8.681
REMARK  Name = 
REMARK  6 active torsions:
REMARK  status: ('A' for Active; 'I' for Inactive)
REMARK    1  A    between atoms: C_1  and  N_2
REMARK    2  A    between atoms: N_7  and  C_8
REMARK    3  A    between atoms: C_8  and  C_9
REMARK    4  A    between atoms: C_14  and  N_15
REMARK    5  A    between atoms: C_22  and  C_23
REMARK    6  A    between atoms: C_23  and  C_24
REMARK                            x       y       z     vdW  Elec       q    Type
REMARK                         _______ _______ _______ _____ _____    ______ ____
ROOT
ATOM      1  C   UNL     1       0.703  10.434  19.750  0.00  0.00    +0.000 A 
ATOM      2  C   UNL     1       0.488  10.442  21.130  0.00  0.00    +0.000 A 
ATOM      3  C   UNL     1       0.857   9.337  21.888  0.00  0.00    +0.000 A 
ATOM      4  F   UNL     1       0.646   9.355  23.211  0.00  0.00    +0.000 F 
ATOM      5  C   UNL     1       1.431   8.214  21.302  0.00  0.00    +0.000 A 
ATOM      6  C   UNL     1       1.690   8.189  19.928  0.00  0.00    +0.000 A 
ATOM      7  C   UNL     1       1.338   9.319  19.170  0.00  0.00    +0.000 A 
ENDROOT
BRANCH   6   8
ATOM      8  N   UNL     1       2.279   7.059  19.308  0.00  0.00    +0.000 N 
ATOM      9  C   UNL     1       3.241   7.182  18.219  0.00  0.00    +0.000 C 
ATOM     10  C   UNL     1       3.593   5.762  17.906  0.00  0.00    +0.000 A 
ATOM     11  C   UNL     1       2.872   4.912  18.741  0.00  0.00    +0.000 A 
ATOM     12  C   UNL     1       2.959   3.534  18.666  0.00  0.00    +0.000 A 
ATOM     13  C   UNL     1       3.818   2.996  17.711  0.00  0.00    +0.000 A 
ATOM     14  C   UNL     1       4.566   3.840  16.869  0.00  0.00    +0.000 A 
ATOM     15  C   UNL     1       4.471   5.244  16.957  0.00  0.00    +0.000 A 
ATOM     16  C   UNL     1       2.049   5.723  19.643  0.00  0.00    +0.000 C 
ATOM     17  O   UNL     1       1.311   5.228  20.474  0.00  0.00    +0.000 OA
BRANCH  15  18
ATOM     18  C   UNL     1       5.299   6.127  16.054  0.00  0.00    +0.000 C 
ATOM     19  C   UNL     1       6.024   5.326  14.986  0.00  0.00    +0.000 C 
ATOM     20  F   UNL     1       4.540   7.070  15.424  0.00  0.00    +0.000 F 
ATOM     21  F   UNL     1       6.238   6.833  16.750  0.00  0.00    +0.000 F 
ENDBRANCH  15  18
ENDBRANCH   6   8
BRANCH   1  22
ATOM     22  C   UNL     1       0.236  11.573  18.876  0.00  0.00    +0.000 C 
BRANCH  22  29
ATOM     23  C   UNL     1      -2.664  10.356  15.762  0.00  0.00    +0.000 C 
ATOM     24  N   UNL     1      -2.922  10.932  17.050  0.00  0.00    +0.000 N 
ATOM     25  C   UNL     1      -4.148  11.267  17.542  0.00  0.00    +0.000 A 
ATOM     26  N   UNL     1      -4.010  11.821  18.723  0.00  0.00    +0.000 NA
ATOM     27  N   UNL     1      -2.664  11.855  19.007  0.00  0.00    +0.000 NA
ATOM     28  C   UNL     1      -2.010  11.306  18.005  0.00  0.00    +0.000 A 
ATOM     29  N   UNL     1      -0.681  11.125  17.848  0.00  0.00    +0.000 N 
ATOM     30  H   UNL     1      -0.287  10.524  17.137  0.00  0.00    +0.000 HD
ENDBRANCH  22  29
ENDBRANCH   1  22
TORSDOF 4
ENDMDL
MODEL 3
REMARK VINA RESULT:      -9.3      3.518      8.390
REMARK  Name = 
REMARK  6 active torsions:
REMARK  status: ('A' for Active; 'I' for Inactive)
REMARK    1  A    between atoms: C_1  and  N_2
REMARK    2  A    between atoms: N_7  and  C_8
REMARK    3  A    between atoms: C_8  and  C_9
REMARK    4  A    between atoms: C_14  and  N_15
REMARK    5  A    between atoms: C_22  and  C_23
REMARK    6  A    between atoms: C_23  and  C_24
REMARK                            x       y       z     vdW  Elec       q    Type
REMARK                         _______ _______ _______ _____ _____    ______ ____
ROOT
ATOM      1  C   UNL     1       0.425  10.650  19.933  0.00  0.00    +0.000 A 
ATOM      2  C   UNL     1       0.266  10.708  21.319  0.00  0.00    +0.000 A 
ATOM      3  C   UNL     1       0.663   9.631  22.102  0.00  0.00    +0.000 A 
ATOM      4  F   UNL     1       0.505   9.696  23.431  0.00  0.00    +0.000 F 
ATOM      5  C   UNL     1       1.213   8.486  21.534  0.00  0.00    +0.000 A 
ATOM      6  C   UNL     1       1.417   8.411  20.153  0.00  0.00    +0.000 A 
ATOM      7  C   UNL     1       1.036   9.513  19.369  0.00  0.00    +0.000 A 
ENDROOT
BRANCH   6   8
ATOM      8  N   UNL     1       1.980   7.258  19.550  0.00  0.00    +0.000 N 
ATOM      9  C   UNL     1       1.687   5.911  20.022  0.00  0.00    +0.000 C 
ATOM     10  C   UNL     1       2.471   5.039  19.092  0.00  0.00    +0.000 A 
ATOM     11  C   UNL     1       3.161   5.837  18.184  0.00  0.00    +0.000 A 
ATOM     12  C   UNL     1       4.003   5.319  17.216  0.00  0.00    +0.000 A 
ATOM     13  C   UNL     1       4.143   3.934  17.163  0.00  0.00    +0.000 A 
ATOM     14  C   UNL     1       3.440   3.111  18.063  0.00  0.00    +0.000 A 
ATOM     15  C   UNL     1       2.583   3.652  19.044  0.00  0.00    +0.000 A 
ATOM     16  C   UNL     1       2.845   7.243  18.454  0.00  0.00    +0.000 C 
ATOM     17  O   UNL     1       3.326   8.155  17.807  0.00  0.00    +0.000 OA
BRANCH  15  18
ATOM     18  C   UNL     1       1.827   2.746  19.986  0.00  0.00    +0.000 C 
ATOM     19  C   UNL     1       2.446   2.726  21.374  0.00  0.00    +0.000 C 
ATOM     20  F   UNL     1       0.521   3.119  20.118  0.00  0.00    +0.000 F 
ATOM     21  F   UNL     1       1.784   1.458  19.534  0.00  0.00    +0.000 F 
ENDBRANCH  15  18
ENDBRANCH   6   8
BRANCH   1  22
ATOM     22  C   UNL     1      -0.075  11.759  19.038  0.00  0.00    +0.000 C 
BRANCH  22  29
ATOM     23  C   UNL     1      -2.607  10.349  15.694  0.00  0.00    +0.000 C 
ATOM     24  N   UNL     1      -3.013  10.941  16.936  0.00  0.00    +0.000 N 
ATOM     25  C   UNL     1      -4.293  11.234  17.298  0.00  0.00    +0.000 A 
ATOM     26  N   UNL     1      -4.293  11.819  18.472  0.00  0.00    +0.000 NA
ATOM     27  N   UNL     1      -2.983  11.918  18.884  0.00  0.00    +0.000 NA
ATOM     28  C   UNL     1      -2.214  11.375  17.963  0.00  0.00    +0.000 A 
ATOM     29  N   UNL     1      -0.869  11.249  17.940  0.00  0.00    +0.000 N 
ATOM     30  H   UNL     1      -0.383  10.649  17.286  0.00  0.00    +0.000 HD
ENDBRANCH  22  29
ENDBRANCH   1  22
TORSDOF 4
ENDMDL
MODEL 4
REMARK VINA RESULT:      -9.2      3.786      8.478
REMARK  Name = 
REMARK  6 active torsions:
REMARK  status: ('A' for Active; 'I' for Inactive)
REMARK    1  A    between atoms: C_1  and  N_2
REMARK    2  A    between atoms: N_7  and  C_8
REMARK    3  A    between atoms: C_8  and  C_9
REMARK    4  A    between atoms: C_14  and  N_15
REMARK    5  A    between atoms: C_22  and  C_23
REMARK    6  A    between atoms: C_23  and  C_24
REMARK                            x       y       z     vdW  Elec       q    Type
REMARK                         _______ _______ _______ _____ _____    ______ ____
ROOT
ATOM      1  C   UNL     1      -0.013  11.080  19.999  0.00  0.00    +0.000 A 
ATOM      2  C   UNL     1      -0.387  11.114  21.344  0.00  0.00    +0.000 A 
ATOM      3  C   UNL     1      -0.060  10.048  22.174  0.00  0.00    +0.000 A 
ATOM      4  F   UNL     1      -0.424  10.089  23.463  0.00  0.00    +0.000 F 
ATOM      5  C   UNL     1       0.628   8.938  21.693  0.00  0.00    +0.000 A 
ATOM      6  C   UNL     1       1.045   8.891  20.360  0.00  0.00    +0.000 A 
ATOM      7  C   UNL     1       0.735   9.982  19.531  0.00  0.00    +0.000 A 
ENDROOT
BRANCH   6   8
ATOM      8  N   UNL     1       1.752   7.774  19.846  0.00  0.00    +0.000 N 
ATOM      9  C   UNL     1       1.779   6.487  20.529  0.00  0.00    +0.000 C 
ATOM     10  C   UNL     1       2.612   5.632  19.627  0.00  0.00    +0.000 A 
ATOM     11  C   UNL     1       3.032   6.386  18.535  0.00  0.00    +0.000 A 
ATOM     12  C   UNL     1       3.849   5.879  17.541  0.00  0.00    +0.000 A 
ATOM     13  C   UNL     1       4.248   4.549  17.655  0.00  0.00    +0.000 A 
ATOM     14  C   UNL     1       3.819   3.767  18.744  0.00  0.00    +0.000 A 
ATOM     15  C   UNL     1       2.985   4.296  19.750  0.00  0.00    +0.000 A 
ATOM     16  C   UNL     1       2.481   7.740  18.655  0.00  0.00    +0.000 C 
ATOM     17  O   UNL     1       2.703   8.609  17.833  0.00  0.00    +0.000 OA
BRANCH  15  18
ATOM     18  C   UNL     1       2.524   3.430  20.899  0.00  0.00    +0.000 C 
ATOM     19  C   UNL     1       1.140   2.853  20.654  0.00  0.00    +0.000 C 
ATOM     20  F   UNL     1       3.374   2.389  21.130  0.00  0.00    +0.000 F 
ATOM     21  F   UNL     1       2.481   4.122  22.075  0.00  0.00    +0.000 F 
ENDBRANCH  15  18
ENDBRANCH   6   8
BRANCH   1  22
ATOM     22  C   UNL     1      -0.425  12.173  19.042  0.00  0.00    +0.000 C 
BRANCH  22  29
ATOM     23  C   UNL     1      -2.749  10.700  15.576  0.00  0.00    +0.000 C 
ATOM     24  N   UNL     1      -3.229  11.136  16.855  0.00  0.00    +0.000 N 
ATOM     25  C   UNL     1      -4.537  11.228  17.227  0.00  0.00    +0.000 A 
ATOM     26  N   UNL     1      -4.614  11.716  18.442  0.00  0.00    +0.000 NA
ATOM     27  N   UNL     1      -3.329  11.955  18.873  0.00  0.00    +0.000 NA
ATOM     28  C   UNL     1      -2.495  11.592  17.921  0.00  0.00    +0.000 A 
ATOM     29  N   UNL     1      -1.145  11.648  17.901  0.00  0.00    +0.000 N 
ATOM     30  H   UNL     1      -0.584  11.171  17.207  0.00  0.00    +0.000 HD
ENDBRANCH  22  29
ENDBRANCH   1  22
TORSDOF 4
ENDMDL
MODEL 5
REMARK VINA RESULT:      -9.2      1.101      1.229
REMARK  Name = 
REMARK  6 active torsions:
REMARK  status: ('A' for Active; 'I' for Inactive)
REMARK    1  A    between atoms: C_1  and  N_2
REMARK    2  A    between atoms: N_7  and  C_8
REMARK    3  A    between atoms: C_8  and  C_9
REMARK    4  A    between atoms: C_14  and  N_15
REMARK    5  A    between atoms: C_22  and  C_23
REMARK    6  A    between atoms: C_23  and  C_24
REMARK                            x       y       z     vdW  Elec       q    Type
REMARK                         _______ _______ _______ _____ _____    ______ ____
ROOT
ATOM      1  C   UNL     1       4.291   4.045  18.855  0.00  0.00    +0.000 A 
ATOM      2  C   UNL     1       3.662   3.019  19.564  0.00  0.00    +0.000 A 
ATOM      3  C   UNL     1       2.529   3.301  20.318  0.00  0.00    +0.000 A 
ATOM      4  F   UNL     1       1.934   2.310  20.995  0.00  0.00    +0.000 F 
ATOM      5  C   UNL     1       2.006   4.588  20.389  0.00  0.00    +0.000 A 
ATOM      6  C   UNL     1       2.594   5.629  19.663  0.00  0.00    +0.000 A 
ATOM      7  C   UNL     1       3.724   5.334  18.883  0.00  0.00    +0.000 A 
ENDROOT
BRANCH   6   8
ATOM      8  N   UNL     1       2.078   6.948  19.714  0.00  0.00    +0.000 N 
ATOM      9  C   UNL     1       1.350   7.456  20.871  0.00  0.00    +0.000 C 
ATOM     10  C   UNL     1       1.026   8.865  20.485  0.00  0.00    +0.000 A 
ATOM     11  C   UNL     1       1.518   9.120  19.208  0.00  0.00    +0.000 A 
ATOM     12  C   UNL     1       1.344  10.330  18.563  0.00  0.00    +0.000 A 
ATOM     13  C   UNL     1       0.649  11.326  19.245  0.00  0.00    +0.000 A 
ATOM     14  C   UNL     1       0.158  11.092  20.543  0.00  0.00    +0.000 A 
ATOM     15  C   UNL     1       0.345   9.854  21.191  0.00  0.00    +0.000 A 
ATOM     16  C   UNL     1       2.200   7.918  18.716  0.00  0.00    +0.000 C 
ATOM     17  O   UNL     1       2.716   7.866  17.615  0.00  0.00    +0.000 OA
BRANCH  15  18
ATOM     18  C   UNL     1      -0.176   9.634  22.592  0.00  0.00    +0.000 C 
ATOM     19  C   UNL     1      -1.015  10.805  23.075  0.00  0.00    +0.000 C 
ATOM     20  F   UNL     1      -0.940   8.508  22.684  0.00  0.00    +0.000 F 
ATOM     21  F   UNL     1       0.836   9.452  23.491  0.00  0.00    +0.000 F 
ENDBRANCH  15  18
ENDBRANCH   6   8
BRANCH   1  22
ATOM     22  C   UNL     1       5.575   3.803  18.097  0.00  0.00    +0.000 C 
BRANCH  22  29
ATOM     23  C   UNL     1       5.079   3.594  13.704  0.00  0.00    +0.000 C 
ATOM     24  N   UNL     1       6.066   4.309  14.461  0.00  0.00    +0.000 N 
ATOM     25  C   UNL     1       7.096   5.034  13.942  0.00  0.00    +0.000 A 
ATOM     26  N   UNL     1       7.836   5.504  14.918  0.00  0.00    +0.000 NA
ATOM     27  N   UNL     1       7.282   5.070  16.101  0.00  0.00    +0.000 NA
ATOM     28  C   UNL     1       6.207   4.362  15.825  0.00  0.00    +0.000 A 
ATOM     29  N   UNL     1       5.353   3.741  16.667  0.00  0.00    +0.000 N 
ATOM     30  H   UNL     1       4.453   3.385  16.375  0.00  0.00    +0.000 HD
ENDBRANCH  22  29
ENDBRANCH   1  22
TORSDOF 4
ENDMDL
MODEL 6
REMARK VINA RESULT:      -9.1      3.514      8.766
REMARK  Name = 
REMARK  6 active torsions:
REMARK  status: ('A' for Active; 'I' for Inactive)
REMARK    1  A    between atoms: C_1  and  N_2
REMARK    2  A    between atoms: N_7  and  C_8
REMARK    3  A    between atoms: C_8  and  C_9
REMARK    4  A    between atoms: C_14  and  N_15
REMARK    5  A    between atoms: C_22  and  C_23
REMARK    6  A    between atoms: C_23  and  C_24
REMARK                            x       y       z     vdW  Elec       q    Type
REMARK                         _______ _______ _______ _____ _____    ______ ____
ROOT
ATOM      1  C   UNL     1       0.748  10.349  19.659  0.00  0.00    +0.000 A 
ATOM      2  C   UNL     1       0.533  10.365  21.039  0.00  0.00    +0.000 A 
ATOM      3  C   UNL     1       0.911   9.268  21.805  0.00  0.00    +0.000 A 
ATOM      4  F   UNL     1       0.701   9.294  23.128  0.00  0.00    +0.000 F 
ATOM      5  C   UNL     1       1.494   8.145  21.227  0.00  0.00    +0.000 A 
ATOM      6  C   UNL     1       1.752   8.113  19.853  0.00  0.00    +0.000 A 
ATOM      7  C   UNL     1       1.392   9.234  19.087  0.00  0.00    +0.000 A 
ENDROOT
BRANCH   6   8
ATOM      8  N   UNL     1       2.350   6.984  19.240  0.00  0.00    +0.000 N 
ATOM      9  C   UNL     1       3.326   7.106  18.164  0.00  0.00    +0.000 C 
ATOM     10  C   UNL     1       3.683   5.687  17.855  0.00  0.00    +0.000 A 
ATOM     11  C   UNL     1       2.952   4.837  18.681  0.00  0.00    +0.000 A 
ATOM     12  C   UNL     1       3.040   3.459  18.608  0.00  0.00    +0.000 A 
ATOM     13  C   UNL     1       3.912   2.921  17.664  0.00  0.00    +0.000 A 
ATOM     14  C   UNL     1       4.671   3.765  16.831  0.00  0.00    +0.000 A 
ATOM     15  C   UNL     1       4.574   5.169  16.918  0.00  0.00    +0.000 A 
ATOM     16  C   UNL     1       2.117   5.647  19.573  0.00  0.00    +0.000 C 
ATOM     17  O   UNL     1       1.368   5.151  20.394  0.00  0.00    +0.000 OA
BRANCH  15  18
ATOM     18  C   UNL     1       5.413   6.053  16.026  0.00  0.00    +0.000 C 
ATOM     19  C   UNL     1       6.189   5.248  14.997  0.00  0.00    +0.000 C 
ATOM     20  F   UNL     1       4.656   6.968  15.353  0.00  0.00    +0.000 F 
ATOM     21  F   UNL     1       6.314   6.791  16.738  0.00  0.00    +0.000 F 
ENDBRANCH  15  18
ENDBRANCH   6   8
BRANCH   1  22
ATOM     22  C   UNL     1       0.271  11.478  18.777  0.00  0.00    +0.000 C 
BRANCH  22  29
ATOM     23  C   UNL     1      -4.041  12.234  19.425  0.00  0.00    +0.000 C 
ATOM     24  N   UNL     1      -3.414  11.442  18.406  0.00  0.00    +0.000 N 
ATOM     25  C   UNL     1      -4.059  10.713  17.454  0.00  0.00    +0.000 A 
ATOM     26  N   UNL     1      -3.180  10.067  16.724  0.00  0.00    +0.000 NA
ATOM     27  N   UNL     1      -1.932  10.376  17.216  0.00  0.00    +0.000 NA
ATOM     28  C   UNL     1      -2.073  11.216  18.220  0.00  0.00    +0.000 A 
ATOM     29  N   UNL     1      -1.127  11.783  18.999  0.00  0.00    +0.000 N 
ATOM     30  H   UNL     1      -1.316  12.560  19.618  0.00  0.00    +0.000 HD
ENDBRANCH  22  29
ENDBRANCH   1  22
TORSDOF 4
ENDMDL
MODEL 7
REMARK VINA RESULT:      -9.0      1.650      2.330
REMARK  Name = 
REMARK  6 active torsions:
REMARK  status: ('A' for Active; 'I' for Inactive)
REMARK    1  A    between atoms: C_1  and  N_2
REMARK    2  A    between atoms: N_7  and  C_8
REMARK    3  A    between atoms: C_8  and  C_9
REMARK    4  A    between atoms: C_14  and  N_15
REMARK    5  A    between atoms: C_22  and  C_23
REMARK    6  A    between atoms: C_23  and  C_24
REMARK                            x       y       z     vdW  Elec       q    Type
REMARK                         _______ _______ _______ _____ _____    ______ ____
ROOT
ATOM      1  C   UNL     1       3.875   3.583  19.675  0.00  0.00    +0.000 A 
ATOM      2  C   UNL     1       3.061   2.695  20.382  0.00  0.00    +0.000 A 
ATOM      3  C   UNL     1       1.888   3.156  20.966  0.00  0.00    +0.000 A 
ATOM      4  F   UNL     1       1.114   2.296  21.643  0.00  0.00    +0.000 F 
ATOM      5  C   UNL     1       1.505   4.490  20.871  0.00  0.00    +0.000 A 
ATOM      6  C   UNL     1       2.281   5.396  20.142  0.00  0.00    +0.000 A 
ATOM      7  C   UNL     1       3.453   4.919  19.531  0.00  0.00    +0.000 A 
ENDROOT
BRANCH   6   8
ATOM      8  N   UNL     1       1.911   6.759  20.024  0.00  0.00    +0.000 N 
ATOM      9  C   UNL     1       1.191   7.464  21.077  0.00  0.00    +0.000 C 
ATOM     10  C   UNL     1       1.041   8.848  20.528  0.00  0.00    +0.000 A 
ATOM     11  C   UNL     1       1.616   8.907  19.261  0.00  0.00    +0.000 A 
ATOM     12  C   UNL     1       1.605  10.051  18.484  0.00  0.00    +0.000 A 
ATOM     13  C   UNL     1       0.993  11.183  19.016  0.00  0.00    +0.000 A 
ATOM     14  C   UNL     1       0.420  11.146  20.302  0.00  0.00    +0.000 A 
ATOM     15  C   UNL     1       0.440   9.974  21.086  0.00  0.00    +0.000 A 
ATOM     16  C   UNL     1       2.184   7.594  18.939  0.00  0.00    +0.000 C 
ATOM     17  O   UNL     1       2.741   7.368  17.880  0.00  0.00    +0.000 OA
BRANCH  15  18
ATOM     18  C   UNL     1      -0.165   9.966  22.469  0.00  0.00    +0.000 C 
ATOM     19  C   UNL     1      -0.864  11.276  22.790  0.00  0.00    +0.000 C 
ATOM     20  F   UNL     1      -1.073   8.960  22.626  0.00  0.00    +0.000 F 
ATOM     21  F   UNL     1       0.774   9.751  23.437  0.00  0.00    +0.000 F 
ENDBRANCH  15  18
ENDBRANCH   6   8
BRANCH   1  22
ATOM     22  C   UNL     1       5.201   3.145  19.102  0.00  0.00    +0.000 C 
BRANCH  22  29
ATOM     23  C   UNL     1       7.271   6.547  17.171  0.00  0.00    +0.000 C 
ATOM     24  N   UNL     1       6.574   5.456  16.553  0.00  0.00    +0.000 N 
ATOM     25  C   UNL     1       6.373   5.294  15.216  0.00  0.00    +0.000 A 
ATOM     26  N   UNL     1       5.649   4.220  15.008  0.00  0.00    +0.000 NA
ATOM     27  N   UNL     1       5.365   3.671  16.237  0.00  0.00    +0.000 NA
ATOM     28  C   UNL     1       5.935   4.408  17.167  0.00  0.00    +0.000 A 
ATOM     29  N   UNL     1       5.924   4.252  18.508  0.00  0.00    +0.000 N 
ATOM     30  H   UNL     1       6.546   4.754  19.128  0.00  0.00    +0.000 HD
ENDBRANCH  22  29
ENDBRANCH   1  22
TORSDOF 4
ENDMDL
MODEL 8
REMARK VINA RESULT:      -9.0      3.280      8.464
REMARK  Name = 
REMARK  6 active torsions:
REMARK  status: ('A' for Active; 'I' for Inactive)
REMARK    1  A    between atoms: C_1  and  N_2
REMARK    2  A    between atoms: N_7  and  C_8
REMARK    3  A    between atoms: C_8  and  C_9
REMARK    4  A    between atoms: C_14  and  N_15
REMARK    5  A    between atoms: C_22  and  C_23
REMARK    6  A    between atoms: C_23  and  C_24
REMARK                            x       y       z     vdW  Elec       q    Type
REMARK                         _______ _______ _______ _____ _____    ______ ____
ROOT
ATOM      1  C   UNL     1       0.188  10.479  19.796  0.00  0.00    +0.000 A 
ATOM      2  C   UNL     1      -0.086  10.294  21.153  0.00  0.00    +0.000 A 
ATOM      3  C   UNL     1       0.411   9.172  21.806  0.00  0.00    +0.000 A 
ATOM      4  F   UNL     1       0.142   9.004  23.109  0.00  0.00    +0.000 F 
ATOM      5  C   UNL     1       1.171   8.219  21.137  0.00  0.00    +0.000 A 
ATOM      6  C   UNL     1       1.490   8.394  19.787  0.00  0.00    +0.000 A 
ATOM      7  C   UNL     1       1.007   9.542  19.137  0.00  0.00    +0.000 A 
ENDROOT
BRANCH   6   8
ATOM      8  N   UNL     1       2.268   7.441  19.082  0.00  0.00    +0.000 N 
ATOM      9  C   UNL     1       2.262   6.024  19.424  0.00  0.00    +0.000 C 
ATOM     10  C   UNL     1       3.195   5.421  18.422  0.00  0.00    +0.000 A 
ATOM     11  C   UNL     1       3.696   6.423  17.596  0.00  0.00    +0.000 A 
ATOM     12  C   UNL     1       4.613   6.179  16.589  0.00  0.00    +0.000 A 
ATOM     13  C   UNL     1       5.031   4.863  16.408  0.00  0.00    +0.000 A 
ATOM     14  C   UNL     1       4.523   3.835  17.223  0.00  0.00    +0.000 A 
ATOM     15  C   UNL     1       3.587   4.096  18.244  0.00  0.00    +0.000 A 
ATOM     16  C   UNL     1       3.104   7.704  17.995  0.00  0.00    +0.000 C 
ATOM     17  O   UNL     1       3.380   8.751  17.438  0.00  0.00    +0.000 OA
BRANCH  15  18
ATOM     18  C   UNL     1       3.043   2.972  19.093  0.00  0.00    +0.000 C 
ATOM     19  C   UNL     1       3.510   1.612  18.601  0.00  0.00    +0.000 C 
ATOM     20  F   UNL     1       3.413   3.091  20.401  0.00  0.00    +0.000 F 
ATOM     21  F   UNL     1       1.677   2.957  19.110  0.00  0.00    +0.000 F 
ENDBRANCH  15  18
ENDBRANCH   6   8
BRANCH   1  22
ATOM     22  C   UNL     1      -0.405  11.634  19.026  0.00  0.00    +0.000 C 
BRANCH  22  29
ATOM     23  C   UNL     1      -2.733  10.416  15.464  0.00  0.00    +0.000 C 
ATOM     24  N   UNL     1      -3.211  10.957  16.704  0.00  0.00    +0.000 N 
ATOM     25  C   UNL     1      -4.508  11.253  16.997  0.00  0.00    +0.000 A 
ATOM     26  N   UNL     1      -4.577  11.784  18.194  0.00  0.00    +0.000 NA
ATOM     27  N   UNL     1      -3.296  11.844  18.693  0.00  0.00    +0.000 NA
ATOM     28  C   UNL     1      -2.475  11.332  17.800  0.00  0.00    +0.000 A 
ATOM     29  N   UNL     1      -1.133  11.186  17.857  0.00  0.00    +0.000 N 
ATOM     30  H   UNL     1      -0.613  10.610  17.208  0.00  0.00    +0.000 HD
ENDBRANCH  22  29
ENDBRANCH   1  22
TORSDOF 4
ENDMDL
MODEL 9
REMARK VINA RESULT:      -8.9      3.681      8.580
REMARK  Name = 
REMARK  6 active torsions:
REMARK  status: ('A' for Active; 'I' for Inactive)
REMARK    1  A    between atoms: C_1  and  N_2
REMARK    2  A    between atoms: N_7  and  C_8
REMARK    3  A    between atoms: C_8  and  C_9
REMARK    4  A    between atoms: C_14  and  N_15
REMARK    5  A    between atoms: C_22  and  C_23
REMARK    6  A    between atoms: C_23  and  C_24
REMARK                            x       y       z     vdW  Elec       q    Type
REMARK                         _______ _______ _______ _____ _____    ______ ____
ROOT
ATOM      1  C   UNL     1       0.079  10.770  20.271  0.00  0.00    +0.000 A 
ATOM      2  C   UNL     1      -0.122  10.762  21.654  0.00  0.00    +0.000 A 
ATOM      3  C   UNL     1       0.285   9.663  22.400  0.00  0.00    +0.000 A 
ATOM      4  F   UNL     1       0.088   9.665  23.725  0.00  0.00    +0.000 F 
ATOM      5  C   UNL     1       0.884   8.560  21.800  0.00  0.00    +0.000 A 
ATOM      6  C   UNL     1       1.129   8.552  20.424  0.00  0.00    +0.000 A 
ATOM      7  C   UNL     1       0.739   9.677  19.677  0.00  0.00    +0.000 A 
ENDROOT
BRANCH   6   8
ATOM      8  N   UNL     1       1.743   7.444  19.788  0.00  0.00    +0.000 N 
ATOM      9  C   UNL     1       1.537   6.074  20.242  0.00  0.00    +0.000 C 
ATOM     10  C   UNL     1       2.349   5.264  19.280  0.00  0.00    +0.000 A 
ATOM     11  C   UNL     1       2.973   6.115  18.372  0.00  0.00    +0.000 A 
ATOM     12  C   UNL     1       3.820   5.662  17.378  0.00  0.00    +0.000 A 
ATOM     13  C   UNL     1       4.038   4.288  17.297  0.00  0.00    +0.000 A 
ATOM     14  C   UNL     1       3.403   3.412  18.196  0.00  0.00    +0.000 A 
ATOM     15  C   UNL     1       2.538   3.886  19.204  0.00  0.00    +0.000 A 
ATOM     16  C   UNL     1       2.583   7.496  18.674  0.00  0.00    +0.000 C 
ATOM     17  O   UNL     1       2.997   8.445  18.033  0.00  0.00    +0.000 OA
BRANCH  15  18
ATOM     18  C   UNL     1       1.855   2.923  20.146  0.00  0.00    +0.000 C 
ATOM     19  C   UNL     1       2.480   2.944  21.531  0.00  0.00    +0.000 C 
ATOM     20  F   UNL     1       0.526   3.198  20.285  0.00  0.00    +0.000 F 
ATOM     21  F   UNL     1       1.907   1.637  19.689  0.00  0.00    +0.000 F 
ENDBRANCH  15  18
ENDBRANCH   6   8
BRANCH   1  22
ATOM     22  C   UNL     1      -0.428  11.902  19.411  0.00  0.00    +0.000 C 
BRANCH  22  29
ATOM     23  C   UNL     1      -4.849  11.885  19.199  0.00  0.00    +0.000 C 
ATOM     24  N   UNL     1      -3.902  11.645  18.149  0.00  0.00    +0.000 N 
ATOM     25  C   UNL     1      -4.204  11.306  16.865  0.00  0.00    +0.000 A 
ATOM     26  N   UNL     1      -3.096  11.106  16.191  0.00  0.00    +0.000 NA
ATOM     27  N   UNL     1      -2.045  11.314  17.056  0.00  0.00    +0.000 NA
ATOM     28  C   UNL     1      -2.532  11.653  18.231  0.00  0.00    +0.000 A 
ATOM     29  N   UNL     1      -1.876  11.946  19.375  0.00  0.00    +0.000 N 
ATOM     30  H   UNL     1      -2.323  12.380  20.171  0.00  0.00    +0.000 HD
ENDBRANCH  22  29
ENDBRANCH   1  22
TORSDOF 4
ENDMDL
