MODEL 1
REMARK VINA RESULT:      -8.6      0.000      0.000
REMARK  Name = 
REMARK  3 active torsions:
REMARK  status: ('A' for Active; 'I' for Inactive)
REMARK    1  A    between atoms: C_1  and  C_2
REMARK    2  A    between atoms: C_4  and  C_5
REMARK    3  A    between atoms: C_15  and  C_16
REMARK                            x       y       z     vdW  Elec       q    Type
REMARK                         _______ _______ _______ _____ _____    ______ ____
ROOT
ATOM      1  C   UNL     1       5.825   5.512  17.999  0.00  0.00    +0.000 C 
ATOM      2  O   UNL     1       6.791   5.927  18.638  0.00  0.00    +0.000 OA
ATOM      3  N   UNL     1       5.969   4.903  16.740  0.00  0.00    +0.000 N 
ATOM      4  C   UNL     1       4.886   4.247  15.994  0.00  0.00    +0.000 C 
ATOM      5  C   UNL     1       5.336   3.269  14.913  0.00  0.00    +0.000 C 
ATOM      6  C   UNL     1       6.300   3.968  13.987  0.00  0.00    +0.000 A 
ATOM      7  C   UNL     1       7.247   4.821  14.606  0.00  0.00    +0.000 A 
ATOM      8  C   UNL     1       8.161   5.528  13.817  0.00  0.00    +0.000 A 
ATOM      9  C   UNL     1       8.131   5.413  12.430  0.00  0.00    +0.000 A 
ATOM     10  C   UNL     1       7.205   4.568  11.816  0.00  0.00    +0.000 A 
ATOM     11  C   UNL     1       6.286   3.833  12.582  0.00  0.00    +0.000 A 
ATOM     12  C   UNL     1       7.295   4.922  16.118  0.00  0.00    +0.000 C 
ENDROOT
BRANCH   1  16
ATOM     13  C   UNL     1       1.806   8.374  18.331  0.00  0.00    +0.000 C 
ATOM     14  C   UNL     1       2.533   7.122  18.720  0.00  0.00    +0.000 A 
ATOM     15  C   UNL     1       3.860   6.954  18.386  0.00  0.00    +0.000 A 
ATOM     16  C   UNL     1       4.453   5.704  18.569  0.00  0.00    +0.000 A 
ATOM     17  C   UNL     1       3.762   4.701  19.298  0.00  0.00    +0.000 A 
ATOM     18  C   UNL     1       4.290   3.441  19.691  0.00  0.00    +0.000 A 
ATOM     19  C   UNL     1       3.535   2.542  20.448  0.00  0.00    +0.000 A 
ATOM     20  C   UNL     1       2.236   2.870  20.811  0.00  0.00    +0.000 A 
ATOM     21  C   UNL     1       1.704   4.092  20.412  0.00  0.00    +0.000 A 
ATOM     22  C   UNL     1       2.435   5.012  19.673  0.00  0.00    +0.000 A 
ATOM     23  N   UNL     1       1.828   6.166  19.352  0.00  0.00    +0.000 NA
ENDBRANCH   1  16
BRANCH  11  24
ATOM     24  C   UNL     1       5.337   2.907  11.890  0.00  0.00    +0.000 C 
ATOM     25  N   UNL     1       5.789   1.650  11.590  0.00  0.00    +0.000 N 
ATOM     26  O   UNL     1       4.198   3.235  11.584  0.00  0.00    +0.000 OA
ATOM     27  H   UNL     1       6.746   1.352  11.698  0.00  0.00    +0.000 HD
ATOM     28  H   UNL     1       5.156   1.050  11.077  0.00  0.00    +0.000 HD
ENDBRANCH  11  24
TORSDOF 2
ENDMDL
MODEL 2
REMARK VINA RESULT:      -8.2      4.806      7.731
REMARK  Name = 
REMARK  3 active torsions:
REMARK  status: ('A' for Active; 'I' for Inactive)
REMARK    1  A    between atoms: C_1  and  C_2
REMARK    2  A    between atoms: C_4  and  C_5
REMARK    3  A    between atoms: C_15  and  C_16
REMARK                            x       y       z     vdW  Elec       q    Type
REMARK                         _______ _______ _______ _____ _____    ______ ____
ROOT
ATOM      1  C   UNL     1       1.543   9.611  18.519  0.00  0.00    +0.000 C 
ATOM      2  O   UNL     1       2.211  10.166  17.649  0.00  0.00    +0.000 OA
ATOM      3  N   UNL     1       1.860   8.326  18.998  0.00  0.00    +0.000 N 
ATOM      4  C   UNL     1       1.207   7.669  20.138  0.00  0.00    +0.000 C 
ATOM      5  C   UNL     1       1.991   6.523  20.768  0.00  0.00    +0.000 C 
ATOM      6  C   UNL     1       2.360   5.529  19.694  0.00  0.00    +0.000 A 
ATOM      7  C   UNL     1       2.782   6.079  18.460  0.00  0.00    +0.000 A 
ATOM      8  C   UNL     1       3.118   5.227  17.401  0.00  0.00    +0.000 A 
ATOM      9  C   UNL     1       3.018   3.846  17.549  0.00  0.00    +0.000 A 
ATOM     10  C   UNL     1       2.609   3.300  18.767  0.00  0.00    +0.000 A 
ATOM     11  C   UNL     1       2.282   4.128  19.852  0.00  0.00    +0.000 A 
ATOM     12  C   UNL     1       2.916   7.582  18.310  0.00  0.00    +0.000 C 
ENDROOT
BRANCH   1  16
ATOM     13  C   UNL     1      -0.390  12.527  22.014  0.00  0.00    +0.000 C 
ATOM     14  C   UNL     1      -0.572  11.712  20.769  0.00  0.00    +0.000 A 
ATOM     15  C   UNL     1       0.441  10.895  20.316  0.00  0.00    +0.000 A 
ATOM     16  C   UNL     1       0.332  10.314  19.052  0.00  0.00    +0.000 A 
ATOM     17  C   UNL     1      -0.902  10.384  18.353  0.00  0.00    +0.000 A 
ATOM     18  C   UNL     1      -1.211   9.720  17.135  0.00  0.00    +0.000 A 
ATOM     19  C   UNL     1      -2.476   9.822  16.554  0.00  0.00    +0.000 A 
ATOM     20  C   UNL     1      -3.452  10.600  17.162  0.00  0.00    +0.000 A 
ATOM     21  C   UNL     1      -3.151  11.271  18.344  0.00  0.00    +0.000 A 
ATOM     22  C   UNL     1      -1.908  11.175  18.953  0.00  0.00    +0.000 A 
ATOM     23  N   UNL     1      -1.729  11.854  20.097  0.00  0.00    +0.000 NA
ENDBRANCH   1  16
BRANCH  11  24
ATOM     24  C   UNL     1       1.888   3.504  21.153  0.00  0.00    +0.000 C 
ATOM     25  N   UNL     1       0.701   2.823  21.192  0.00  0.00    +0.000 N 
ATOM     26  O   UNL     1       2.577   3.587  22.162  0.00  0.00    +0.000 OA
ATOM     27  H   UNL     1       0.027   2.818  20.442  0.00  0.00    +0.000 HD
ATOM     28  H   UNL     1       0.421   2.448  22.090  0.00  0.00    +0.000 HD
ENDBRANCH  11  24
TORSDOF 2
ENDMDL
MODEL 3
REMARK VINA RESULT:      -8.1      4.157      8.203
REMARK  Name = 
REMARK  3 active torsions:
REMARK  status: ('A' for Active; 'I' for Inactive)
REMARK    1  A    between atoms: C_1  and  C_2
REMARK    2  A    between atoms: C_4  and  C_5
REMARK    3  A    between atoms: C_15  and  C_16
REMARK                            x       y       z     vdW  Elec       q    Type
REMARK                         _______ _______ _______ _____ _____    ______ ____
ROOT
ATOM      1  C   UNL     1       3.263   7.263  17.565  0.00  0.00    +0.000 C 
ATOM      2  O   UNL     1       3.371   7.554  16.375  0.00  0.00    +0.000 OA
ATOM      3  N   UNL     1       2.445   7.998  18.442  0.00  0.00    +0.000 N 
ATOM      4  C   UNL     1       2.146   7.619  19.829  0.00  0.00    +0.000 C 
ATOM      5  C   UNL     1       0.905   8.271  20.431  0.00  0.00    +0.000 C 
ATOM      6  C   UNL     1       1.011   9.769  20.278  0.00  0.00    +0.000 A 
ATOM      7  C   UNL     1       1.520  10.230  19.040  0.00  0.00    +0.000 A 
ATOM      8  C   UNL     1       1.676  11.604  18.824  0.00  0.00    +0.000 A 
ATOM      9  C   UNL     1       1.353  12.515  19.826  0.00  0.00    +0.000 A 
ATOM     10  C   UNL     1       0.843  12.065  21.046  0.00  0.00    +0.000 A 
ATOM     11  C   UNL     1       0.661  10.693  21.285  0.00  0.00    +0.000 A 
ATOM     12  C   UNL     1       1.845   9.237  17.941  0.00  0.00    +0.000 C 
ENDROOT
BRANCH   1  16
ATOM     13  C   UNL     1       7.552   5.685  19.454  0.00  0.00    +0.000 C 
ATOM     14  C   UNL     1       6.158   5.384  18.992  0.00  0.00    +0.000 A 
ATOM     15  C   UNL     1       5.421   6.341  18.327  0.00  0.00    +0.000 A 
ATOM     16  C   UNL     1       4.064   6.114  18.098  0.00  0.00    +0.000 A 
ATOM     17  C   UNL     1       3.517   4.827  18.341  0.00  0.00    +0.000 A 
ATOM     18  C   UNL     1       2.199   4.405  18.018  0.00  0.00    +0.000 A 
ATOM     19  C   UNL     1       1.776   3.096  18.261  0.00  0.00    +0.000 A 
ATOM     20  C   UNL     1       2.648   2.190  18.848  0.00  0.00    +0.000 A 
ATOM     21  C   UNL     1       3.934   2.601  19.188  0.00  0.00    +0.000 A 
ATOM     22  C   UNL     1       4.387   3.889  18.943  0.00  0.00    +0.000 A 
ATOM     23  N   UNL     1       5.649   4.177  19.299  0.00  0.00    +0.000 NA
ENDBRANCH   1  16
BRANCH  11  24
ATOM     24  C   UNL     1       0.073  10.254  22.588  0.00  0.00    +0.000 C 
ATOM     25  N   UNL     1      -1.235  10.576  22.831  0.00  0.00    +0.000 N 
ATOM     26  O   UNL     1       0.715   9.635  23.427  0.00  0.00    +0.000 OA
ATOM     27  H   UNL     1      -1.785  11.186  22.247  0.00  0.00    +0.000 HD
ATOM     28  H   UNL     1      -1.606  10.317  23.737  0.00  0.00    +0.000 HD
ENDBRANCH  11  24
TORSDOF 2
ENDMDL
MODEL 4
REMARK VINA RESULT:      -8.1      0.635      2.616
REMARK  Name = 
REMARK  3 active torsions:
REMARK  status: ('A' for Active; 'I' for Inactive)
REMARK    1  A    between atoms: C_1  and  C_2
REMARK    2  A    between atoms: C_4  and  C_5
REMARK    3  A    between atoms: C_15  and  C_16
REMARK                            x       y       z     vdW  Elec       q    Type
REMARK                         _______ _______ _______ _____ _____    ______ ____
ROOT
ATOM      1  C   UNL     1       5.826   5.163  18.251  0.00  0.00    +0.000 C 
ATOM      2  O   UNL     1       6.785   5.561  18.910  0.00  0.00    +0.000 OA
ATOM      3  N   UNL     1       5.977   4.645  16.952  0.00  0.00    +0.000 N 
ATOM      4  C   UNL     1       4.907   4.010  16.171  0.00  0.00    +0.000 C 
ATOM      5  C   UNL     1       5.376   3.121  15.023  0.00  0.00    +0.000 C 
ATOM      6  C   UNL     1       6.312   3.909  14.140  0.00  0.00    +0.000 A 
ATOM      7  C   UNL     1       7.239   4.745  14.809  0.00  0.00    +0.000 A 
ATOM      8  C   UNL     1       8.127   5.531  14.065  0.00  0.00    +0.000 A 
ATOM      9  C   UNL     1       8.088   5.509  12.673  0.00  0.00    +0.000 A 
ATOM     10  C   UNL     1       7.181   4.681  12.009  0.00  0.00    +0.000 A 
ATOM     11  C   UNL     1       6.290   3.870  12.729  0.00  0.00    +0.000 A 
ATOM     12  C   UNL     1       7.297   4.745  16.324  0.00  0.00    +0.000 C 
ENDROOT
BRANCH   1  16
ATOM     13  C   UNL     1       2.437   3.284  21.322  0.00  0.00    +0.000 C 
ATOM     14  C   UNL     1       2.833   4.329  20.323  0.00  0.00    +0.000 A 
ATOM     15  C   UNL     1       4.002   4.198  19.603  0.00  0.00    +0.000 A 
ATOM     16  C   UNL     1       4.454   5.276  18.841  0.00  0.00    +0.000 A 
ATOM     17  C   UNL     1       3.604   6.394  18.634  0.00  0.00    +0.000 A 
ATOM     18  C   UNL     1       3.862   7.491  17.769  0.00  0.00    +0.000 A 
ATOM     19  C   UNL     1       2.933   8.521  17.605  0.00  0.00    +0.000 A 
ATOM     20  C   UNL     1       1.740   8.489  18.313  0.00  0.00    +0.000 A 
ATOM     21  C   UNL     1       1.488   7.429  19.179  0.00  0.00    +0.000 A 
ATOM     22  C   UNL     1       2.384   6.384  19.350  0.00  0.00    +0.000 A 
ATOM     23  N   UNL     1       2.036   5.406  20.201  0.00  0.00    +0.000 NA
ENDBRANCH   1  16
BRANCH  11  24
ATOM     24  C   UNL     1       5.362   2.966  11.981  0.00  0.00    +0.000 C 
ATOM     25  N   UNL     1       5.817   1.712  11.671  0.00  0.00    +0.000 N 
ATOM     26  O   UNL     1       4.237   3.308  11.640  0.00  0.00    +0.000 OA
ATOM     27  H   UNL     1       6.768   1.405  11.808  0.00  0.00    +0.000 HD
ATOM     28  H   UNL     1       5.200   1.128  11.121  0.00  0.00    +0.000 HD
ENDBRANCH  11  24
TORSDOF 2
ENDMDL
MODEL 5
REMARK VINA RESULT:      -7.9      4.657      7.693
REMARK  Name = 
REMARK  3 active torsions:
REMARK  status: ('A' for Active; 'I' for Inactive)
REMARK    1  A    between atoms: C_1  and  C_2
REMARK    2  A    between atoms: C_4  and  C_5
REMARK    3  A    between atoms: C_15  and  C_16
REMARK                            x       y       z     vdW  Elec       q    Type
REMARK                         _______ _______ _______ _____ _____    ______ ____
ROOT
ATOM      1  C   UNL     1       1.619   9.633  18.197  0.00  0.00    +0.000 C 
ATOM      2  O   UNL     1       2.389  10.209  17.430  0.00  0.00    +0.000 OA
ATOM      3  N   UNL     1       1.920   8.376  18.752  0.00  0.00    +0.000 N 
ATOM      4  C   UNL     1       1.127   7.705  19.790  0.00  0.00    +0.000 C 
ATOM      5  C   UNL     1       1.858   6.613  20.567  0.00  0.00    +0.000 C 
ATOM      6  C   UNL     1       2.443   5.622  19.592  0.00  0.00    +0.000 A 
ATOM      7  C   UNL     1       3.030   6.173  18.426  0.00  0.00    +0.000 A 
ATOM      8  C   UNL     1       3.574   5.323  17.456  0.00  0.00    +0.000 A 
ATOM      9  C   UNL     1       3.522   3.941  17.623  0.00  0.00    +0.000 A 
ATOM     10  C   UNL     1       2.951   3.394  18.774  0.00  0.00    +0.000 A 
ATOM     11  C   UNL     1       2.412   4.223  19.771  0.00  0.00    +0.000 A 
ATOM     12  C   UNL     1       3.110   7.678  18.261  0.00  0.00    +0.000 C 
ENDROOT
BRANCH   1  16
ATOM     13  C   UNL     1      -3.268   9.729  17.450  0.00  0.00    +0.000 C 
ATOM     14  C   UNL     1      -2.054  10.306  18.112  0.00  0.00    +0.000 A 
ATOM     15  C   UNL     1      -0.793   9.889  17.742  0.00  0.00    +0.000 A 
ATOM     16  C   UNL     1       0.304  10.279  18.511  0.00  0.00    +0.000 A 
ATOM     17  C   UNL     1       0.140  11.270  19.514  0.00  0.00    +0.000 A 
ATOM     18  C   UNL     1       1.181  11.873  20.271  0.00  0.00    +0.000 A 
ATOM     19  C   UNL     1       0.912  12.875  21.205  0.00  0.00    +0.000 A 
ATOM     20  C   UNL     1      -0.397  13.283  21.419  0.00  0.00    +0.000 A 
ATOM     21  C   UNL     1      -1.425  12.683  20.697  0.00  0.00    +0.000 A 
ATOM     22  C   UNL     1      -1.187  11.697  19.751  0.00  0.00    +0.000 A 
ATOM     23  N   UNL     1      -2.250  11.194  19.103  0.00  0.00    +0.000 NA
ENDBRANCH   1  16
BRANCH  11  24
ATOM     24  C   UNL     1       1.848   3.600  21.008  0.00  0.00    +0.000 C 
ATOM     25  N   UNL     1       0.641   2.963  20.899  0.00  0.00    +0.000 N 
ATOM     26  O   UNL     1       2.416   3.648  22.091  0.00  0.00    +0.000 OA
ATOM     27  H   UNL     1       0.059   2.990  20.076  0.00  0.00    +0.000 HD
ATOM     28  H   UNL     1       0.245   2.590  21.753  0.00  0.00    +0.000 HD
ENDBRANCH  11  24
TORSDOF 2
ENDMDL
MODEL 6
REMARK VINA RESULT:      -7.3      5.059      7.787
REMARK  Name = 
REMARK  3 active torsions:
REMARK  status: ('A' for Active; 'I' for Inactive)
REMARK    1  A    between atoms: C_1  and  C_2
REMARK    2  A    between atoms: C_4  and  C_5
REMARK    3  A    between atoms: C_15  and  C_16
REMARK                            x       y       z     vdW  Elec       q    Type
REMARK                         _______ _______ _______ _____ _____    ______ ____
ROOT
ATOM      1  C   UNL     1       1.889   8.715  18.597  0.00  0.00    +0.000 C 
ATOM      2  O   UNL     1       2.150   9.080  17.452  0.00  0.00    +0.000 OA
ATOM      3  N   UNL     1       2.107   7.393  19.028  0.00  0.00    +0.000 N 
ATOM      4  C   UNL     1       1.969   6.927  20.414  0.00  0.00    +0.000 C 
ATOM      5  C   UNL     1       2.687   5.620  20.738  0.00  0.00    +0.000 C 
ATOM      6  C   UNL     1       2.253   4.562  19.753  0.00  0.00    +0.000 A 
ATOM      7  C   UNL     1       2.128   4.984  18.407  0.00  0.00    +0.000 A 
ATOM      8  C   UNL     1       1.705   4.072  17.432  0.00  0.00    +0.000 A 
ATOM      9  C   UNL     1       1.390   2.762  17.783  0.00  0.00    +0.000 A 
ATOM     10  C   UNL     1       1.519   2.341  19.108  0.00  0.00    +0.000 A 
ATOM     11  C   UNL     1       1.956   3.228  20.105  0.00  0.00    +0.000 A 
ATOM     12  C   UNL     1       2.499   6.403  18.023  0.00  0.00    +0.000 C 
ENDROOT
BRANCH   1  16
ATOM     13  C   UNL     1      -0.540   9.488  22.835  0.00  0.00    +0.000 C 
ATOM     14  C   UNL     1       0.092  10.038  21.592  0.00  0.00    +0.000 A 
ATOM     15  C   UNL     1       0.511   9.191  20.589  0.00  0.00    +0.000 A 
ATOM     16  C   UNL     1       1.283   9.704  19.545  0.00  0.00    +0.000 A 
ATOM     17  C   UNL     1       1.430  11.109  19.407  0.00  0.00    +0.000 A 
ATOM     18  C   UNL     1       2.054  11.782  18.322  0.00  0.00    +0.000 A 
ATOM     19  C   UNL     1       2.105  13.176  18.265  0.00  0.00    +0.000 A 
ATOM     20  C   UNL     1       1.554  13.927  19.294  0.00  0.00    +0.000 A 
ATOM     21  C   UNL     1       0.960  13.277  20.372  0.00  0.00    +0.000 A 
ATOM     22  C   UNL     1       0.880  11.893  20.448  0.00  0.00    +0.000 A 
ATOM     23  N   UNL     1       0.275  11.369  21.526  0.00  0.00    +0.000 NA
ENDBRANCH   1  16
BRANCH  11  24
ATOM     24  C   UNL     1       2.122   2.727  21.504  0.00  0.00    +0.000 C 
ATOM     25  N   UNL     1       1.000   2.656  22.285  0.00  0.00    +0.000 N 
ATOM     26  O   UNL     1       3.206   2.394  21.963  0.00  0.00    +0.000 OA
ATOM     27  H   UNL     1       0.100   3.027  22.020  0.00  0.00    +0.000 HD
ATOM     28  H   UNL     1       1.132   2.364  23.246  0.00  0.00    +0.000 HD
ENDBRANCH  11  24
TORSDOF 2
ENDMDL
MODEL 7
REMARK VINA RESULT:      -7.2      3.815      8.896
REMARK  Name = 
REMARK  3 active torsions:
REMARK  status: ('A' for Active; 'I' for Inactive)
REMARK    1  A    between atoms: C_1  and  C_2
REMARK    2  A    between atoms: C_4  and  C_5
REMARK    3  A    between atoms: C_15  and  C_16
REMARK                            x       y       z     vdW  Elec       q    Type
REMARK                         _______ _______ _______ _____ _____    ______ ____
ROOT
ATOM      1  C   UNL     1       2.720   7.734  17.939  0.00  0.00    +0.000 C 
ATOM      2  O   UNL     1       2.898   8.030  16.759  0.00  0.00    +0.000 OA
ATOM      3  N   UNL     1       1.898   8.500  18.785  0.00  0.00    +0.000 N 
ATOM      4  C   UNL     1       1.516   8.124  20.152  0.00  0.00    +0.000 C 
ATOM      5  C   UNL     1       0.280   8.830  20.703  0.00  0.00    +0.000 C 
ATOM      6  C   UNL     1       0.465  10.322  20.572  0.00  0.00    +0.000 A 
ATOM      7  C   UNL     1       1.055  10.769  19.364  0.00  0.00    +0.000 A 
ATOM      8  C   UNL     1       1.286  12.136  19.171  0.00  0.00    +0.000 A 
ATOM      9  C   UNL     1       0.960  13.052  20.167  0.00  0.00    +0.000 A 
ATOM     10  C   UNL     1       0.372  12.617  21.356  0.00  0.00    +0.000 A 
ATOM     11  C   UNL     1       0.113  11.254  21.571  0.00  0.00    +0.000 A 
ATOM     12  C   UNL     1       1.383   9.771  18.271  0.00  0.00    +0.000 C 
ENDROOT
BRANCH   1  16
ATOM     13  C   UNL     1       2.444   3.523  20.517  0.00  0.00    +0.000 C 
ATOM     14  C   UNL     1       3.270   4.521  19.763  0.00  0.00    +0.000 A 
ATOM     15  C   UNL     1       2.724   5.726  19.374  0.00  0.00    +0.000 A 
ATOM     16  C   UNL     1       3.439   6.543  18.496  0.00  0.00    +0.000 A 
ATOM     17  C   UNL     1       4.793   6.238  18.200  0.00  0.00    +0.000 A 
ATOM     18  C   UNL     1       5.687   7.049  17.450  0.00  0.00    +0.000 A 
ATOM     19  C   UNL     1       7.018   6.673  17.255  0.00  0.00    +0.000 A 
ATOM     20  C   UNL     1       7.479   5.476  17.785  0.00  0.00    +0.000 A 
ATOM     21  C   UNL     1       6.605   4.666  18.503  0.00  0.00    +0.000 A 
ATOM     22  C   UNL     1       5.282   5.020  18.727  0.00  0.00    +0.000 A 
ATOM     23  N   UNL     1       4.529   4.171  19.443  0.00  0.00    +0.000 NA
ENDBRANCH   1  16
BRANCH  11  24
ATOM     24  C   UNL     1      -0.556  10.831  22.840  0.00  0.00    +0.000 C 
ATOM     25  N   UNL     1      -1.801  11.340  23.097  0.00  0.00    +0.000 N 
ATOM     26  O   UNL     1      -0.033  10.068  23.641  0.00  0.00    +0.000 OA
ATOM     27  H   UNL     1      -2.240  12.065  22.550  0.00  0.00    +0.000 HD
ATOM     28  H   UNL     1      -2.222  11.087  23.982  0.00  0.00    +0.000 HD
ENDBRANCH  11  24
TORSDOF 2
ENDMDL
MODEL 8
REMARK VINA RESULT:      -7.2      4.409      6.873
REMARK  Name = 
REMARK  3 active torsions:
REMARK  status: ('A' for Active; 'I' for Inactive)
REMARK    1  A    between atoms: C_1  and  C_2
REMARK    2  A    between atoms: C_4  and  C_5
REMARK    3  A    between atoms: C_15  and  C_16
REMARK                            x       y       z     vdW  Elec       q    Type
REMARK                         _______ _______ _______ _____ _____    ______ ____
ROOT
ATOM      1  C   UNL     1       2.072   8.622  18.305  0.00  0.00    +0.000 C 
ATOM      2  O   UNL     1       2.752   9.118  17.408  0.00  0.00    +0.000 OA
ATOM      3  N   UNL     1       2.349   7.347  18.832  0.00  0.00    +0.000 N 
ATOM      4  C   UNL     1       1.683   6.759  20.001  0.00  0.00    +0.000 C 
ATOM      5  C   UNL     1       2.433   5.612  20.672  0.00  0.00    +0.000 C 
ATOM      6  C   UNL     1       2.758   4.564  19.636  0.00  0.00    +0.000 A 
ATOM      7  C   UNL     1       3.190   5.050  18.377  0.00  0.00    +0.000 A 
ATOM      8  C   UNL     1       3.487   4.146  17.351  0.00  0.00    +0.000 A 
ATOM      9  C   UNL     1       3.342   2.776  17.555  0.00  0.00    +0.000 A 
ATOM     10  C   UNL     1       2.924   2.292  18.797  0.00  0.00    +0.000 A 
ATOM     11  C   UNL     1       2.634   3.174  19.850  0.00  0.00    +0.000 A 
ATOM     12  C   UNL     1       3.374   6.540  18.167  0.00  0.00    +0.000 C 
ENDROOT
BRANCH   1  16
ATOM     13  C   UNL     1      -2.180  10.922  17.264  0.00  0.00    +0.000 C 
ATOM     14  C   UNL     1      -1.153  10.506  18.273  0.00  0.00    +0.000 A 
ATOM     15  C   UNL     1       0.045   9.958  17.864  0.00  0.00    +0.000 A 
ATOM     16  C   UNL     1       0.890   9.387  18.817  0.00  0.00    +0.000 A 
ATOM     17  C   UNL     1       0.621   9.577  20.197  0.00  0.00    +0.000 A 
ATOM     18  C   UNL     1       1.463   9.187  21.274  0.00  0.00    +0.000 A 
ATOM     19  C   UNL     1       1.121   9.464  22.600  0.00  0.00    +0.000 A 
ATOM     20  C   UNL     1      -0.073  10.115  22.880  0.00  0.00    +0.000 A 
ATOM     21  C   UNL     1      -0.914  10.481  21.833  0.00  0.00    +0.000 A 
ATOM     22  C   UNL     1      -0.593  10.234  20.506  0.00  0.00    +0.000 A 
ATOM     23  N   UNL     1      -1.470  10.640  19.574  0.00  0.00    +0.000 NA
ENDBRANCH   1  16
BRANCH  11  24
ATOM     24  C   UNL     1       2.230   2.615  21.177  0.00  0.00    +0.000 C 
ATOM     25  N   UNL     1       0.891   2.576  21.464  0.00  0.00    +0.000 N 
ATOM     26  O   UNL     1       3.041   2.208  21.998  0.00  0.00    +0.000 OA
ATOM     27  H   UNL     1       0.178   3.005  20.895  0.00  0.00    +0.000 HD
ATOM     28  H   UNL     1       0.633   2.243  22.385  0.00  0.00    +0.000 HD
ENDBRANCH  11  24
TORSDOF 2
ENDMDL
MODEL 9
REMARK VINA RESULT:      -7.2      4.903      8.399
REMARK  Name = 
REMARK  3 active torsions:
REMARK  status: ('A' for Active; 'I' for Inactive)
REMARK    1  A    between atoms: C_1  and  C_2
REMARK    2  A    between atoms: C_4  and  C_5
REMARK    3  A    between atoms: C_15  and  C_16
REMARK                            x       y       z     vdW  Elec       q    Type
REMARK                         _______ _______ _______ _____ _____    ______ ____
ROOT
ATOM      1  C   UNL     1       0.683  11.050  18.893  0.00  0.00    +0.000 C 
ATOM      2  O   UNL     1       1.371  11.870  18.287  0.00  0.00    +0.000 OA
ATOM      3  N   UNL     1       1.167   9.773  19.230  0.00  0.00    +0.000 N 
ATOM      4  C   UNL     1       0.465   8.806  20.084  0.00  0.00    +0.000 C 
ATOM      5  C   UNL     1       1.341   7.715  20.692  0.00  0.00    +0.000 C 
ATOM      6  C   UNL     1       2.105   7.025  19.589  0.00  0.00    +0.000 A 
ATOM      7  C   UNL     1       2.627   7.867  18.576  0.00  0.00    +0.000 A 
ATOM      8  C   UNL     1       3.327   7.306  17.502  0.00  0.00    +0.000 A 
ATOM      9  C   UNL     1       3.494   5.926  17.414  0.00  0.00    +0.000 A 
ATOM     10  C   UNL     1       2.988   5.093  18.413  0.00  0.00    +0.000 A 
ATOM     11  C   UNL     1       2.295   5.628  19.512  0.00  0.00    +0.000 A 
ATOM     12  C   UNL     1       2.467   9.370  18.689  0.00  0.00    +0.000 C 
ENDROOT
BRANCH   1  16
ATOM     13  C   UNL     1      -2.372  13.392  21.998  0.00  0.00    +0.000 C 
ATOM     14  C   UNL     1      -2.175  12.546  20.777  0.00  0.00    +0.000 A 
ATOM     15  C   UNL     1      -0.935  12.018  20.486  0.00  0.00    +0.000 A 
ATOM     16  C   UNL     1      -0.727  11.417  19.244  0.00  0.00    +0.000 A 
ATOM     17  C   UNL     1      -1.836  11.152  18.399  0.00  0.00    +0.000 A 
ATOM     18  C   UNL     1      -1.803  10.419  17.182  0.00  0.00    +0.000 A 
ATOM     19  C   UNL     1      -2.967  10.178  16.448  0.00  0.00    +0.000 A 
ATOM     20  C   UNL     1      -4.180  10.679  16.899  0.00  0.00    +0.000 A 
ATOM     21  C   UNL     1      -4.218  11.417  18.078  0.00  0.00    +0.000 A 
ATOM     22  C   UNL     1      -3.082  11.658  18.838  0.00  0.00    +0.000 A 
ATOM     23  N   UNL     1      -3.233  12.371  19.965  0.00  0.00    +0.000 NA
ENDBRANCH   1  16
BRANCH  11  24
ATOM     24  C   UNL     1       1.805   4.707  20.583  0.00  0.00    +0.000 C 
ATOM     25  N   UNL     1       2.633   4.482  21.649  0.00  0.00    +0.000 N 
ATOM     26  O   UNL     1       0.714   4.155  20.531  0.00  0.00    +0.000 OA
ATOM     27  H   UNL     1       3.589   4.799  21.700  0.00  0.00    +0.000 HD
ATOM     28  H   UNL     1       2.312   3.817  22.342  0.00  0.00    +0.000 HD
ENDBRANCH  11  24
TORSDOF 2
ENDMDL
