MODEL 1
REMARK VINA RESULT:      -9.2      0.000      0.000
REMARK  Name = 
REMARK  9 active torsions:
REMARK  status: ('A' for Active; 'I' for Inactive)
REMARK    1  A    between atoms: C_1  and  C_2
REMARK    2  A    between atoms: C_5  and  C_6
REMARK    3  A    between atoms: C_8  and  C_9
REMARK    4  A    between atoms: N_11  and  C_12
REMARK    5  A    between atoms: C_14  and  C_15
REMARK    6  A    between atoms: C_15  and  N_16
REMARK    7  A    between atoms: C_17  and  C_19
REMARK    8  A    between atoms: C_21  and  C_22
REMARK    9  A    between atoms: C_24  and  C_25
REMARK                            x       y       z     vdW  Elec       q    Type
REMARK                         _______ _______ _______ _____ _____    ______ ____
ROOT
ATOM      1  C   UNL     1       1.807   7.639  20.283  0.00  0.00    +0.000 C 
ATOM      2  O   UNL     1       2.412   7.858  19.239  0.00  0.00    +0.000 OA
ATOM      3  N   UNL     1       1.728   6.379  20.843  0.00  0.00    +0.000 N 
ATOM      4  H   UNL     1       1.255   6.286  21.729  0.00  0.00    +0.000 HD
ENDROOT
BRANCH   1   7
ATOM      5  C   UNL     1      -0.073  10.366  21.822  0.00  0.00    +0.000 A 
ATOM      6  C   UNL     1       0.114   9.571  20.668  0.00  0.00    +0.000 A 
ATOM      7  C   UNL     1       1.119   8.681  20.994  0.00  0.00    +0.000 A 
ATOM      8  N   UNL     1       1.434   8.973  22.298  0.00  0.00    +0.000 N 
ATOM      9  N   UNL     1       0.751  10.005  22.812  0.00  0.00    +0.000 NA
ATOM     10  H   UNL     1       2.117   8.492  22.876  0.00  0.00    +0.000 HD
BRANCH   5  15
ATOM     11  C   UNL     1      -3.897  13.252  20.688  0.00  0.00    +0.000 C 
ATOM     12  C   UNL     1      -2.766  12.799  21.521  0.00  0.00    +0.000 A 
ATOM     13  C   UNL     1      -2.311  13.152  22.773  0.00  0.00    +0.000 A 
ATOM     14  C   UNL     1      -1.224  12.291  23.054  0.00  0.00    +0.000 A 
ATOM     15  C   UNL     1      -1.069  11.468  21.956  0.00  0.00    +0.000 A 
ATOM     16  O   UNL     1      -1.998  11.798  21.006  0.00  0.00    +0.000 OA
ENDBRANCH   5  15
ENDBRANCH   1   7
BRANCH   3  17
ATOM     17  C   UNL     1       2.373   5.216  20.217  0.00  0.00    +0.000 C 
ATOM     18  C   UNL     1       2.264   5.158  18.674  0.00  0.00    +0.000 C 
ATOM     19  C   UNL     1       2.051   3.628  18.803  0.00  0.00    +0.000 C 
ATOM     20  C   UNL     1       1.532   3.914  20.241  0.00  0.00    +0.000 C 
BRANCH  19  21
ATOM     21  C   UNL     1       3.320   2.793  18.707  0.00  0.00    +0.000 C 
BRANCH  21  22
ATOM     22  N   UNL     1       4.112   3.322  17.622  0.00  0.00    +0.000 N 
ATOM     23  C   UNL     1       5.325   3.923  17.886  0.00  0.00    +0.000 C 
ATOM     24  O   UNL     1       5.766   4.029  19.025  0.00  0.00    +0.000 OA
ATOM     25  H   UNL     1       3.829   3.172  16.665  0.00  0.00    +0.000 HD
BRANCH  23  26
ATOM     26  C   UNL     1       6.041   4.418  16.717  0.00  0.00    +0.000 A 
ATOM     27  C   UNL     1       6.041   3.968  15.360  0.00  0.00    +0.000 A 
ATOM     28  C   UNL     1       6.883   4.804  14.661  0.00  0.00    +0.000 A 
ATOM     29  C   UNL     1       7.298   4.879  13.246  0.00  0.00    +0.000 C 
ATOM     30  O   UNL     1       7.413   5.737  15.493  0.00  0.00    +0.000 OA
ATOM     31  C   UNL     1       6.901   5.505  16.734  0.00  0.00    +0.000 A 
ATOM     32  C   UNL     1       7.342   6.428  17.804  0.00  0.00    +0.000 C 
ENDBRANCH  23  26
ENDBRANCH  21  22
ENDBRANCH  19  21
ENDBRANCH   3  17
TORSDOF 6
ENDMDL
MODEL 2
REMARK VINA RESULT:      -9.1      1.081      1.357
REMARK  Name = 
REMARK  9 active torsions:
REMARK  status: ('A' for Active; 'I' for Inactive)
REMARK    1  A    between atoms: C_1  and  C_2
REMARK    2  A    between atoms: C_5  and  C_6
REMARK    3  A    between atoms: C_8  and  C_9
REMARK    4  A    between atoms: N_11  and  C_12
REMARK    5  A    between atoms: C_14  and  C_15
REMARK    6  A    between atoms: C_15  and  N_16
REMARK    7  A    between atoms: C_17  and  C_19
REMARK    8  A    between atoms: C_21  and  C_22
REMARK    9  A    between atoms: C_24  and  C_25
REMARK                            x       y       z     vdW  Elec       q    Type
REMARK                         _______ _______ _______ _____ _____    ______ ____
ROOT
ATOM      1  C   UNL     1       1.887   7.399  20.173  0.00  0.00    +0.000 C 
ATOM      2  O   UNL     1       2.689   7.599  19.268  0.00  0.00    +0.000 OA
ATOM      3  N   UNL     1       1.465   6.131  20.521  0.00  0.00    +0.000 N 
ATOM      4  H   UNL     1       0.841   6.041  21.309  0.00  0.00    +0.000 HD
ENDROOT
BRANCH   1   7
ATOM      5  C   UNL     1       0.294  10.234  21.836  0.00  0.00    +0.000 A 
ATOM      6  C   UNL     1       0.379   9.457  20.658  0.00  0.00    +0.000 A 
ATOM      7  C   UNL     1       1.313   8.476  20.930  0.00  0.00    +0.000 A 
ATOM      8  N   UNL     1       1.688   8.704  22.231  0.00  0.00    +0.000 N 
ATOM      9  N   UNL     1       1.113   9.777  22.790  0.00  0.00    +0.000 NA
ATOM     10  H   UNL     1       2.345   8.152  22.775  0.00  0.00    +0.000 HD
BRANCH   5  15
ATOM     11  C   UNL     1      -1.600  14.254  23.954  0.00  0.00    +0.000 C 
ATOM     12  C   UNL     1      -1.497  13.217  22.909  0.00  0.00    +0.000 A 
ATOM     13  C   UNL     1      -2.103  13.045  21.684  0.00  0.00    +0.000 A 
ATOM     14  C   UNL     1      -1.520  11.888  21.115  0.00  0.00    +0.000 A 
ATOM     15  C   UNL     1      -0.598  11.413  22.027  0.00  0.00    +0.000 A 
ATOM     16  O   UNL     1      -0.605  12.213  23.139  0.00  0.00    +0.000 OA
ENDBRANCH   5  15
ENDBRANCH   1   7
BRANCH   3  17
ATOM     17  C   UNL     1       1.959   4.935  19.823  0.00  0.00    +0.000 C 
ATOM     18  C   UNL     1       1.621   4.871  18.314  0.00  0.00    +0.000 C 
ATOM     19  C   UNL     1       1.363   3.353  18.495  0.00  0.00    +0.000 C 
ATOM     20  C   UNL     1       1.076   3.672  19.989  0.00  0.00    +0.000 C 
BRANCH  19  21
ATOM     21  C   UNL     1       2.567   2.462  18.223  0.00  0.00    +0.000 C 
BRANCH  21  22
ATOM     22  N   UNL     1       3.344   3.080  17.175  0.00  0.00    +0.000 N 
ATOM     23  C   UNL     1       4.563   3.653  17.470  0.00  0.00    +0.000 C 
ATOM     24  O   UNL     1       5.023   3.659  18.607  0.00  0.00    +0.000 OA
ATOM     25  H   UNL     1       3.044   3.014  16.213  0.00  0.00    +0.000 HD
BRANCH  23  26
ATOM     26  C   UNL     1       5.262   4.245  16.337  0.00  0.00    +0.000 A 
ATOM     27  C   UNL     1       5.992   3.638  15.268  0.00  0.00    +0.000 A 
ATOM     28  C   UNL     1       6.435   4.658  14.455  0.00  0.00    +0.000 A 
ATOM     29  C   UNL     1       7.219   4.697  13.205  0.00  0.00    +0.000 C 
ATOM     30  O   UNL     1       6.036   5.858  14.951  0.00  0.00    +0.000 OA
ATOM     31  C   UNL     1       5.325   5.606  16.085  0.00  0.00    +0.000 A 
ATOM     32  C   UNL     1       4.778   6.790  16.788  0.00  0.00    +0.000 C 
ENDBRANCH  23  26
ENDBRANCH  21  22
ENDBRANCH  19  21
ENDBRANCH   3  17
TORSDOF 6
ENDMDL
MODEL 3
REMARK VINA RESULT:      -8.9      1.009      1.861
REMARK  Name = 
REMARK  9 active torsions:
REMARK  status: ('A' for Active; 'I' for Inactive)
REMARK    1  A    between atoms: C_1  and  C_2
REMARK    2  A    between atoms: C_5  and  C_6
REMARK    3  A    between atoms: C_8  and  C_9
REMARK    4  A    between atoms: N_11  and  C_12
REMARK    5  A    between atoms: C_14  and  C_15
REMARK    6  A    between atoms: C_15  and  N_16
REMARK    7  A    between atoms: C_17  and  C_19
REMARK    8  A    between atoms: C_21  and  C_22
REMARK    9  A    between atoms: C_24  and  C_25
REMARK                            x       y       z     vdW  Elec       q    Type
REMARK                         _______ _______ _______ _____ _____    ______ ____
ROOT
ATOM      1  C   UNL     1       1.788   7.626  20.260  0.00  0.00    +0.000 C 
ATOM      2  O   UNL     1       2.457   7.953  19.285  0.00  0.00    +0.000 OA
ATOM      3  N   UNL     1       1.587   6.306  20.610  0.00  0.00    +0.000 N 
ATOM      4  H   UNL     1       1.066   6.116  21.454  0.00  0.00    +0.000 HD
ENDROOT
BRANCH   1   7
ATOM      5  C   UNL     1       0.004  10.192  22.152  0.00  0.00    +0.000 A 
ATOM      6  C   UNL     1       0.098   9.480  20.934  0.00  0.00    +0.000 A 
ATOM      7  C   UNL     1       1.149   8.599  21.102  0.00  0.00    +0.000 A 
ATOM      8  N   UNL     1       1.579   8.812  22.388  0.00  0.00    +0.000 N 
ATOM      9  N   UNL     1       0.927   9.788  23.033  0.00  0.00    +0.000 NA
ATOM     10  H   UNL     1       2.325   8.313  22.865  0.00  0.00    +0.000 HD
BRANCH   5  15
ATOM     11  C   UNL     1      -3.827  12.396  24.318  0.00  0.00    +0.000 C 
ATOM     12  C   UNL     1      -2.695  12.307  23.376  0.00  0.00    +0.000 A 
ATOM     13  C   UNL     1      -2.088  13.216  22.537  0.00  0.00    +0.000 A 
ATOM     14  C   UNL     1      -0.993  12.539  21.949  0.00  0.00    +0.000 A 
ATOM     15  C   UNL     1      -0.997  11.253  22.454  0.00  0.00    +0.000 A 
ATOM     16  O   UNL     1      -2.057  11.105  23.308  0.00  0.00    +0.000 OA
ENDBRANCH   5  15
ENDBRANCH   1   7
BRANCH   3  17
ATOM     17  C   UNL     1       2.170   5.204  19.832  0.00  0.00    +0.000 C 
ATOM     18  C   UNL     1       1.697   5.120  18.360  0.00  0.00    +0.000 C 
ATOM     19  C   UNL     1       1.669   3.578  18.516  0.00  0.00    +0.000 C 
ATOM     20  C   UNL     1       1.489   3.827  20.040  0.00  0.00    +0.000 C 
BRANCH  19  21
ATOM     21  C   UNL     1       2.951   2.869  18.104  0.00  0.00    +0.000 C 
BRANCH  21  22
ATOM     22  N   UNL     1       3.895   3.877  17.682  0.00  0.00    +0.000 N 
ATOM     23  C   UNL     1       5.088   4.026  18.357  0.00  0.00    +0.000 C 
ATOM     24  O   UNL     1       5.387   3.325  19.317  0.00  0.00    +0.000 OA
ATOM     25  H   UNL     1       3.728   4.410  16.842  0.00  0.00    +0.000 HD
BRANCH  23  26
ATOM     26  C   UNL     1       5.966   5.071  17.844  0.00  0.00    +0.000 A 
ATOM     27  C   UNL     1       6.402   6.299  18.432  0.00  0.00    +0.000 A 
ATOM     28  C   UNL     1       7.241   6.904  17.522  0.00  0.00    +0.000 A 
ATOM     29  C   UNL     1       8.012   8.162  17.528  0.00  0.00    +0.000 C 
ATOM     30  O   UNL     1       7.349   6.138  16.405  0.00  0.00    +0.000 OA
ATOM     31  C   UNL     1       6.582   5.030  16.602  0.00  0.00    +0.000 A 
ATOM     32  C   UNL     1       6.566   4.043  15.499  0.00  0.00    +0.000 C 
ENDBRANCH  23  26
ENDBRANCH  21  22
ENDBRANCH  19  21
ENDBRANCH   3  17
TORSDOF 6
ENDMDL
MODEL 4
REMARK VINA RESULT:      -8.9      1.156      1.519
REMARK  Name = 
REMARK  9 active torsions:
REMARK  status: ('A' for Active; 'I' for Inactive)
REMARK    1  A    between atoms: C_1  and  C_2
REMARK    2  A    between atoms: C_5  and  C_6
REMARK    3  A    between atoms: C_8  and  C_9
REMARK    4  A    between atoms: N_11  and  C_12
REMARK    5  A    between atoms: C_14  and  C_15
REMARK    6  A    between atoms: C_15  and  N_16
REMARK    7  A    between atoms: C_17  and  C_19
REMARK    8  A    between atoms: C_21  and  C_22
REMARK    9  A    between atoms: C_24  and  C_25
REMARK                            x       y       z     vdW  Elec       q    Type
REMARK                         _______ _______ _______ _____ _____    ______ ____
ROOT
ATOM      1  C   UNL     1       1.867   7.565  19.959  0.00  0.00    +0.000 C 
ATOM      2  O   UNL     1       2.288   7.794  18.830  0.00  0.00    +0.000 OA
ATOM      3  N   UNL     1       1.956   6.318  20.543  0.00  0.00    +0.000 N 
ATOM      4  H   UNL     1       1.633   6.218  21.494  0.00  0.00    +0.000 HD
ENDROOT
BRANCH   1   7
ATOM      5  C   UNL     1       0.131  10.256  21.716  0.00  0.00    +0.000 A 
ATOM      6  C   UNL     1       0.281   9.550  20.500  0.00  0.00    +0.000 A 
ATOM      7  C   UNL     1       1.234   8.581  20.753  0.00  0.00    +0.000 A 
ATOM      8  N   UNL     1       1.555   8.746  22.077  0.00  0.00    +0.000 N 
ATOM      9  N   UNL     1       0.927   9.768  22.674  0.00  0.00    +0.000 NA
ATOM     10  H   UNL     1       2.207   8.181  22.615  0.00  0.00    +0.000 HD
BRANCH   5  15
ATOM     11  C   UNL     1      -2.852  13.332  24.139  0.00  0.00    +0.000 C 
ATOM     12  C   UNL     1      -2.147  12.814  22.951  0.00  0.00    +0.000 A 
ATOM     13  C   UNL     1      -2.005  13.274  21.660  0.00  0.00    +0.000 A 
ATOM     14  C   UNL     1      -1.135  12.365  21.012  0.00  0.00    +0.000 A 
ATOM     15  C   UNL     1      -0.803  11.396  21.939  0.00  0.00    +0.000 A 
ATOM     16  O   UNL     1      -1.446  11.658  23.119  0.00  0.00    +0.000 OA
ENDBRANCH   5  15
ENDBRANCH   1   7
BRANCH   3  17
ATOM     17  C   UNL     1       2.569   5.180  19.843  0.00  0.00    +0.000 C 
ATOM     18  C   UNL     1       2.762   3.907  20.703  0.00  0.00    +0.000 C 
ATOM     19  C   UNL     1       4.126   3.705  19.995  0.00  0.00    +0.000 C 
ATOM     20  C   UNL     1       4.113   5.237  19.732  0.00  0.00    +0.000 C 
BRANCH  19  21
ATOM     21  C   UNL     1       4.082   2.816  18.761  0.00  0.00    +0.000 C 
BRANCH  21  22
ATOM     22  N   UNL     1       5.052   3.323  17.819  0.00  0.00    +0.000 N 
ATOM     23  C   UNL     1       4.628   3.943  16.663  0.00  0.00    +0.000 C 
ATOM     24  O   UNL     1       3.439   4.086  16.398  0.00  0.00    +0.000 OA
ATOM     25  H   UNL     1       6.036   3.308  18.044  0.00  0.00    +0.000 HD
BRANCH  23  26
ATOM     26  C   UNL     1       5.691   4.418  15.787  0.00  0.00    +0.000 A 
ATOM     27  C   UNL     1       5.941   4.171  14.401  0.00  0.00    +0.000 A 
ATOM     28  C   UNL     1       7.072   4.882  14.065  0.00  0.00    +0.000 A 
ATOM     29  C   UNL     1       7.831   5.056  12.811  0.00  0.00    +0.000 C 
ATOM     30  O   UNL     1       7.545   5.548  15.150  0.00  0.00    +0.000 OA
ATOM     31  C   UNL     1       6.708   5.270  16.188  0.00  0.00    +0.000 A 
ATOM     32  C   UNL     1       7.036   5.913  17.481  0.00  0.00    +0.000 C 
ENDBRANCH  23  26
ENDBRANCH  21  22
ENDBRANCH  19  21
ENDBRANCH   3  17
TORSDOF 6
ENDMDL
MODEL 5
REMARK VINA RESULT:      -8.7      1.634      1.753
REMARK  Name = 
REMARK  9 active torsions:
REMARK  status: ('A' for Active; 'I' for Inactive)
REMARK    1  A    between atoms: C_1  and  C_2
REMARK    2  A    between atoms: C_5  and  C_6
REMARK    3  A    between atoms: C_8  and  C_9
REMARK    4  A    between atoms: N_11  and  C_12
REMARK    5  A    between atoms: C_14  and  C_15
REMARK    6  A    between atoms: C_15  and  N_16
REMARK    7  A    between atoms: C_17  and  C_19
REMARK    8  A    between atoms: C_21  and  C_22
REMARK    9  A    between atoms: C_24  and  C_25
REMARK                            x       y       z     vdW  Elec       q    Type
REMARK                         _______ _______ _______ _____ _____    ______ ____
ROOT
ATOM      1  C   UNL     1       1.938   8.462  18.775  0.00  0.00    +0.000 C 
ATOM      2  O   UNL     1       2.633   8.302  17.777  0.00  0.00    +0.000 OA
ATOM      3  N   UNL     1       1.860   7.520  19.781  0.00  0.00    +0.000 N 
ATOM      4  H   UNL     1       1.306   7.744  20.595  0.00  0.00    +0.000 HD
ENDROOT
BRANCH   1   7
ATOM      5  C   UNL     1      -0.308  11.278  19.381  0.00  0.00    +0.000 A 
ATOM      6  C   UNL     1      -0.034   9.915  19.639  0.00  0.00    +0.000 A 
ATOM      7  C   UNL     1       1.138   9.640  18.961  0.00  0.00    +0.000 A 
ATOM      8  N   UNL     1       1.496  10.835  18.387  0.00  0.00    +0.000 N 
ATOM      9  N   UNL     1       0.626  11.831  18.599  0.00  0.00    +0.000 NA
ATOM     10  H   UNL     1       2.330  11.012  17.834  0.00  0.00    +0.000 HD
BRANCH   5  15
ATOM     11  C   UNL     1      -4.979  12.747  19.881  0.00  0.00    +0.000 C 
ATOM     12  C   UNL     1      -3.539  12.744  20.200  0.00  0.00    +0.000 A 
ATOM     13  C   UNL     1      -2.786  13.346  21.185  0.00  0.00    +0.000 A 
ATOM     14  C   UNL     1      -1.460  12.886  21.003  0.00  0.00    +0.000 A 
ATOM     15  C   UNL     1      -1.475  12.037  19.914  0.00  0.00    +0.000 A 
ATOM     16  O   UNL     1      -2.745  11.972  19.406  0.00  0.00    +0.000 OA
ENDBRANCH   5  15
ENDBRANCH   1   7
BRANCH   3  17
ATOM     17  C   UNL     1       2.615   6.260  19.719  0.00  0.00    +0.000 C 
ATOM     18  C   UNL     1       2.229   5.323  18.548  0.00  0.00    +0.000 C 
ATOM     19  C   UNL     1       2.388   4.130  19.525  0.00  0.00    +0.000 C 
ATOM     20  C   UNL     1       2.103   5.146  20.667  0.00  0.00    +0.000 C 
BRANCH  19  21
ATOM     21  C   UNL     1       3.767   3.488  19.533  0.00  0.00    +0.000 C 
BRANCH  21  22
ATOM     22  N   UNL     1       4.400   3.788  18.271  0.00  0.00    +0.000 N 
ATOM     23  C   UNL     1       5.644   4.382  18.250  0.00  0.00    +0.000 C 
ATOM     24  O   UNL     1       6.248   4.669  19.278  0.00  0.00    +0.000 OA
ATOM     25  H   UNL     1       3.978   3.484  17.405  0.00  0.00    +0.000 HD
BRANCH  23  26
ATOM     26  C   UNL     1       6.189   4.637  16.922  0.00  0.00    +0.000 A 
ATOM     27  C   UNL     1       6.051   3.910  15.699  0.00  0.00    +0.000 A 
ATOM     28  C   UNL     1       6.758   4.601  14.740  0.00  0.00    +0.000 A 
ATOM     29  C   UNL     1       6.997   4.387  13.299  0.00  0.00    +0.000 C 
ATOM     30  O   UNL     1       7.332   5.704  15.287  0.00  0.00    +0.000 OA
ATOM     31  C   UNL     1       6.985   5.726  16.603  0.00  0.00    +0.000 A 
ATOM     32  C   UNL     1       7.500   6.866  17.395  0.00  0.00    +0.000 C 
ENDBRANCH  23  26
ENDBRANCH  21  22
ENDBRANCH  19  21
ENDBRANCH   3  17
TORSDOF 6
ENDMDL
MODEL 6
REMARK VINA RESULT:      -8.7      1.133      1.179
REMARK  Name = 
REMARK  9 active torsions:
REMARK  status: ('A' for Active; 'I' for Inactive)
REMARK    1  A    between atoms: C_1  and  C_2
REMARK    2  A    between atoms: C_5  and  C_6
REMARK    3  A    between atoms: C_8  and  C_9
REMARK    4  A    between atoms: N_11  and  C_12
REMARK    5  A    between atoms: C_14  and  C_15
REMARK    6  A    between atoms: C_15  and  N_16
REMARK    7  A    between atoms: C_17  and  C_19
REMARK    8  A    between atoms: C_21  and  C_22
REMARK    9  A    between atoms: C_24  and  C_25
REMARK                            x       y       z     vdW  Elec       q    Type
REMARK                         _______ _______ _______ _____ _____    ______ ____
ROOT
ATOM      1  C   UNL     1       1.764   7.742  20.346  0.00  0.00    +0.000 C 
ATOM      2  O   UNL     1       2.325   7.869  19.263  0.00  0.00    +0.000 OA
ATOM      3  N   UNL     1       1.683   6.528  20.999  0.00  0.00    +0.000 N 
ATOM      4  H   UNL     1       1.249   6.511  21.910  0.00  0.00    +0.000 HD
ENDROOT
BRANCH   1   7
ATOM      5  C   UNL     1       0.195  10.718  21.768  0.00  0.00    +0.000 A 
ATOM      6  C   UNL     1       0.677  10.087  20.598  0.00  0.00    +0.000 A 
ATOM      7  C   UNL     1       1.133   8.849  21.008  0.00  0.00    +0.000 A 
ATOM      8  N   UNL     1       0.867   8.809  22.354  0.00  0.00    +0.000 N 
ATOM      9  N   UNL     1       0.330   9.935  22.844  0.00  0.00    +0.000 NA
ATOM     10  H   UNL     1       1.044   8.030  22.982  0.00  0.00    +0.000 HD
BRANCH   5  15
ATOM     11  C   UNL     1      -1.304  15.138  20.201  0.00  0.00    +0.000 C 
ATOM     12  C   UNL     1      -1.111  14.070  21.201  0.00  0.00    +0.000 A 
ATOM     13  C   UNL     1      -1.534  13.903  22.502  0.00  0.00    +0.000 A 
ATOM     14  C   UNL     1      -1.088  12.621  22.899  0.00  0.00    +0.000 A 
ATOM     15  C   UNL     1      -0.411  12.079  21.824  0.00  0.00    +0.000 A 
ATOM     16  O   UNL     1      -0.402  12.980  20.793  0.00  0.00    +0.000 OA
ENDBRANCH   5  15
ENDBRANCH   1   7
BRANCH   3  17
ATOM     17  C   UNL     1       2.272   5.307  20.433  0.00  0.00    +0.000 C 
ATOM     18  C   UNL     1       1.783   4.942  19.009  0.00  0.00    +0.000 C 
ATOM     19  C   UNL     1       1.780   3.457  19.452  0.00  0.00    +0.000 C 
ATOM     20  C   UNL     1       1.614   3.986  20.905  0.00  0.00    +0.000 C 
BRANCH  19  21
ATOM     21  C   UNL     1       3.067   2.699  19.163  0.00  0.00    +0.000 C 
BRANCH  21  22
ATOM     22  N   UNL     1       3.636   3.244  17.953  0.00  0.00    +0.000 N 
ATOM     23  C   UNL     1       4.894   3.808  17.980  0.00  0.00    +0.000 C 
ATOM     24  O   UNL     1       5.563   3.864  19.006  0.00  0.00    +0.000 OA
ATOM     25  H   UNL     1       3.158   3.134  17.071  0.00  0.00    +0.000 HD
BRANCH  23  26
ATOM     26  C   UNL     1       5.371   4.324  16.703  0.00  0.00    +0.000 A 
ATOM     27  C   UNL     1       6.027   3.669  15.615  0.00  0.00    +0.000 A 
ATOM     28  C   UNL     1       6.241   4.622  14.643  0.00  0.00    +0.000 A 
ATOM     29  C   UNL     1       6.851   4.587  13.300  0.00  0.00    +0.000 C 
ATOM     30  O   UNL     1       5.768   5.826  15.058  0.00  0.00    +0.000 OA
ATOM     31  C   UNL     1       5.240   5.644  16.299  0.00  0.00    +0.000 A 
ATOM     32  C   UNL     1       4.651   6.842  16.939  0.00  0.00    +0.000 C 
ENDBRANCH  23  26
ENDBRANCH  21  22
ENDBRANCH  19  21
ENDBRANCH   3  17
TORSDOF 6
ENDMDL
MODEL 7
REMARK VINA RESULT:      -8.7      1.381      1.625
REMARK  Name = 
REMARK  9 active torsions:
REMARK  status: ('A' for Active; 'I' for Inactive)
REMARK    1  A    between atoms: C_1  and  C_2
REMARK    2  A    between atoms: C_5  and  C_6
REMARK    3  A    between atoms: C_8  and  C_9
REMARK    4  A    between atoms: N_11  and  C_12
REMARK    5  A    between atoms: C_14  and  C_15
REMARK    6  A    between atoms: C_15  and  N_16
REMARK    7  A    between atoms: C_17  and  C_19
REMARK    8  A    between atoms: C_21  and  C_22
REMARK    9  A    between atoms: C_24  and  C_25
REMARK                            x       y       z     vdW  Elec       q    Type
REMARK                         _______ _______ _______ _____ _____    ______ ____
ROOT
ATOM      1  C   UNL     1       1.956   8.232  19.161  0.00  0.00    +0.000 C 
ATOM      2  O   UNL     1       2.546   8.096  18.094  0.00  0.00    +0.000 OA
ATOM      3  N   UNL     1       2.000   7.277  20.157  0.00  0.00    +0.000 N 
ATOM      4  H   UNL     1       1.529   7.481  21.027  0.00  0.00    +0.000 HD
ENDROOT
BRANCH   1   7
ATOM      5  C   UNL     1      -0.268  10.996  20.029  0.00  0.00    +0.000 A 
ATOM      6  C   UNL     1       0.048   9.633  20.230  0.00  0.00    +0.000 A 
ATOM      7  C   UNL     1       1.159   9.392  19.444  0.00  0.00    +0.000 A 
ATOM      8  N   UNL     1       1.447  10.605  18.868  0.00  0.00    +0.000 N 
ATOM      9  N   UNL     1       0.584  11.582  19.179  0.00  0.00    +0.000 NA
ATOM     10  H   UNL     1       2.224  10.808  18.247  0.00  0.00    +0.000 HD
BRANCH   5  15
ATOM     11  C   UNL     1      -3.181  12.647  23.637  0.00  0.00    +0.000 C 
ATOM     12  C   UNL     1      -2.739  12.505  22.237  0.00  0.00    +0.000 A 
ATOM     13  C   UNL     1      -3.134  13.094  21.055  0.00  0.00    +0.000 A 
ATOM     14  C   UNL     1      -2.264  12.596  20.057  0.00  0.00    +0.000 A 
ATOM     15  C   UNL     1      -1.393  11.724  20.681  0.00  0.00    +0.000 A 
ATOM     16  O   UNL     1      -1.703  11.648  22.012  0.00  0.00    +0.000 OA
ENDBRANCH   5  15
ENDBRANCH   1   7
BRANCH   3  17
ATOM     17  C   UNL     1       2.766   6.033  20.000  0.00  0.00    +0.000 C 
ATOM     18  C   UNL     1       2.391   5.184  18.760  0.00  0.00    +0.000 C 
ATOM     19  C   UNL     1       2.559   3.922  19.644  0.00  0.00    +0.000 C 
ATOM     20  C   UNL     1       2.264   4.845  20.859  0.00  0.00    +0.000 C 
BRANCH  19  21
ATOM     21  C   UNL     1       3.945   3.294  19.606  0.00  0.00    +0.000 C 
BRANCH  21  22
ATOM     22  N   UNL     1       4.546   3.631  18.338  0.00  0.00    +0.000 N 
ATOM     23  C   UNL     1       5.726   4.344  18.305  0.00  0.00    +0.000 C 
ATOM     24  O   UNL     1       6.297   4.709  19.328  0.00  0.00    +0.000 OA
ATOM     25  H   UNL     1       4.158   3.271  17.478  0.00  0.00    +0.000 HD
BRANCH  23  26
ATOM     26  C   UNL     1       6.245   4.627  16.973  0.00  0.00    +0.000 A 
ATOM     27  C   UNL     1       6.102   3.914  15.742  0.00  0.00    +0.000 A 
ATOM     28  C   UNL     1       6.781   4.631  14.782  0.00  0.00    +0.000 A 
ATOM     29  C   UNL     1       7.001   4.440  13.335  0.00  0.00    +0.000 C 
ATOM     30  O   UNL     1       7.342   5.738  15.335  0.00  0.00    +0.000 OA
ATOM     31  C   UNL     1       7.015   5.736  16.656  0.00  0.00    +0.000 A 
ATOM     32  C   UNL     1       7.520   6.876  17.455  0.00  0.00    +0.000 C 
ENDBRANCH  23  26
ENDBRANCH  21  22
ENDBRANCH  19  21
ENDBRANCH   3  17
TORSDOF 6
ENDMDL
MODEL 8
REMARK VINA RESULT:      -8.7      1.233      2.006
REMARK  Name = 
REMARK  9 active torsions:
REMARK  status: ('A' for Active; 'I' for Inactive)
REMARK    1  A    between atoms: C_1  and  C_2
REMARK    2  A    between atoms: C_5  and  C_6
REMARK    3  A    between atoms: C_8  and  C_9
REMARK    4  A    between atoms: N_11  and  C_12
REMARK    5  A    between atoms: C_14  and  C_15
REMARK    6  A    between atoms: C_15  and  N_16
REMARK    7  A    between atoms: C_17  and  C_19
REMARK    8  A    between atoms: C_21  and  C_22
REMARK    9  A    between atoms: C_24  and  C_25
REMARK                            x       y       z     vdW  Elec       q    Type
REMARK                         _______ _______ _______ _____ _____    ______ ____
ROOT
ATOM      1  C   UNL     1       1.618   7.792  20.437  0.00  0.00    +0.000 C 
ATOM      2  O   UNL     1       2.153   8.114  19.381  0.00  0.00    +0.000 OA
ATOM      3  N   UNL     1       1.561   6.482  20.868  0.00  0.00    +0.000 N 
ATOM      4  H   UNL     1       1.148   6.300  21.771  0.00  0.00    +0.000 HD
ENDROOT
BRANCH   1   7
ATOM      5  C   UNL     1      -0.108  10.362  22.376  0.00  0.00    +0.000 A 
ATOM      6  C   UNL     1      -0.003   9.699  21.131  0.00  0.00    +0.000 A 
ATOM      7  C   UNL     1       0.996   8.759  21.298  0.00  0.00    +0.000 A 
ATOM      8  N   UNL     1       1.388   8.896  22.606  0.00  0.00    +0.000 N 
ATOM      9  N   UNL     1       0.760   9.876  23.270  0.00  0.00    +0.000 NA
ATOM     10  H   UNL     1       2.091   8.341  23.087  0.00  0.00    +0.000 HD
BRANCH   5  15
ATOM     11  C   UNL     1      -4.081  12.581  24.253  0.00  0.00    +0.000 C 
ATOM     12  C   UNL     1      -2.815  12.524  23.496  0.00  0.00    +0.000 A 
ATOM     13  C   UNL     1      -2.012  13.484  22.921  0.00  0.00    +0.000 A 
ATOM     14  C   UNL     1      -0.886  12.799  22.407  0.00  0.00    +0.000 A 
ATOM     15  C   UNL     1      -1.067  11.459  22.688  0.00  0.00    +0.000 A 
ATOM     16  O   UNL     1      -2.264  11.288  23.332  0.00  0.00    +0.000 OA
ENDBRANCH   5  15
ENDBRANCH   1   7
BRANCH   3  17
ATOM     17  C   UNL     1       2.144   5.385  20.083  0.00  0.00    +0.000 C 
ATOM     18  C   UNL     1       1.253   4.125  19.955  0.00  0.00    +0.000 C 
ATOM     19  C   UNL     1       2.538   3.271  20.113  0.00  0.00    +0.000 C 
ATOM     20  C   UNL     1       3.149   4.493  20.855  0.00  0.00    +0.000 C 
BRANCH  19  21
ATOM     21  C   UNL     1       3.212   2.880  18.806  0.00  0.00    +0.000 C 
BRANCH  21  22
ATOM     22  N   UNL     1       4.251   3.847  18.540  0.00  0.00    +0.000 N 
ATOM     23  C   UNL     1       4.593   4.147  17.239  0.00  0.00    +0.000 C 
ATOM     24  O   UNL     1       4.041   3.617  16.280  0.00  0.00    +0.000 OA
ATOM     25  H   UNL     1       4.663   4.371  19.297  0.00  0.00    +0.000 HD
BRANCH  23  26
ATOM     26  C   UNL     1       5.651   5.137  17.087  0.00  0.00    +0.000 A 
ATOM     27  C   UNL     1       6.063   6.205  17.943  0.00  0.00    +0.000 A 
ATOM     28  C   UNL     1       7.128   6.825  17.328  0.00  0.00    +0.000 A 
ATOM     29  C   UNL     1       7.992   7.966  17.692  0.00  0.00    +0.000 C 
ATOM     30  O   UNL     1       7.401   6.219  16.143  0.00  0.00    +0.000 OA
ATOM     31  C   UNL     1       6.511   5.198  16.001  0.00  0.00    +0.000 A 
ATOM     32  C   UNL     1       6.641   4.386  14.769  0.00  0.00    +0.000 C 
ENDBRANCH  23  26
ENDBRANCH  21  22
ENDBRANCH  19  21
ENDBRANCH   3  17
TORSDOF 6
ENDMDL
MODEL 9
REMARK VINA RESULT:      -8.6      1.166      1.923
REMARK  Name = 
REMARK  9 active torsions:
REMARK  status: ('A' for Active; 'I' for Inactive)
REMARK    1  A    between atoms: C_1  and  C_2
REMARK    2  A    between atoms: C_5  and  C_6
REMARK    3  A    between atoms: C_8  and  C_9
REMARK    4  A    between atoms: N_11  and  C_12
REMARK    5  A    between atoms: C_14  and  C_15
REMARK    6  A    between atoms: C_15  and  N_16
REMARK    7  A    between atoms: C_17  and  C_19
REMARK    8  A    between atoms: C_21  and  C_22
REMARK    9  A    between atoms: C_24  and  C_25
REMARK                            x       y       z     vdW  Elec       q    Type
REMARK                         _______ _______ _______ _____ _____    ______ ____
ROOT
ATOM      1  C   UNL     1       1.943   7.340  19.955  0.00  0.00    +0.000 C 
ATOM      2  O   UNL     1       2.237   7.555  18.784  0.00  0.00    +0.000 OA
ATOM      3  N   UNL     1       2.101   6.100  20.542  0.00  0.00    +0.000 N 
ATOM      4  H   UNL     1       1.884   6.012  21.523  0.00  0.00    +0.000 HD
ENDROOT
BRANCH   1   7
ATOM      5  C   UNL     1       0.396  10.048  21.856  0.00  0.00    +0.000 A 
ATOM      6  C   UNL     1       0.417   9.327  20.640  0.00  0.00    +0.000 A 
ATOM      7  C   UNL     1       1.395   8.364  20.800  0.00  0.00    +0.000 A 
ATOM      8  N   UNL     1       1.857   8.546  22.080  0.00  0.00    +0.000 N 
ATOM      9  N   UNL     1       1.293   9.574  22.729  0.00  0.00    +0.000 NA
ATOM     10  H   UNL     1       2.565   7.990  22.551  0.00  0.00    +0.000 HD
BRANCH   5  15
ATOM     11  C   UNL     1      -1.730  14.465  21.412  0.00  0.00    +0.000 C 
ATOM     12  C   UNL     1      -1.513  13.144  22.031  0.00  0.00    +0.000 A 
ATOM     13  C   UNL     1      -2.158  12.449  23.031  0.00  0.00    +0.000 A 
ATOM     14  C   UNL     1      -1.518  11.190  23.112  0.00  0.00    +0.000 A 
ATOM     15  C   UNL     1      -0.513  11.188  22.165  0.00  0.00    +0.000 A 
ATOM     16  O   UNL     1      -0.494  12.397  21.522  0.00  0.00    +0.000 OA
ENDBRANCH   5  15
ENDBRANCH   1   7
BRANCH   3  17
ATOM     17  C   UNL     1       2.639   4.955  19.793  0.00  0.00    +0.000 C 
ATOM     18  C   UNL     1       1.590   3.898  19.371  0.00  0.00    +0.000 C 
ATOM     19  C   UNL     1       2.639   2.807  19.706  0.00  0.00    +0.000 C 
ATOM     20  C   UNL     1       3.280   3.847  20.667  0.00  0.00    +0.000 C 
BRANCH  19  21
ATOM     21  C   UNL     1       3.500   2.364  18.533  0.00  0.00    +0.000 C 
BRANCH  21  22
ATOM     22  N   UNL     1       4.525   3.362  18.338  0.00  0.00    +0.000 N 
ATOM     23  C   UNL     1       4.557   4.093  17.170  0.00  0.00    +0.000 C 
ATOM     24  O   UNL     1       3.737   3.929  16.273  0.00  0.00    +0.000 OA
ATOM     25  H   UNL     1       5.160   3.592  19.088  0.00  0.00    +0.000 HD
BRANCH  23  26
ATOM     26  C   UNL     1       5.631   5.075  17.080  0.00  0.00    +0.000 A 
ATOM     27  C   UNL     1       6.018   6.122  17.973  0.00  0.00    +0.000 A 
ATOM     28  C   UNL     1       7.114   6.742  17.414  0.00  0.00    +0.000 A 
ATOM     29  C   UNL     1       7.974   7.865  17.835  0.00  0.00    +0.000 C 
ATOM     30  O   UNL     1       7.428   6.155  16.230  0.00  0.00    +0.000 OA
ATOM     31  C   UNL     1       6.535   5.147  16.032  0.00  0.00    +0.000 A 
ATOM     32  C   UNL     1       6.706   4.358  14.790  0.00  0.00    +0.000 C 
ENDBRANCH  23  26
ENDBRANCH  21  22
ENDBRANCH  19  21
ENDBRANCH   3  17
TORSDOF 6
ENDMDL
