MODEL 1
REMARK VINA RESULT:      -8.6      0.000      0.000
REMARK  Name = 
REMARK  1 active torsions:
REMARK  status: ('A' for Active; 'I' for Inactive)
REMARK    1  A    between atoms: C_2  and  C_13
REMARK                            x       y       z     vdW  Elec       q    Type
REMARK                         _______ _______ _______ _____ _____    ______ ____
ROOT
ATOM      1  O   UNL     1       1.724   5.666  20.452  0.00  0.00    +0.000 OA
ATOM      2  C   UNL     1       2.373   6.227  19.567  0.00  0.00    +0.000 C 
ATOM      3  N   UNL     1       2.436   7.593  19.377  0.00  0.00    +0.000 N 
ATOM      4  C   UNL     1       1.666   8.428  20.140  0.00  0.00    +0.000 A 
ATOM      5  N   UNL     1       1.063   9.512  19.712  0.00  0.00    +0.000 NA
ATOM      6  C   UNL     1       0.299   9.938  20.776  0.00  0.00    +0.000 A 
ATOM      7  C   UNL     1      -0.670  10.949  20.842  0.00  0.00    +0.000 A 
ATOM      8  C   UNL     1      -1.287  11.210  22.073  0.00  0.00    +0.000 A 
ATOM      9  C   UNL     1      -0.924  10.499  23.221  0.00  0.00    +0.000 A 
ATOM     10  C   UNL     1       0.021   9.470  23.171  0.00  0.00    +0.000 A 
ATOM     11  C   UNL     1       0.579   9.198  21.920  0.00  0.00    +0.000 A 
ATOM     12  N   UNL     1       1.429   8.221  21.476  0.00  0.00    +0.000 N 
ATOM     13  H   UNL     1       2.754   7.933  18.475  0.00  0.00    +0.000 HD
ATOM     14  H   UNL     1       1.797   7.446  22.009  0.00  0.00    +0.000 HD
ENDROOT
BRANCH   2  15
ATOM     15  C   UNL     1       3.133   5.415  18.565  0.00  0.00    +0.000 A 
ATOM     16  C   UNL     1       3.141   4.035  18.679  0.00  0.00    +0.000 A 
ATOM     17  C   UNL     1       3.903   3.307  17.774  0.00  0.00    +0.000 A 
ATOM     18  C   UNL     1       4.638   3.982  16.791  0.00  0.00    +0.000 A 
ATOM     19  C   UNL     1       5.443   3.283  15.875  0.00  0.00    +0.000 A 
ATOM     20  C   UNL     1       6.181   3.972  14.916  0.00  0.00    +0.000 A 
ATOM     21  C   UNL     1       6.116   5.362  14.867  0.00  0.00    +0.000 A 
ATOM     22  C   UNL     1       5.312   6.053  15.777  0.00  0.00    +0.000 A 
ATOM     23  C   UNL     1       4.562   5.393  16.746  0.00  0.00    +0.000 A 
ATOM     24  N   UNL     1       3.808   6.106  17.605  0.00  0.00    +0.000 NA
ENDBRANCH   2  15
TORSDOF 1
ENDMDL
MODEL 2
REMARK VINA RESULT:      -8.4      6.674      9.207
REMARK  Name = 
REMARK  1 active torsions:
REMARK  status: ('A' for Active; 'I' for Inactive)
REMARK    1  A    between atoms: C_2  and  C_13
REMARK                            x       y       z     vdW  Elec       q    Type
REMARK                         _______ _______ _______ _____ _____    ______ ____
ROOT
ATOM      1  O   UNL     1       7.467   9.494  17.278  0.00  0.00    +0.000 OA
ATOM      2  C   UNL     1       8.335   9.187  18.097  0.00  0.00    +0.000 C 
ATOM      3  N   UNL     1       8.535   7.917  18.600  0.00  0.00    +0.000 N 
ATOM      4  C   UNL     1       7.677   6.904  18.268  0.00  0.00    +0.000 A 
ATOM      5  N   UNL     1       7.263   5.960  19.080  0.00  0.00    +0.000 NA
ATOM      6  C   UNL     1       6.314   5.266  18.363  0.00  0.00    +0.000 A 
ATOM      7  C   UNL     1       5.429   4.259  18.778  0.00  0.00    +0.000 A 
ATOM      8  C   UNL     1       4.574   3.683  17.829  0.00  0.00    +0.000 A 
ATOM      9  C   UNL     1       4.620   4.079  16.489  0.00  0.00    +0.000 A 
ATOM     10  C   UNL     1       5.477   5.098  16.061  0.00  0.00    +0.000 A 
ATOM     11  C   UNL     1       6.279   5.689  17.039  0.00  0.00    +0.000 A 
ATOM     12  N   UNL     1       7.134   6.758  17.016  0.00  0.00    +0.000 N 
ATOM     13  H   UNL     1       9.069   7.824  19.457  0.00  0.00    +0.000 HD
ATOM     14  H   UNL     1       7.318   7.373  16.237  0.00  0.00    +0.000 HD
ENDROOT
BRANCH   2  15
ATOM     15  C   UNL     1       9.239  10.239  18.661  0.00  0.00    +0.000 A 
ATOM     16  C   UNL     1       9.255  10.455  20.028  0.00  0.00    +0.000 A 
ATOM     17  C   UNL     1      10.056  11.477  20.520  0.00  0.00    +0.000 A 
ATOM     18  C   UNL     1      10.806  12.256  19.630  0.00  0.00    +0.000 A 
ATOM     19  C   UNL     1      11.607  13.317  20.086  0.00  0.00    +0.000 A 
ATOM     20  C   UNL     1      12.332  14.091  19.183  0.00  0.00    +0.000 A 
ATOM     21  C   UNL     1      12.263  13.806  17.822  0.00  0.00    +0.000 A 
ATOM     22  C   UNL     1      11.468  12.748  17.373  0.00  0.00    +0.000 A 
ATOM     23  C   UNL     1      10.733  11.956  18.249  0.00  0.00    +0.000 A 
ATOM     24  N   UNL     1       9.977  10.951  17.766  0.00  0.00    +0.000 NA
ENDBRANCH   2  15
TORSDOF 1
ENDMDL
MODEL 3
REMARK VINA RESULT:      -8.0      1.527      8.506
REMARK  Name = 
REMARK  1 active torsions:
REMARK  status: ('A' for Active; 'I' for Inactive)
REMARK    1  A    between atoms: C_2  and  C_13
REMARK                            x       y       z     vdW  Elec       q    Type
REMARK                         _______ _______ _______ _____ _____    ______ ____
ROOT
ATOM      1  O   UNL     1       2.163   9.256  17.217  0.00  0.00    +0.000 OA
ATOM      2  C   UNL     1       1.845   8.901  18.353  0.00  0.00    +0.000 C 
ATOM      3  N   UNL     1       2.303   7.762  18.984  0.00  0.00    +0.000 N 
ATOM      4  C   UNL     1       3.099   6.877  18.309  0.00  0.00    +0.000 A 
ATOM      5  N   UNL     1       3.039   5.569  18.408  0.00  0.00    +0.000 NA
ATOM      6  C   UNL     1       3.911   5.100  17.452  0.00  0.00    +0.000 A 
ATOM      7  C   UNL     1       4.134   3.791  17.000  0.00  0.00    +0.000 A 
ATOM      8  C   UNL     1       5.118   3.574  16.027  0.00  0.00    +0.000 A 
ATOM      9  C   UNL     1       5.886   4.634  15.535  0.00  0.00    +0.000 A 
ATOM     10  C   UNL     1       5.661   5.949  15.953  0.00  0.00    +0.000 A 
ATOM     11  C   UNL     1       4.639   6.140  16.885  0.00  0.00    +0.000 A 
ATOM     12  N   UNL     1       4.075   7.265  17.426  0.00  0.00    +0.000 N 
ATOM     13  H   UNL     1       1.778   7.416  19.780  0.00  0.00    +0.000 HD
ATOM     14  H   UNL     1       4.293   8.224  17.199  0.00  0.00    +0.000 HD
ENDROOT
BRANCH   2  15
ATOM     15  C   UNL     1       0.853   9.702  19.139  0.00  0.00    +0.000 A 
ATOM     16  C   UNL     1       0.182  10.742  18.518  0.00  0.00    +0.000 A 
ATOM     17  C   UNL     1      -0.688  11.508  19.284  0.00  0.00    +0.000 A 
ATOM     18  C   UNL     1      -0.849  11.218  20.644  0.00  0.00    +0.000 A 
ATOM     19  C   UNL     1      -1.697  11.988  21.459  0.00  0.00    +0.000 A 
ATOM     20  C   UNL     1      -1.830  11.695  22.814  0.00  0.00    +0.000 A 
ATOM     21  C   UNL     1      -1.120  10.630  23.360  0.00  0.00    +0.000 A 
ATOM     22  C   UNL     1      -0.280   9.864  22.547  0.00  0.00    +0.000 A 
ATOM     23  C   UNL     1      -0.126  10.131  21.190  0.00  0.00    +0.000 A 
ATOM     24  N   UNL     1       0.701   9.368  20.450  0.00  0.00    +0.000 NA
ENDBRANCH   2  15
TORSDOF 1
ENDMDL
MODEL 4
REMARK VINA RESULT:      -8.0      1.968      8.450
REMARK  Name = 
REMARK  1 active torsions:
REMARK  status: ('A' for Active; 'I' for Inactive)
REMARK    1  A    between atoms: C_2  and  C_13
REMARK                            x       y       z     vdW  Elec       q    Type
REMARK                         _______ _______ _______ _____ _____    ______ ____
ROOT
ATOM      1  O   UNL     1       1.845   8.391  19.409  0.00  0.00    +0.000 OA
ATOM      2  C   UNL     1       1.349   8.171  20.515  0.00  0.00    +0.000 C 
ATOM      3  N   UNL     1       1.377   6.954  21.167  0.00  0.00    +0.000 N 
ATOM      4  C   UNL     1       1.899   5.854  20.544  0.00  0.00    +0.000 A 
ATOM      5  N   UNL     1       1.423   4.633  20.626  0.00  0.00    +0.000 NA
ATOM      6  C   UNL     1       2.169   3.899  19.732  0.00  0.00    +0.000 A 
ATOM      7  C   UNL     1       2.000   2.580  19.286  0.00  0.00    +0.000 A 
ATOM      8  C   UNL     1       2.934   2.051  18.385  0.00  0.00    +0.000 A 
ATOM      9  C   UNL     1       4.030   2.807  17.961  0.00  0.00    +0.000 A 
ATOM     10  C   UNL     1       4.202   4.132  18.374  0.00  0.00    +0.000 A 
ATOM     11  C   UNL     1       3.227   4.649  19.230  0.00  0.00    +0.000 A 
ATOM     12  N   UNL     1       3.010   5.901  19.739  0.00  0.00    +0.000 N 
ATOM     13  H   UNL     1       0.713   6.803  21.919  0.00  0.00    +0.000 HD
ATOM     14  H   UNL     1       3.535   6.740  19.538  0.00  0.00    +0.000 HD
ENDROOT
BRANCH   2  15
ATOM     15  C   UNL     1       0.606   9.255  21.233  0.00  0.00    +0.000 A 
ATOM     16  C   UNL     1       0.279   9.081  22.567  0.00  0.00    +0.000 A 
ATOM     17  C   UNL     1      -0.462  10.075  23.194  0.00  0.00    +0.000 A 
ATOM     18  C   UNL     1      -0.860  11.203  22.466  0.00  0.00    +0.000 A 
ATOM     19  C   UNL     1      -1.634  12.216  23.056  0.00  0.00    +0.000 A 
ATOM     20  C   UNL     1      -2.035  13.322  22.311  0.00  0.00    +0.000 A 
ATOM     21  C   UNL     1      -1.661  13.422  20.974  0.00  0.00    +0.000 A 
ATOM     22  C   UNL     1      -0.888  12.414  20.390  0.00  0.00    +0.000 A 
ATOM     23  C   UNL     1      -0.471  11.297  21.109  0.00  0.00    +0.000 A 
ATOM     24  N   UNL     1       0.267  10.350  20.499  0.00  0.00    +0.000 NA
ENDBRANCH   2  15
TORSDOF 1
ENDMDL
MODEL 5
REMARK VINA RESULT:      -7.9      1.426      8.558
REMARK  Name = 
REMARK  1 active torsions:
REMARK  status: ('A' for Active; 'I' for Inactive)
REMARK    1  A    between atoms: C_2  and  C_13
REMARK                            x       y       z     vdW  Elec       q    Type
REMARK                         _______ _______ _______ _____ _____    ______ ____
ROOT
ATOM      1  O   UNL     1       1.455   8.935  18.786  0.00  0.00    +0.000 OA
ATOM      2  C   UNL     1       1.342   8.617  19.971  0.00  0.00    +0.000 C 
ATOM      3  N   UNL     1       1.871   7.476  20.539  0.00  0.00    +0.000 N 
ATOM      4  C   UNL     1       2.499   6.547  19.754  0.00  0.00    +0.000 A 
ATOM      5  N   UNL     1       2.416   5.245  19.900  0.00  0.00    +0.000 NA
ATOM      6  C   UNL     1       3.080   4.723  18.813  0.00  0.00    +0.000 A 
ATOM      7  C   UNL     1       3.172   3.397  18.365  0.00  0.00    +0.000 A 
ATOM      8  C   UNL     1       3.951   3.122  17.233  0.00  0.00    +0.000 A 
ATOM      9  C   UNL     1       4.649   4.142  16.578  0.00  0.00    +0.000 A 
ATOM     10  C   UNL     1       4.548   5.474  16.993  0.00  0.00    +0.000 A 
ATOM     11  C   UNL     1       3.723   5.723  18.092  0.00  0.00    +0.000 A 
ATOM     12  N   UNL     1       3.307   6.879  18.695  0.00  0.00    +0.000 N 
ATOM     13  H   UNL     1       1.492   7.168  21.427  0.00  0.00    +0.000 HD
ATOM     14  H   UNL     1       3.510   7.825  18.405  0.00  0.00    +0.000 HD
ENDROOT
BRANCH   2  15
ATOM     15  C   UNL     1       0.540   9.473  20.903  0.00  0.00    +0.000 A 
ATOM     16  C   UNL     1       0.474   9.134  22.244  0.00  0.00    +0.000 A 
ATOM     17  C   UNL     1      -0.325   9.908  23.076  0.00  0.00    +0.000 A 
ATOM     18  C   UNL     1      -1.039  10.986  22.540  0.00  0.00    +0.000 A 
ATOM     19  C   UNL     1      -1.880  11.775  23.343  0.00  0.00    +0.000 A 
ATOM     20  C   UNL     1      -2.597  12.832  22.788  0.00  0.00    +0.000 A 
ATOM     21  C   UNL     1      -2.473  13.108  21.429  0.00  0.00    +0.000 A 
ATOM     22  C   UNL     1      -1.634  12.323  20.634  0.00  0.00    +0.000 A 
ATOM     23  C   UNL     1      -0.904  11.261  21.158  0.00  0.00    +0.000 A 
ATOM     24  N   UNL     1      -0.113  10.531  20.349  0.00  0.00    +0.000 NA
ENDBRANCH   2  15
TORSDOF 1
ENDMDL
MODEL 6
REMARK VINA RESULT:      -7.8      1.643      1.965
REMARK  Name = 
REMARK  1 active torsions:
REMARK  status: ('A' for Active; 'I' for Inactive)
REMARK    1  A    between atoms: C_2  and  C_13
REMARK                            x       y       z     vdW  Elec       q    Type
REMARK                         _______ _______ _______ _____ _____    ______ ____
ROOT
ATOM      1  O   UNL     1       2.013   7.721  20.151  0.00  0.00    +0.000 OA
ATOM      2  C   UNL     1       2.137   7.782  18.926  0.00  0.00    +0.000 C 
ATOM      3  N   UNL     1       1.598   8.767  18.123  0.00  0.00    +0.000 N 
ATOM      4  C   UNL     1       0.779   9.720  18.664  0.00  0.00    +0.000 A 
ATOM      5  N   UNL     1      -0.294  10.215  18.093  0.00  0.00    +0.000 NA
ATOM      6  C   UNL     1      -0.870  11.018  19.052  0.00  0.00    +0.000 A 
ATOM      7  C   UNL     1      -2.112  11.669  19.056  0.00  0.00    +0.000 A 
ATOM      8  C   UNL     1      -2.450  12.467  20.157  0.00  0.00    +0.000 A 
ATOM      9  C   UNL     1      -1.557  12.637  21.220  0.00  0.00    +0.000 A 
ATOM     10  C   UNL     1      -0.325  11.975  21.247  0.00  0.00    +0.000 A 
ATOM     11  C   UNL     1      -0.039  11.147  20.160  0.00  0.00    +0.000 A 
ATOM     12  N   UNL     1       0.989  10.281  19.899  0.00  0.00    +0.000 N 
ATOM     13  H   UNL     1       1.516   8.578  17.130  0.00  0.00    +0.000 HD
ATOM     14  H   UNL     1       1.757  10.046  20.511  0.00  0.00    +0.000 HD
ENDROOT
BRANCH   2  15
ATOM     15  C   UNL     1       2.880   6.707  18.194  0.00  0.00    +0.000 A 
ATOM     16  C   UNL     1       2.346   5.430  18.144  0.00  0.00    +0.000 A 
ATOM     17  C   UNL     1       3.083   4.438  17.512  0.00  0.00    +0.000 A 
ATOM     18  C   UNL     1       4.331   4.750  16.959  0.00  0.00    +0.000 A 
ATOM     19  C   UNL     1       5.119   3.767  16.336  0.00  0.00    +0.000 A 
ATOM     20  C   UNL     1       6.366   4.093  15.808  0.00  0.00    +0.000 A 
ATOM     21  C   UNL     1       6.829   5.403  15.897  0.00  0.00    +0.000 A 
ATOM     22  C   UNL     1       6.042   6.378  16.515  0.00  0.00    +0.000 A 
ATOM     23  C   UNL     1       4.792   6.084  17.051  0.00  0.00    +0.000 A 
ATOM     24  N   UNL     1       4.074   7.059  17.642  0.00  0.00    +0.000 NA
ENDBRANCH   2  15
TORSDOF 1
ENDMDL
MODEL 7
REMARK VINA RESULT:      -7.8      2.392      3.613
REMARK  Name = 
REMARK  1 active torsions:
REMARK  status: ('A' for Active; 'I' for Inactive)
REMARK    1  A    between atoms: C_2  and  C_13
REMARK                            x       y       z     vdW  Elec       q    Type
REMARK                         _______ _______ _______ _____ _____    ______ ____
ROOT
ATOM      1  O   UNL     1       2.380   9.293  17.132  0.00  0.00    +0.000 OA
ATOM      2  C   UNL     1       2.143   8.485  18.033  0.00  0.00    +0.000 C 
ATOM      3  N   UNL     1       1.405   8.759  19.167  0.00  0.00    +0.000 N 
ATOM      4  C   UNL     1       0.959  10.031  19.405  0.00  0.00    +0.000 A 
ATOM      5  N   UNL     1       0.914  10.616  20.579  0.00  0.00    +0.000 NA
ATOM      6  C   UNL     1       0.542  11.915  20.315  0.00  0.00    +0.000 A 
ATOM      7  C   UNL     1       0.490  13.029  21.166  0.00  0.00    +0.000 A 
ATOM      8  C   UNL     1       0.036  14.249  20.650  0.00  0.00    +0.000 A 
ATOM      9  C   UNL     1      -0.387  14.352  19.321  0.00  0.00    +0.000 A 
ATOM     10  C   UNL     1      -0.319  13.261  18.450  0.00  0.00    +0.000 A 
ATOM     11  C   UNL     1       0.187  12.072  18.980  0.00  0.00    +0.000 A 
ATOM     12  N   UNL     1       0.496  10.863  18.416  0.00  0.00    +0.000 N 
ATOM     13  H   UNL     1       1.506   8.136  19.961  0.00  0.00    +0.000 HD
ATOM     14  H   UNL     1       0.441  10.615  17.439  0.00  0.00    +0.000 HD
ENDROOT
BRANCH   2  15
ATOM     15  C   UNL     1       2.712   7.102  17.968  0.00  0.00    +0.000 A 
ATOM     16  C   UNL     1       4.032   6.931  17.589  0.00  0.00    +0.000 A 
ATOM     17  C   UNL     1       4.518   5.635  17.478  0.00  0.00    +0.000 A 
ATOM     18  C   UNL     1       3.668   4.553  17.739  0.00  0.00    +0.000 A 
ATOM     19  C   UNL     1       4.115   3.227  17.611  0.00  0.00    +0.000 A 
ATOM     20  C   UNL     1       3.249   2.164  17.858  0.00  0.00    +0.000 A 
ATOM     21  C   UNL     1       1.935   2.423  18.238  0.00  0.00    +0.000 A 
ATOM     22  C   UNL     1       1.495   3.743  18.368  0.00  0.00    +0.000 A 
ATOM     23  C   UNL     1       2.336   4.825  18.129  0.00  0.00    +0.000 A 
ATOM     24  N   UNL     1       1.862   6.079  18.262  0.00  0.00    +0.000 NA
ENDBRANCH   2  15
TORSDOF 1
ENDMDL
MODEL 8
REMARK VINA RESULT:      -7.7      1.173      8.314
REMARK  Name = 
REMARK  1 active torsions:
REMARK  status: ('A' for Active; 'I' for Inactive)
REMARK    1  A    between atoms: C_2  and  C_13
REMARK                            x       y       z     vdW  Elec       q    Type
REMARK                         _______ _______ _______ _____ _____    ______ ____
ROOT
ATOM      1  O   UNL     1       1.737   6.719  20.828  0.00  0.00    +0.000 OA
ATOM      2  C   UNL     1       1.499   7.798  20.283  0.00  0.00    +0.000 C 
ATOM      3  N   UNL     1       1.907   8.150  19.012  0.00  0.00    +0.000 N 
ATOM      4  C   UNL     1       2.716   7.311  18.295  0.00  0.00    +0.000 A 
ATOM      5  N   UNL     1       3.704   7.687  17.516  0.00  0.00    +0.000 NA
ATOM      6  C   UNL     1       4.316   6.516  17.128  0.00  0.00    +0.000 A 
ATOM      7  C   UNL     1       5.514   6.315  16.427  0.00  0.00    +0.000 A 
ATOM      8  C   UNL     1       5.903   5.003  16.124  0.00  0.00    +0.000 A 
ATOM      9  C   UNL     1       5.101   3.916  16.484  0.00  0.00    +0.000 A 
ATOM     10  C   UNL     1       3.916   4.094  17.205  0.00  0.00    +0.000 A 
ATOM     11  C   UNL     1       3.582   5.409  17.538  0.00  0.00    +0.000 A 
ATOM     12  N   UNL     1       2.586   5.945  18.309  0.00  0.00    +0.000 N 
ATOM     13  H   UNL     1       1.911   9.135  18.770  0.00  0.00    +0.000 HD
ATOM     14  H   UNL     1       1.890   5.442  18.841  0.00  0.00    +0.000 HD
ENDROOT
BRANCH   2  15
ATOM     15  C   UNL     1       0.757   8.866  21.026  0.00  0.00    +0.000 A 
ATOM     16  C   UNL     1       0.701   8.813  22.408  0.00  0.00    +0.000 A 
ATOM     17  C   UNL     1      -0.044   9.780  23.070  0.00  0.00    +0.000 A 
ATOM     18  C   UNL     1      -0.716  10.761  22.330  0.00  0.00    +0.000 A 
ATOM     19  C   UNL     1      -1.503  11.739  22.962  0.00  0.00    +0.000 A 
ATOM     20  C   UNL     1      -2.179  12.695  22.207  0.00  0.00    +0.000 A 
ATOM     21  C   UNL     1      -2.068  12.680  20.820  0.00  0.00    +0.000 A 
ATOM     22  C   UNL     1      -1.282  11.708  20.196  0.00  0.00    +0.000 A 
ATOM     23  C   UNL     1      -0.594  10.740  20.921  0.00  0.00    +0.000 A 
ATOM     24  N   UNL     1       0.145   9.820  20.272  0.00  0.00    +0.000 NA
ENDBRANCH   2  15
TORSDOF 1
ENDMDL
MODEL 9
REMARK VINA RESULT:      -7.7      1.403      8.465
REMARK  Name = 
REMARK  1 active torsions:
REMARK  status: ('A' for Active; 'I' for Inactive)
REMARK    1  A    between atoms: C_2  and  C_13
REMARK                            x       y       z     vdW  Elec       q    Type
REMARK                         _______ _______ _______ _____ _____    ______ ____
ROOT
ATOM      1  O   UNL     1       1.871   9.037  18.269  0.00  0.00    +0.000 OA
ATOM      2  C   UNL     1       1.834   8.561  19.406  0.00  0.00    +0.000 C 
ATOM      3  N   UNL     1       2.489   7.413  19.805  0.00  0.00    +0.000 N 
ATOM      4  C   UNL     1       3.170   6.658  18.889  0.00  0.00    +0.000 A 
ATOM      5  N   UNL     1       3.215   5.347  18.866  0.00  0.00    +0.000 NA
ATOM      6  C   UNL     1       3.882   5.035  17.703  0.00  0.00    +0.000 A 
ATOM      7  C   UNL     1       4.081   3.792  17.083  0.00  0.00    +0.000 A 
ATOM      8  C   UNL     1       4.837   3.742  15.905  0.00  0.00    +0.000 A 
ATOM      9  C   UNL     1       5.410   4.900  15.370  0.00  0.00    +0.000 A 
ATOM     10  C   UNL     1       5.202   6.151  15.958  0.00  0.00    +0.000 A 
ATOM     11  C   UNL     1       4.400   6.176  17.101  0.00  0.00    +0.000 A 
ATOM     12  N   UNL     1       3.901   7.200  17.862  0.00  0.00    +0.000 N 
ATOM     13  H   UNL     1       2.175   6.959  20.656  0.00  0.00    +0.000 HD
ATOM     14  H   UNL     1       4.004   8.190  17.692  0.00  0.00    +0.000 HD
ENDROOT
BRANCH   2  15
ATOM     15  C   UNL     1       0.992   9.207  20.462  0.00  0.00    +0.000 A 
ATOM     16  C   UNL     1       0.353   8.412  21.398  0.00  0.00    +0.000 A 
ATOM     17  C   UNL     1      -0.470   9.031  22.330  0.00  0.00    +0.000 A 
ATOM     18  C   UNL     1      -0.635  10.421  22.290  0.00  0.00    +0.000 A 
ATOM     19  C   UNL     1      -1.481  11.081  23.198  0.00  0.00    +0.000 A 
ATOM     20  C   UNL     1      -1.646  12.463  23.131  0.00  0.00    +0.000 A 
ATOM     21  C   UNL     1      -0.964  13.190  22.160  0.00  0.00    +0.000 A 
ATOM     22  C   UNL     1      -0.121  12.531  21.261  0.00  0.00    +0.000 A 
ATOM     23  C   UNL     1       0.065  11.153  21.302  0.00  0.00    +0.000 A 
ATOM     24  N   UNL     1       0.884  10.564  20.410  0.00  0.00    +0.000 NA
ENDBRANCH   2  15
TORSDOF 1
ENDMDL
