MODEL 1
REMARK VINA RESULT:      -7.5      0.000      0.000
REMARK  Name = 
REMARK  1 active torsions:
REMARK  status: ('A' for Active; 'I' for Inactive)
REMARK    1  A    between atoms: C_1  and  C_2
REMARK                            x       y       z     vdW  Elec       q    Type
REMARK                         _______ _______ _______ _____ _____    ______ ____
ROOT
ATOM      1  C   UNL     1       3.965  14.870  21.315  0.00  0.00    +0.000 C 
ATOM      2  C   UNL     1       5.168  14.231  21.949  0.00  0.00    +0.000 A 
ATOM      3  N   UNL     1       6.394  14.501  21.447  0.00  0.00    +0.000 NA
ATOM      4  C   UNL     1       7.537  13.913  21.938  0.00  0.00    +0.000 A 
ATOM      5  N   UNL     1       8.765  14.339  21.415  0.00  0.00    +0.000 N 
ATOM      6  C   UNL     1      10.022  13.606  21.381  0.00  0.00    +0.000 C 
ATOM      7  C   UNL     1      10.332  12.972  20.040  0.00  0.00    +0.000 A 
ATOM      8  C   UNL     1      11.645  12.523  19.772  0.00  0.00    +0.000 A 
ATOM      9  C   UNL     1      11.935  11.813  18.606  0.00  0.00    +0.000 A 
ATOM     10  C   UNL     1      10.905  11.439  17.745  0.00  0.00    +0.000 A 
ATOM     11  C   UNL     1       9.627  11.973  17.938  0.00  0.00    +0.000 A 
ATOM     12  C   UNL     1       9.408  12.859  18.993  0.00  0.00    +0.000 A 
ATOM     13  O   UNL     1       8.406  13.797  18.766  0.00  0.00    +0.000 OA
ATOM     14  C   UNL     1       8.856  15.175  18.998  0.00  0.00    +0.000 C 
ATOM     15  C   UNL     1      10.233  15.459  18.305  0.00  0.00    +0.000 C 
ATOM     16  C   UNL     1      10.678  16.906  18.378  0.00  0.00    +0.000 C 
ATOM     17  O   UNL     1       9.691  17.766  17.828  0.00  0.00    +0.000 OA
ATOM     18  C   UNL     1       8.417  17.603  18.444  0.00  0.00    +0.000 C 
ATOM     19  C   UNL     1       7.899  16.166  18.283  0.00  0.00    +0.000 C 
ATOM     20  C   UNL     1       8.749  15.509  20.526  0.00  0.00    +0.000 C 
ATOM     21  C   UNL     1       7.316  13.002  23.019  0.00  0.00    +0.000 A 
ATOM     22  C   UNL     1       8.059  12.150  23.891  0.00  0.00    +0.000 A 
ATOM     23  C   UNL     1       7.213  11.561  24.800  0.00  0.00    +0.000 A 
ATOM     24  N   UNL     1       5.961  12.011  24.546  0.00  0.00    +0.000 N 
ATOM     25  C   UNL     1       5.997  12.860  23.471  0.00  0.00    +0.000 A 
ATOM     26  N   UNL     1       4.892  13.445  22.997  0.00  0.00    +0.000 NA
ATOM     27  H   UNL     1       5.107  11.792  25.047  0.00  0.00    +0.000 HD
ENDROOT
TORSDOF 0
ENDMDL
MODEL 2
REMARK VINA RESULT:      -7.2      8.415     10.462
REMARK  Name = 
REMARK  1 active torsions:
REMARK  status: ('A' for Active; 'I' for Inactive)
REMARK    1  A    between atoms: C_1  and  C_2
REMARK                            x       y       z     vdW  Elec       q    Type
REMARK                         _______ _______ _______ _____ _____    ______ ____
ROOT
ATOM      1  C   UNL     1       0.329   8.100  22.216  0.00  0.00    +0.000 C 
ATOM      2  C   UNL     1       0.936   8.490  20.900  0.00  0.00    +0.000 A 
ATOM      3  N   UNL     1       1.459   7.526  20.108  0.00  0.00    +0.000 NA
ATOM      4  C   UNL     1       2.079   7.811  18.913  0.00  0.00    +0.000 A 
ATOM      5  N   UNL     1       2.495   6.731  18.122  0.00  0.00    +0.000 N 
ATOM      6  C   UNL     1       3.546   6.716  17.115  0.00  0.00    +0.000 C 
ATOM      7  C   UNL     1       4.852   6.115  17.594  0.00  0.00    +0.000 A 
ATOM      8  C   UNL     1       5.831   5.739  16.647  0.00  0.00    +0.000 A 
ATOM      9  C   UNL     1       7.095   5.310  17.055  0.00  0.00    +0.000 A 
ATOM     10  C   UNL     1       7.444   5.358  18.403  0.00  0.00    +0.000 A 
ATOM     11  C   UNL     1       6.453   5.615  19.356  0.00  0.00    +0.000 A 
ATOM     12  C   UNL     1       5.140   5.830  18.936  0.00  0.00    +0.000 A 
ATOM     13  O   UNL     1       4.166   5.444  19.851  0.00  0.00    +0.000 OA
ATOM     14  C   UNL     1       3.164   4.543  19.267  0.00  0.00    +0.000 C 
ATOM     15  C   UNL     1       3.833   3.387  18.447  0.00  0.00    +0.000 C 
ATOM     16  C   UNL     1       2.860   2.337  17.947  0.00  0.00    +0.000 C 
ATOM     17  O   UNL     1       2.122   1.780  19.025  0.00  0.00    +0.000 OA
ATOM     18  C   UNL     1       1.440   2.769  19.792  0.00  0.00    +0.000 C 
ATOM     19  C   UNL     1       2.423   3.780  20.399  0.00  0.00    +0.000 C 
ATOM     20  C   UNL     1       2.065   5.388  18.535  0.00  0.00    +0.000 C 
ATOM     21  C   UNL     1       2.122   9.203  18.585  0.00  0.00    +0.000 A 
ATOM     22  C   UNL     1       2.593  10.059  17.545  0.00  0.00    +0.000 A 
ATOM     23  C   UNL     1       2.244  11.361  17.818  0.00  0.00    +0.000 A 
ATOM     24  N   UNL     1       1.561  11.365  18.989  0.00  0.00    +0.000 N 
ATOM     25  C   UNL     1       1.494  10.084  19.474  0.00  0.00    +0.000 A 
ATOM     26  N   UNL     1       0.880   9.800  20.628  0.00  0.00    +0.000 NA
ATOM     27  H   UNL     1       1.142  12.156  19.463  0.00  0.00    +0.000 HD
ENDROOT
TORSDOF 0
ENDMDL
MODEL 3
REMARK VINA RESULT:      -7.0      8.134     11.363
REMARK  Name = 
REMARK  1 active torsions:
REMARK  status: ('A' for Active; 'I' for Inactive)
REMARK    1  A    between atoms: C_1  and  C_2
REMARK                            x       y       z     vdW  Elec       q    Type
REMARK                         _______ _______ _______ _____ _____    ______ ____
ROOT
ATOM      1  C   UNL     1      -2.745  10.740  14.970  0.00  0.00    +0.000 C 
ATOM      2  C   UNL     1      -3.352  11.107  16.294  0.00  0.00    +0.000 A 
ATOM      3  N   UNL     1      -2.542  11.512  17.297  0.00  0.00    +0.000 NA
ATOM      4  C   UNL     1      -3.018  11.814  18.552  0.00  0.00    +0.000 A 
ATOM      5  N   UNL     1      -2.108  12.323  19.489  0.00  0.00    +0.000 N 
ATOM      6  C   UNL     1      -2.200  12.271  20.941  0.00  0.00    +0.000 C 
ATOM      7  C   UNL     1      -1.354  11.186  21.575  0.00  0.00    +0.000 A 
ATOM      8  C   UNL     1      -1.093  11.233  22.963  0.00  0.00    +0.000 A 
ATOM      9  C   UNL     1      -0.434  10.182  23.605  0.00  0.00    +0.000 A 
ATOM     10  C   UNL     1      -0.129   9.020  22.900  0.00  0.00    +0.000 A 
ATOM     11  C   UNL     1      -0.276   9.007  21.509  0.00  0.00    +0.000 A 
ATOM     12  C   UNL     1      -0.736  10.152  20.859  0.00  0.00    +0.000 A 
ATOM     13  O   UNL     1      -0.269  10.310  19.558  0.00  0.00    +0.000 OA
ATOM     14  C   UNL     1       0.349  11.623  19.333  0.00  0.00    +0.000 C 
ATOM     15  C   UNL     1       1.356  11.994  20.475  0.00  0.00    +0.000 C 
ATOM     16  C   UNL     1       2.140  13.267  20.224  0.00  0.00    +0.000 C 
ATOM     17  O   UNL     1       2.838  13.194  18.989  0.00  0.00    +0.000 OA
ATOM     18  C   UNL     1       1.978  12.909  17.889  0.00  0.00    +0.000 C 
ATOM     19  C   UNL     1       1.258  11.566  18.076  0.00  0.00    +0.000 C 
ATOM     20  C   UNL     1      -0.767  12.675  19.002  0.00  0.00    +0.000 C 
ATOM     21  C   UNL     1      -4.433  11.663  18.701  0.00  0.00    +0.000 A 
ATOM     22  C   UNL     1      -5.444  11.823  19.696  0.00  0.00    +0.000 A 
ATOM     23  C   UNL     1      -6.679  11.562  19.152  0.00  0.00    +0.000 A 
ATOM     24  N   UNL     1      -6.495  11.250  17.847  0.00  0.00    +0.000 N 
ATOM     25  C   UNL     1      -5.154  11.285  17.561  0.00  0.00    +0.000 A 
ATOM     26  N   UNL     1      -4.687  11.006  16.339  0.00  0.00    +0.000 NA
ATOM     27  H   UNL     1      -7.200  11.028  17.154  0.00  0.00    +0.000 HD
ENDROOT
TORSDOF 0
ENDMDL
MODEL 4
REMARK VINA RESULT:      -6.9      8.723     10.561
REMARK  Name = 
REMARK  1 active torsions:
REMARK  status: ('A' for Active; 'I' for Inactive)
REMARK    1  A    between atoms: C_1  and  C_2
REMARK                            x       y       z     vdW  Elec       q    Type
REMARK                         _______ _______ _______ _____ _____    ______ ____
ROOT
ATOM      1  C   UNL     1       1.839  10.649  17.475  0.00  0.00    +0.000 C 
ATOM      2  C   UNL     1       1.532   9.871  18.721  0.00  0.00    +0.000 A 
ATOM      3  N   UNL     1       2.168   8.697  18.934  0.00  0.00    +0.000 NA
ATOM      4  C   UNL     1       1.902   7.901  20.025  0.00  0.00    +0.000 A 
ATOM      5  N   UNL     1       2.689   6.756  20.204  0.00  0.00    +0.000 N 
ATOM      6  C   UNL     1       2.347   5.543  20.933  0.00  0.00    +0.000 C 
ATOM      7  C   UNL     1       1.908   4.394  20.049  0.00  0.00    +0.000 A 
ATOM      8  C   UNL     1       1.867   3.086  20.582  0.00  0.00    +0.000 A 
ATOM      9  C   UNL     1       1.340   2.027  19.841  0.00  0.00    +0.000 A 
ATOM     10  C   UNL     1       0.740   2.272  18.607  0.00  0.00    +0.000 A 
ATOM     11  C   UNL     1       0.877   3.534  18.021  0.00  0.00    +0.000 A 
ATOM     12  C   UNL     1       1.599   4.523  18.688  0.00  0.00    +0.000 A 
ATOM     13  O   UNL     1       2.226   5.446  17.857  0.00  0.00    +0.000 OA
ATOM     14  C   UNL     1       3.659   5.587  18.144  0.00  0.00    +0.000 C 
ATOM     15  C   UNL     1       4.363   4.194  18.278  0.00  0.00    +0.000 C 
ATOM     16  C   UNL     1       5.870   4.270  18.422  0.00  0.00    +0.000 C 
ATOM     17  O   UNL     1       6.445   4.984  17.337  0.00  0.00    +0.000 OA
ATOM     18  C   UNL     1       5.890   6.287  17.182  0.00  0.00    +0.000 C 
ATOM     19  C   UNL     1       4.378   6.223  16.924  0.00  0.00    +0.000 C 
ATOM     20  C   UNL     1       3.857   6.598  19.326  0.00  0.00    +0.000 C 
ATOM     21  C   UNL     1       0.902   8.422  20.907  0.00  0.00    +0.000 A 
ATOM     22  C   UNL     1       0.246   8.080  22.128  0.00  0.00    +0.000 A 
ATOM     23  C   UNL     1      -0.612   9.089  22.495  0.00  0.00    +0.000 A 
ATOM     24  N   UNL     1      -0.522  10.064  21.558  0.00  0.00    +0.000 N 
ATOM     25  C   UNL     1       0.365   9.676  20.588  0.00  0.00    +0.000 A 
ATOM     26  N   UNL     1       0.638  10.450  19.533  0.00  0.00    +0.000 NA
ATOM     27  H   UNL     1      -1.004  10.955  21.540  0.00  0.00    +0.000 HD
ENDROOT
TORSDOF 0
ENDMDL
MODEL 5
REMARK VINA RESULT:      -6.8      2.714      6.474
REMARK  Name = 
REMARK  1 active torsions:
REMARK  status: ('A' for Active; 'I' for Inactive)
REMARK    1  A    between atoms: C_1  and  C_2
REMARK                            x       y       z     vdW  Elec       q    Type
REMARK                         _______ _______ _______ _____ _____    ______ ____
ROOT
ATOM      1  C   UNL     1       8.841   9.711  18.702  0.00  0.00    +0.000 C 
ATOM      2  C   UNL     1       9.621  10.993  18.753  0.00  0.00    +0.000 A 
ATOM      3  N   UNL     1       9.501  11.790  19.837  0.00  0.00    +0.000 NA
ATOM      4  C   UNL     1      10.142  13.005  19.934  0.00  0.00    +0.000 A 
ATOM      5  N   UNL     1      10.032  13.705  21.142  0.00  0.00    +0.000 N 
ATOM      6  C   UNL     1      10.174  15.137  21.359  0.00  0.00    +0.000 C 
ATOM      7  C   UNL     1       8.858  15.878  21.482  0.00  0.00    +0.000 A 
ATOM      8  C   UNL     1       8.846  17.187  22.014  0.00  0.00    +0.000 A 
ATOM      9  C   UNL     1       7.677  17.949  22.016  0.00  0.00    +0.000 A 
ATOM     10  C   UNL     1       6.531  17.466  21.386  0.00  0.00    +0.000 A 
ATOM     11  C   UNL     1       6.497  16.134  20.961  0.00  0.00    +0.000 A 
ATOM     12  C   UNL     1       7.612  15.321  21.166  0.00  0.00    +0.000 A 
ATOM     13  O   UNL     1       7.325  13.971  21.333  0.00  0.00    +0.000 OA
ATOM     14  C   UNL     1       7.918  13.411  22.555  0.00  0.00    +0.000 C 
ATOM     15  C   UNL     1       7.658  14.329  23.798  0.00  0.00    +0.000 C 
ATOM     16  C   UNL     1       8.112  13.733  25.116  0.00  0.00    +0.000 C 
ATOM     17  O   UNL     1       7.506  12.467  25.332  0.00  0.00    +0.000 OA
ATOM     18  C   UNL     1       7.742  11.555  24.263  0.00  0.00    +0.000 C 
ATOM     19  C   UNL     1       7.188  12.096  22.936  0.00  0.00    +0.000 C 
ATOM     20  C   UNL     1       9.406  13.005  22.272  0.00  0.00    +0.000 C 
ATOM     21  C   UNL     1      10.941  13.344  18.796  0.00  0.00    +0.000 A 
ATOM     22  C   UNL     1      11.792  14.396  18.342  0.00  0.00    +0.000 A 
ATOM     23  C   UNL     1      12.333  14.064  17.122  0.00  0.00    +0.000 A 
ATOM     24  N   UNL     1      11.865  12.837  16.786  0.00  0.00    +0.000 N 
ATOM     25  C   UNL     1      11.014  12.397  17.766  0.00  0.00    +0.000 A 
ATOM     26  N   UNL     1      10.399  11.212  17.685  0.00  0.00    +0.000 NA
ATOM     27  H   UNL     1      12.086  12.291  15.962  0.00  0.00    +0.000 HD
ENDROOT
TORSDOF 0
ENDMDL
MODEL 6
REMARK VINA RESULT:      -6.7      1.254      1.607
REMARK  Name = 
REMARK  1 active torsions:
REMARK  status: ('A' for Active; 'I' for Inactive)
REMARK    1  A    between atoms: C_1  and  C_2
REMARK                            x       y       z     vdW  Elec       q    Type
REMARK                         _______ _______ _______ _____ _____    ______ ____
ROOT
ATOM      1  C   UNL     1       4.764  16.477  19.331  0.00  0.00    +0.000 C 
ATOM      2  C   UNL     1       5.600  15.695  20.303  0.00  0.00    +0.000 A 
ATOM      3  N   UNL     1       6.941  15.657  20.132  0.00  0.00    +0.000 NA
ATOM      4  C   UNL     1       7.767  14.920  20.949  0.00  0.00    +0.000 A 
ATOM      5  N   UNL     1       9.149  15.031  20.748  0.00  0.00    +0.000 N 
ATOM      6  C   UNL     1      10.182  14.067  21.100  0.00  0.00    +0.000 C 
ATOM      7  C   UNL     1      10.667  13.229  19.935  0.00  0.00    +0.000 A 
ATOM      8  C   UNL     1      11.873  12.502  20.058  0.00  0.00    +0.000 A 
ATOM      9  C   UNL     1      12.280  11.615  19.060  0.00  0.00    +0.000 A 
ATOM     10  C   UNL     1      11.440  11.350  17.981  0.00  0.00    +0.000 A 
ATOM     11  C   UNL     1      10.305  12.143  17.789  0.00  0.00    +0.000 A 
ATOM     12  C   UNL     1      10.031  13.174  18.687  0.00  0.00    +0.000 A 
ATOM     13  O   UNL     1       9.349  14.257  18.141  0.00  0.00    +0.000 OA
ATOM     14  C   UNL     1      10.021  15.538  18.395  0.00  0.00    +0.000 C 
ATOM     15  C   UNL     1      11.554  15.461  18.081  0.00  0.00    +0.000 C 
ATOM     16  C   UNL     1      12.275  16.791  18.177  0.00  0.00    +0.000 C 
ATOM     17  O   UNL     1      11.670  17.755  17.329  0.00  0.00    +0.000 OA
ATOM     18  C   UNL     1      10.279  17.920  17.589  0.00  0.00    +0.000 C 
ATOM     19  C   UNL     1       9.513  16.604  17.388  0.00  0.00    +0.000 C 
ATOM     20  C   UNL     1       9.613  16.067  19.814  0.00  0.00    +0.000 C 
ATOM     21  C   UNL     1       7.089  14.206  21.987  0.00  0.00    +0.000 A 
ATOM     22  C   UNL     1       7.386  13.335  23.079  0.00  0.00    +0.000 A 
ATOM     23  C   UNL     1       6.232  13.036  23.764  0.00  0.00    +0.000 A 
ATOM     24  N   UNL     1       5.213  13.689  23.156  0.00  0.00    +0.000 N 
ATOM     25  C   UNL     1       5.702  14.380  22.077  0.00  0.00    +0.000 A 
ATOM     26  N   UNL     1       4.906  15.109  21.287  0.00  0.00    +0.000 NA
ATOM     27  H   UNL     1       4.235  13.704  23.422  0.00  0.00    +0.000 HD
ENDROOT
TORSDOF 0
ENDMDL
MODEL 7
REMARK VINA RESULT:      -6.6      6.767     10.200
REMARK  Name = 
REMARK  1 active torsions:
REMARK  status: ('A' for Active; 'I' for Inactive)
REMARK    1  A    between atoms: C_1  and  C_2
REMARK                            x       y       z     vdW  Elec       q    Type
REMARK                         _______ _______ _______ _____ _____    ______ ____
ROOT
ATOM      1  C   UNL     1      -1.427  16.970  19.324  0.00  0.00    +0.000 C 
ATOM      2  C   UNL     1      -0.218  16.097  19.148  0.00  0.00    +0.000 A 
ATOM      3  N   UNL     1      -0.392  14.778  18.907  0.00  0.00    +0.000 NA
ATOM      4  C   UNL     1       0.666  13.906  18.787  0.00  0.00    +0.000 A 
ATOM      5  N   UNL     1       0.380  12.580  18.437  0.00  0.00    +0.000 N 
ATOM      6  C   UNL     1       1.182  11.394  18.702  0.00  0.00    +0.000 C 
ATOM      7  C   UNL     1       0.703  10.574  19.882  0.00  0.00    +0.000 A 
ATOM      8  C   UNL     1       1.175   9.252  20.045  0.00  0.00    +0.000 A 
ATOM      9  C   UNL     1       0.864   8.516  21.189  0.00  0.00    +0.000 A 
ATOM     10  C   UNL     1       0.176   9.121  22.239  0.00  0.00    +0.000 A 
ATOM     11  C   UNL     1      -0.393  10.383  22.045  0.00  0.00    +0.000 A 
ATOM     12  C   UNL     1      -0.252  11.014  20.809  0.00  0.00    +0.000 A 
ATOM     13  O   UNL     1      -1.296  11.867  20.467  0.00  0.00    +0.000 OA
ATOM     14  C   UNL     1      -1.863  11.570  19.145  0.00  0.00    +0.000 C 
ATOM     15  C   UNL     1      -2.139  10.038  18.964  0.00  0.00    +0.000 C 
ATOM     16  C   UNL     1      -2.864   9.685  17.681  0.00  0.00    +0.000 C 
ATOM     17  O   UNL     1      -4.089  10.396  17.582  0.00  0.00    +0.000 OA
ATOM     18  C   UNL     1      -3.915  11.806  17.687  0.00  0.00    +0.000 C 
ATOM     19  C   UNL     1      -3.280  12.192  19.031  0.00  0.00    +0.000 C 
ATOM     20  C   UNL     1      -1.001  12.271  18.039  0.00  0.00    +0.000 C 
ATOM     21  C   UNL     1       1.953  14.513  18.936  0.00  0.00    +0.000 A 
ATOM     22  C   UNL     1       3.334  14.151  18.908  0.00  0.00    +0.000 A 
ATOM     23  C   UNL     1       4.113  15.273  19.066  0.00  0.00    +0.000 A 
ATOM     24  N   UNL     1       3.281  16.336  19.185  0.00  0.00    +0.000 N 
ATOM     25  C   UNL     1       1.983  15.900  19.129  0.00  0.00    +0.000 A 
ATOM     26  N   UNL     1       0.951  16.744  19.232  0.00  0.00    +0.000 NA
ATOM     27  H   UNL     1       3.530  17.313  19.290  0.00  0.00    +0.000 HD
ENDROOT
TORSDOF 0
ENDMDL
MODEL 8
REMARK VINA RESULT:      -6.5      7.139      9.948
REMARK  Name = 
REMARK  1 active torsions:
REMARK  status: ('A' for Active; 'I' for Inactive)
REMARK    1  A    between atoms: C_1  and  C_2
REMARK                            x       y       z     vdW  Elec       q    Type
REMARK                         _______ _______ _______ _____ _____    ______ ____
ROOT
ATOM      1  C   UNL     1      -3.029  17.503  21.992  0.00  0.00    +0.000 C 
ATOM      2  C   UNL     1      -2.945  16.065  22.414  0.00  0.00    +0.000 A 
ATOM      3  N   UNL     1      -1.988  15.278  21.872  0.00  0.00    +0.000 NA
ATOM      4  C   UNL     1      -1.881  13.938  22.168  0.00  0.00    +0.000 A 
ATOM      5  N   UNL     1      -0.792  13.238  21.631  0.00  0.00    +0.000 N 
ATOM      6  C   UNL     1      -0.689  11.808  21.377  0.00  0.00    +0.000 C 
ATOM      7  C   UNL     1      -0.907  11.421  19.928  0.00  0.00    +0.000 A 
ATOM      8  C   UNL     1      -0.517  10.136  19.488  0.00  0.00    +0.000 A 
ATOM      9  C   UNL     1      -0.825   9.695  18.200  0.00  0.00    +0.000 A 
ATOM     10  C   UNL     1      -1.624  10.479  17.370  0.00  0.00    +0.000 A 
ATOM     11  C   UNL     1      -1.917  11.793  17.747  0.00  0.00    +0.000 A 
ATOM     12  C   UNL     1      -1.414  12.288  18.951  0.00  0.00    +0.000 A 
ATOM     13  O   UNL     1      -1.180  13.659  18.964  0.00  0.00    +0.000 OA
ATOM     14  C   UNL     1       0.184  13.997  19.390  0.00  0.00    +0.000 C 
ATOM     15  C   UNL     1       1.255  13.123  18.652  0.00  0.00    +0.000 C 
ATOM     16  C   UNL     1       2.689  13.529  18.934  0.00  0.00    +0.000 C 
ATOM     17  O   UNL     1       2.898  14.896  18.615  0.00  0.00    +0.000 OA
ATOM     18  C   UNL     1       1.991  15.763  19.291  0.00  0.00    +0.000 C 
ATOM     19  C   UNL     1       0.535  15.437  18.930  0.00  0.00    +0.000 C 
ATOM     20  C   UNL     1       0.249  14.025  20.957  0.00  0.00    +0.000 C 
ATOM     21  C   UNL     1      -2.861  13.456  23.092  0.00  0.00    +0.000 A 
ATOM     22  C   UNL     1      -3.232  12.243  23.747  0.00  0.00    +0.000 A 
ATOM     23  C   UNL     1      -4.279  12.479  24.606  0.00  0.00    +0.000 A 
ATOM     24  N   UNL     1      -4.584  13.797  24.529  0.00  0.00    +0.000 N 
ATOM     25  C   UNL     1      -3.759  14.397  23.613  0.00  0.00    +0.000 A 
ATOM     26  N   UNL     1      -3.849  15.701  23.331  0.00  0.00    +0.000 NA
ATOM     27  H   UNL     1      -5.291  14.304  25.049  0.00  0.00    +0.000 HD
ENDROOT
TORSDOF 0
ENDMDL
MODEL 9
REMARK VINA RESULT:      -6.3     10.446     13.325
REMARK  Name = 
REMARK  1 active torsions:
REMARK  status: ('A' for Active; 'I' for Inactive)
REMARK    1  A    between atoms: C_1  and  C_2
REMARK                            x       y       z     vdW  Elec       q    Type
REMARK                         _______ _______ _______ _____ _____    ______ ____
ROOT
ATOM      1  C   UNL     1      -0.099   9.967  23.082  0.00  0.00    +0.000 C 
ATOM      2  C   UNL     1      -0.654  10.560  21.819  0.00  0.00    +0.000 A 
ATOM      3  N   UNL     1      -1.471  11.633  21.903  0.00  0.00    +0.000 NA
ATOM      4  C   UNL     1      -2.061  12.199  20.796  0.00  0.00    +0.000 A 
ATOM      5  N   UNL     1      -2.808  13.369  20.983  0.00  0.00    +0.000 N 
ATOM      6  C   UNL     1      -3.882  13.885  20.146  0.00  0.00    +0.000 C 
ATOM      7  C   UNL     1      -5.271  13.606  20.683  0.00  0.00    +0.000 A 
ATOM      8  C   UNL     1      -6.373  14.321  20.160  0.00  0.00    +0.000 A 
ATOM      9  C   UNL     1      -7.679  13.996  20.531  0.00  0.00    +0.000 A 
ATOM     10  C   UNL     1      -7.917  12.884  21.337  0.00  0.00    +0.000 A 
ATOM     11  C   UNL     1      -6.836  12.244  21.952  0.00  0.00    +0.000 A 
ATOM     12  C   UNL     1      -5.544  12.723  21.736  0.00  0.00    +0.000 A 
ATOM     13  O   UNL     1      -4.661  12.510  22.790  0.00  0.00    +0.000 OA
ATOM     14  C   UNL     1      -3.988  13.741  23.224  0.00  0.00    +0.000 C 
ATOM     15  C   UNL     1      -5.000  14.923  23.404  0.00  0.00    +0.000 C 
ATOM     16  C   UNL     1      -4.391  16.178  23.996  0.00  0.00    +0.000 C 
ATOM     17  O   UNL     1      -3.772  15.898  25.243  0.00  0.00    +0.000 OA
ATOM     18  C   UNL     1      -2.796  14.863  25.150  0.00  0.00    +0.000 C 
ATOM     19  C   UNL     1      -3.420  13.550  24.655  0.00  0.00    +0.000 C 
ATOM     20  C   UNL     1      -2.744  14.006  22.306  0.00  0.00    +0.000 C 
ATOM     21  C   UNL     1      -1.735  11.558  19.559  0.00  0.00    +0.000 A 
ATOM     22  C   UNL     1      -2.012  11.683  18.165  0.00  0.00    +0.000 A 
ATOM     23  C   UNL     1      -1.299  10.742  17.461  0.00  0.00    +0.000 A 
ATOM     24  N   UNL     1      -0.571  10.027  18.353  0.00  0.00    +0.000 N 
ATOM     25  C   UNL     1      -0.832  10.487  19.618  0.00  0.00    +0.000 A 
ATOM     26  N   UNL     1      -0.252   9.951  20.696  0.00  0.00    +0.000 NA
ATOM     27  H   UNL     1       0.080   9.274  18.164  0.00  0.00    +0.000 HD
ENDROOT
TORSDOF 0
ENDMDL
