MODEL 1
REMARK VINA RESULT:      -8.9      0.000      0.000
REMARK  Name = 
REMARK  4 active torsions:
REMARK  status: ('A' for Active; 'I' for Inactive)
REMARK    1  A    between atoms: C_2  and  C_19
REMARK    2  A    between atoms: N_3  and  C_4
REMARK    3  A    between atoms: N_7  and  C_8
REMARK    4  A    between atoms: C_8  and  C_9
REMARK                            x       y       z     vdW  Elec       q    Type
REMARK                         _______ _______ _______ _____ _____    ______ ____
ROOT
ATOM      1  C   UNL     1       8.011   7.081  18.572  0.00  0.00    +0.000 A 
ATOM      2  C   UNL     1       7.836   5.864  19.264  0.00  0.00    +0.000 A 
ATOM      3  N   UNL     1       6.971   5.052  18.648  0.00  0.00    +0.000 NA
ATOM      4  N   UNL     1       6.583   5.763  17.567  0.00  0.00    +0.000 N 
ATOM      5  C   UNL     1       7.168   6.995  17.492  0.00  0.00    +0.000 A 
ENDROOT
BRANCH   1   8
ATOM      6  O   UNL     1       7.572   9.782  17.724  0.00  0.00    +0.000 OA
ATOM      7  C   UNL     1       8.546   9.452  18.393  0.00  0.00    +0.000 C 
ATOM      8  N   UNL     1       8.828   8.167  18.801  0.00  0.00    +0.000 N 
ATOM      9  H   UNL     1       9.656   7.985  19.357  0.00  0.00    +0.000 HD
BRANCH   7  10
ATOM     10  C   UNL     1       9.505  10.508  18.833  0.00  0.00    +0.000 A 
ATOM     11  C   UNL     1      10.266  11.167  17.856  0.00  0.00    +0.000 A 
ATOM     12  C   UNL     1      11.172  12.169  18.224  0.00  0.00    +0.000 A 
ATOM     13  C   UNL     1      11.302  12.509  19.566  0.00  0.00    +0.000 A 
ATOM     14  F   UNL     1      12.177  13.467  19.915  0.00  0.00    +0.000 F 
ATOM     15  C   UNL     1      10.565  11.874  20.540  0.00  0.00    +0.000 A 
ATOM     16  C   UNL     1       9.661  10.876  20.170  0.00  0.00    +0.000 A 
ATOM     17  F   UNL     1       8.948  10.280  21.145  0.00  0.00    +0.000 F 
ENDBRANCH   7  10
ENDBRANCH   1   8
BRANCH   4  18
ATOM     18  C   UNL     1       5.730   5.162  16.557  0.00  0.00    +0.000 C 
BRANCH  18  19
ATOM     19  C   UNL     1       4.385   4.822  17.088  0.00  0.00    +0.000 A 
ATOM     20  C   UNL     1       3.580   5.539  17.955  0.00  0.00    +0.000 A 
ATOM     21  N   UNL     1       2.605   4.667  18.353  0.00  0.00    +0.000 N 
ATOM     22  C   UNL     1       1.679   4.817  19.394  0.00  0.00    +0.000 A 
ATOM     23  C   UNL     1       1.354   3.690  20.068  0.00  0.00    +0.000 A 
ATOM     24  C   UNL     1       1.397   2.436  19.299  0.00  0.00    +0.000 A 
ATOM     25  C   UNL     1       2.081   2.344  18.142  0.00  0.00    +0.000 A 
ATOM     26  C   UNL     1       2.852   3.461  17.713  0.00  0.00    +0.000 A 
ATOM     27  N   UNL     1       3.856   3.562  16.870  0.00  0.00    +0.000 NA
ENDBRANCH  18  19
ENDBRANCH   4  18
TORSDOF 4
ENDMDL
MODEL 2
REMARK VINA RESULT:      -8.6      0.710      1.253
REMARK  Name = 
REMARK  4 active torsions:
REMARK  status: ('A' for Active; 'I' for Inactive)
REMARK    1  A    between atoms: C_2  and  C_19
REMARK    2  A    between atoms: N_3  and  C_4
REMARK    3  A    between atoms: N_7  and  C_8
REMARK    4  A    between atoms: C_8  and  C_9
REMARK                            x       y       z     vdW  Elec       q    Type
REMARK                         _______ _______ _______ _____ _____    ______ ____
ROOT
ATOM      1  C   UNL     1       8.077   7.112  18.694  0.00  0.00    +0.000 A 
ATOM      2  C   UNL     1       8.142   5.791  19.184  0.00  0.00    +0.000 A 
ATOM      3  N   UNL     1       7.160   5.023  18.701  0.00  0.00    +0.000 NA
ATOM      4  N   UNL     1       6.458   5.866  17.912  0.00  0.00    +0.000 N 
ATOM      5  C   UNL     1       6.962   7.135  17.894  0.00  0.00    +0.000 A 
ENDROOT
BRANCH   1   8
ATOM      6  O   UNL     1       7.615   9.783  17.765  0.00  0.00    +0.000 OA
ATOM      7  C   UNL     1       8.601   9.478  18.428  0.00  0.00    +0.000 C 
ATOM      8  N   UNL     1       8.894   8.207  18.872  0.00  0.00    +0.000 N 
ATOM      9  H   UNL     1       9.732   8.046  19.420  0.00  0.00    +0.000 HD
BRANCH   7  10
ATOM     10  C   UNL     1       9.564  10.549  18.815  0.00  0.00    +0.000 A 
ATOM     11  C   UNL     1      10.288  11.195  17.802  0.00  0.00    +0.000 A 
ATOM     12  C   UNL     1      11.197  12.212  18.120  0.00  0.00    +0.000 A 
ATOM     13  C   UNL     1      11.366  12.580  19.450  0.00  0.00    +0.000 A 
ATOM     14  F   UNL     1      12.244  13.552  19.752  0.00  0.00    +0.000 F 
ATOM     15  C   UNL     1      10.667  11.959  20.460  0.00  0.00    +0.000 A 
ATOM     16  C   UNL     1       9.761  10.946  20.139  0.00  0.00    +0.000 A 
ATOM     17  F   UNL     1       9.084  10.363  21.148  0.00  0.00    +0.000 F 
ENDBRANCH   7  10
ENDBRANCH   1   8
BRANCH   4  18
ATOM     18  C   UNL     1       5.367   5.370  17.091  0.00  0.00    +0.000 C 
BRANCH  18  19
ATOM     19  C   UNL     1       4.440   4.497  17.856  0.00  0.00    +0.000 A 
ATOM     20  C   UNL     1       3.833   3.316  17.470  0.00  0.00    +0.000 A 
ATOM     21  N   UNL     1       2.864   3.081  18.406  0.00  0.00    +0.000 N 
ATOM     22  C   UNL     1       1.820   2.147  18.359  0.00  0.00    +0.000 A 
ATOM     23  C   UNL     1       0.652   2.531  18.922  0.00  0.00    +0.000 A 
ATOM     24  C   UNL     1       0.751   3.465  20.055  0.00  0.00    +0.000 A 
ATOM     25  C   UNL     1       1.864   4.193  20.271  0.00  0.00    +0.000 A 
ATOM     26  C   UNL     1       2.922   4.122  19.322  0.00  0.00    +0.000 A 
ATOM     27  N   UNL     1       3.929   4.929  19.068  0.00  0.00    +0.000 NA
ENDBRANCH  18  19
ENDBRANCH   4  18
TORSDOF 4
ENDMDL
MODEL 3
REMARK VINA RESULT:      -8.6      5.400      7.579
REMARK  Name = 
REMARK  4 active torsions:
REMARK  status: ('A' for Active; 'I' for Inactive)
REMARK    1  A    between atoms: C_2  and  C_19
REMARK    2  A    between atoms: N_3  and  C_4
REMARK    3  A    between atoms: N_7  and  C_8
REMARK    4  A    between atoms: C_8  and  C_9
REMARK                            x       y       z     vdW  Elec       q    Type
REMARK                         _______ _______ _______ _____ _____    ______ ____
ROOT
ATOM      1  C   UNL     1       3.998   5.594  19.472  0.00  0.00    +0.000 A 
ATOM      2  C   UNL     1       4.118   4.222  19.779  0.00  0.00    +0.000 A 
ATOM      3  N   UNL     1       5.115   3.639  19.106  0.00  0.00    +0.000 NA
ATOM      4  N   UNL     1       5.620   4.642  18.355  0.00  0.00    +0.000 N 
ATOM      5  C   UNL     1       4.967   5.829  18.529  0.00  0.00    +0.000 A 
ENDROOT
BRANCH   1   8
ATOM      6  O   UNL     1       2.333   7.355  17.944  0.00  0.00    +0.000 OA
ATOM      7  C   UNL     1       2.364   7.378  19.170  0.00  0.00    +0.000 C 
ATOM      8  N   UNL     1       3.168   6.581  19.956  0.00  0.00    +0.000 N 
ATOM      9  H   UNL     1       3.125   6.664  20.966  0.00  0.00    +0.000 HD
BRANCH   7  10
ATOM     10  C   UNL     1       1.457   8.316  19.893  0.00  0.00    +0.000 A 
ATOM     11  C   UNL     1       1.074   7.997  21.204  0.00  0.00    +0.000 A 
ATOM     12  C   UNL     1       0.230   8.853  21.923  0.00  0.00    +0.000 A 
ATOM     13  C   UNL     1      -0.215  10.026  21.325  0.00  0.00    +0.000 A 
ATOM     14  F   UNL     1      -1.030  10.842  22.016  0.00  0.00    +0.000 F 
ATOM     15  C   UNL     1       0.148  10.358  20.039  0.00  0.00    +0.000 A 
ATOM     16  C   UNL     1       0.990   9.503  19.326  0.00  0.00    +0.000 A 
ATOM     17  F   UNL     1       1.336   9.859  18.074  0.00  0.00    +0.000 F 
ENDBRANCH   7  10
ENDBRANCH   1   8
BRANCH   4  18
ATOM     18  C   UNL     1       6.822   4.438  17.566  0.00  0.00    +0.000 C 
BRANCH  18  19
ATOM     19  C   UNL     1       6.562   4.550  16.108  0.00  0.00    +0.000 A 
ATOM     20  C   UNL     1       5.653   3.861  15.326  0.00  0.00    +0.000 A 
ATOM     21  N   UNL     1       6.018   4.112  14.033  0.00  0.00    +0.000 N 
ATOM     22  C   UNL     1       5.572   3.478  12.866  0.00  0.00    +0.000 A 
ATOM     23  C   UNL     1       6.489   3.327  11.883  0.00  0.00    +0.000 A 
ATOM     24  C   UNL     1       7.534   4.361  11.803  0.00  0.00    +0.000 A 
ATOM     25  C   UNL     1       7.805   5.168  12.847  0.00  0.00    +0.000 A 
ATOM     26  C   UNL     1       7.128   4.944  14.078  0.00  0.00    +0.000 A 
ATOM     27  N   UNL     1       7.409   5.302  15.313  0.00  0.00    +0.000 NA
ENDBRANCH  18  19
ENDBRANCH   4  18
TORSDOF 4
ENDMDL
MODEL 4
REMARK VINA RESULT:      -8.6      1.566      1.790
REMARK  Name = 
REMARK  4 active torsions:
REMARK  status: ('A' for Active; 'I' for Inactive)
REMARK    1  A    between atoms: C_2  and  C_19
REMARK    2  A    between atoms: N_3  and  C_4
REMARK    3  A    between atoms: N_7  and  C_8
REMARK    4  A    between atoms: C_8  and  C_9
REMARK                            x       y       z     vdW  Elec       q    Type
REMARK                         _______ _______ _______ _____ _____    ______ ____
ROOT
ATOM      1  C   UNL     1       7.807   7.900  17.851  0.00  0.00    +0.000 A 
ATOM      2  C   UNL     1       8.124   6.847  18.734  0.00  0.00    +0.000 A 
ATOM      3  N   UNL     1       7.346   5.775  18.543  0.00  0.00    +0.000 NA
ATOM      4  N   UNL     1       6.522   6.156  17.544  0.00  0.00    +0.000 N 
ATOM      5  C   UNL     1       6.750   7.432  17.111  0.00  0.00    +0.000 A 
ENDROOT
BRANCH   1   8
ATOM      6  O   UNL     1       8.943   9.619  19.841  0.00  0.00    +0.000 OA
ATOM      7  C   UNL     1       8.929   9.911  18.650  0.00  0.00    +0.000 C 
ATOM      8  N   UNL     1       8.368   9.142  17.653  0.00  0.00    +0.000 N 
ATOM      9  H   UNL     1       8.406   9.460  16.691  0.00  0.00    +0.000 HD
BRANCH   7  10
ATOM     10  C   UNL     1       9.582  11.180  18.214  0.00  0.00    +0.000 A 
ATOM     11  C   UNL     1      10.969  11.309  18.380  0.00  0.00    +0.000 A 
ATOM     12  C   UNL     1      11.624  12.479  17.978  0.00  0.00    +0.000 A 
ATOM     13  C   UNL     1      10.885  13.508  17.405  0.00  0.00    +0.000 A 
ATOM     14  F   UNL     1      11.516  14.633  17.026  0.00  0.00    +0.000 F 
ATOM     15  C   UNL     1       9.523  13.403  17.234  0.00  0.00    +0.000 A 
ATOM     16  C   UNL     1       8.873  12.234  17.635  0.00  0.00    +0.000 A 
ATOM     17  F   UNL     1       7.542  12.156  17.447  0.00  0.00    +0.000 F 
ENDBRANCH   7  10
ENDBRANCH   1   8
BRANCH   4  18
ATOM     18  C   UNL     1       5.598   5.207  16.949  0.00  0.00    +0.000 C 
BRANCH  18  19
ATOM     19  C   UNL     1       4.303   5.152  17.675  0.00  0.00    +0.000 A 
ATOM     20  C   UNL     1       3.955   5.721  18.887  0.00  0.00    +0.000 A 
ATOM     21  N   UNL     1       2.774   5.130  19.242  0.00  0.00    +0.000 N 
ATOM     22  C   UNL     1       2.117   5.180  20.478  0.00  0.00    +0.000 A 
ATOM     23  C   UNL     1       1.463   4.056  20.850  0.00  0.00    +0.000 A 
ATOM     24  C   UNL     1       0.918   3.228  19.761  0.00  0.00    +0.000 A 
ATOM     25  C   UNL     1       1.363   3.350  18.495  0.00  0.00    +0.000 A 
ATOM     26  C   UNL     1       2.450   4.232  18.235  0.00  0.00    +0.000 A 
ATOM     27  N   UNL     1       3.302   4.304  17.235  0.00  0.00    +0.000 NA
ENDBRANCH  18  19
ENDBRANCH   4  18
TORSDOF 4
ENDMDL
MODEL 5
REMARK VINA RESULT:      -8.5      1.620      2.185
REMARK  Name = 
REMARK  4 active torsions:
REMARK  status: ('A' for Active; 'I' for Inactive)
REMARK    1  A    between atoms: C_2  and  C_19
REMARK    2  A    between atoms: N_3  and  C_4
REMARK    3  A    between atoms: N_7  and  C_8
REMARK    4  A    between atoms: C_8  and  C_9
REMARK                            x       y       z     vdW  Elec       q    Type
REMARK                         _______ _______ _______ _____ _____    ______ ____
ROOT
ATOM      1  C   UNL     1       7.836   8.056  17.934  0.00  0.00    +0.000 A 
ATOM      2  C   UNL     1       8.286   6.981  18.728  0.00  0.00    +0.000 A 
ATOM      3  N   UNL     1       7.535   5.886  18.568  0.00  0.00    +0.000 NA
ATOM      4  N   UNL     1       6.595   6.273  17.679  0.00  0.00    +0.000 N 
ATOM      5  C   UNL     1       6.726   7.575  17.286  0.00  0.00    +0.000 A 
ENDROOT
BRANCH   1   8
ATOM      6  O   UNL     1       9.134   9.725  19.867  0.00  0.00    +0.000 OA
ATOM      7  C   UNL     1       8.970  10.073  18.703  0.00  0.00    +0.000 C 
ATOM      8  N   UNL     1       8.325   9.330  17.738  0.00  0.00    +0.000 N 
ATOM      9  H   UNL     1       8.238   9.694  16.796  0.00  0.00    +0.000 HD
BRANCH   7  10
ATOM     10  C   UNL     1       9.520  11.388  18.262  0.00  0.00    +0.000 A 
ATOM     11  C   UNL     1       8.632  12.344  17.746  0.00  0.00    +0.000 A 
ATOM     12  C   UNL     1       9.104  13.594  17.328  0.00  0.00    +0.000 A 
ATOM     13  C   UNL     1      10.460  13.880  17.439  0.00  0.00    +0.000 A 
ATOM     14  F   UNL     1      10.910  15.079  17.031  0.00  0.00    +0.000 F 
ATOM     15  C   UNL     1      11.348  12.957  17.942  0.00  0.00    +0.000 A 
ATOM     16  C   UNL     1      10.874  11.711  18.359  0.00  0.00    +0.000 A 
ATOM     17  F   UNL     1      11.766  10.831  18.855  0.00  0.00    +0.000 F 
ENDBRANCH   7  10
ENDBRANCH   1   8
BRANCH   4  18
ATOM     18  C   UNL     1       5.651   5.311  17.138  0.00  0.00    +0.000 C 
BRANCH  18  19
ATOM     19  C   UNL     1       4.768   4.739  18.187  0.00  0.00    +0.000 A 
ATOM     20  C   UNL     1       4.307   3.443  18.331  0.00  0.00    +0.000 A 
ATOM     21  N   UNL     1       3.309   3.512  19.263  0.00  0.00    +0.000 N 
ATOM     22  C   UNL     1       2.369   2.530  19.602  0.00  0.00    +0.000 A 
ATOM     23  C   UNL     1       1.135   2.976  19.930  0.00  0.00    +0.000 A 
ATOM     24  C   UNL     1       1.069   4.304  20.561  0.00  0.00    +0.000 A 
ATOM     25  C   UNL     1       2.088   5.180  20.463  0.00  0.00    +0.000 A 
ATOM     26  C   UNL     1       3.205   4.840  19.651  0.00  0.00    +0.000 A 
ATOM     27  N   UNL     1       4.141   5.577  19.093  0.00  0.00    +0.000 NA
ENDBRANCH  18  19
ENDBRANCH   4  18
TORSDOF 4
ENDMDL
MODEL 6
REMARK VINA RESULT:      -8.5      1.607      1.876
REMARK  Name = 
REMARK  4 active torsions:
REMARK  status: ('A' for Active; 'I' for Inactive)
REMARK    1  A    between atoms: C_2  and  C_19
REMARK    2  A    between atoms: N_3  and  C_4
REMARK    3  A    between atoms: N_7  and  C_8
REMARK    4  A    between atoms: C_8  and  C_9
REMARK                            x       y       z     vdW  Elec       q    Type
REMARK                         _______ _______ _______ _____ _____    ______ ____
ROOT
ATOM      1  C   UNL     1       7.732   7.995  17.901  0.00  0.00    +0.000 A 
ATOM      2  C   UNL     1       8.219   6.918  18.671  0.00  0.00    +0.000 A 
ATOM      3  N   UNL     1       7.488   5.810  18.510  0.00  0.00    +0.000 NA
ATOM      4  N   UNL     1       6.523   6.189  17.646  0.00  0.00    +0.000 N 
ATOM      5  C   UNL     1       6.619   7.499  17.268  0.00  0.00    +0.000 A 
ENDROOT
BRANCH   1   8
ATOM      6  O   UNL     1       9.165   9.610  19.783  0.00  0.00    +0.000 OA
ATOM      7  C   UNL     1       8.903   9.997  18.649  0.00  0.00    +0.000 C 
ATOM      8  N   UNL     1       8.189   9.280  17.714  0.00  0.00    +0.000 N 
ATOM      9  H   UNL     1       8.023   9.677  16.795  0.00  0.00    +0.000 HD
BRANCH   7  10
ATOM     10  C   UNL     1       9.402  11.334  18.215  0.00  0.00    +0.000 A 
ATOM     11  C   UNL     1       8.470  12.280  17.763  0.00  0.00    +0.000 A 
ATOM     12  C   UNL     1       8.894  13.550  17.353  0.00  0.00    +0.000 A 
ATOM     13  C   UNL     1      10.247  13.866  17.408  0.00  0.00    +0.000 A 
ATOM     14  F   UNL     1      10.650  15.084  17.007  0.00  0.00    +0.000 F 
ATOM     15  C   UNL     1      11.178  12.952  17.847  0.00  0.00    +0.000 A 
ATOM     16  C   UNL     1      10.752  11.686  18.256  0.00  0.00    +0.000 A 
ATOM     17  F   UNL     1      11.685  10.817  18.689  0.00  0.00    +0.000 F 
ENDBRANCH   7  10
ENDBRANCH   1   8
BRANCH   4  18
ATOM     18  C   UNL     1       5.589   5.215  17.110  0.00  0.00    +0.000 C 
BRANCH  18  19
ATOM     19  C   UNL     1       4.339   5.136  17.909  0.00  0.00    +0.000 A 
ATOM     20  C   UNL     1       4.127   5.464  19.236  0.00  0.00    +0.000 A 
ATOM     21  N   UNL     1       2.907   4.933  19.553  0.00  0.00    +0.000 N 
ATOM     22  C   UNL     1       2.330   4.783  20.820  0.00  0.00    +0.000 A 
ATOM     23  C   UNL     1       1.572   3.678  21.002  0.00  0.00    +0.000 A 
ATOM     24  C   UNL     1       0.875   3.163  19.811  0.00  0.00    +0.000 A 
ATOM     25  C   UNL     1       1.261   3.508  18.567  0.00  0.00    +0.000 A 
ATOM     26  C   UNL     1       2.426   4.310  18.411  0.00  0.00    +0.000 A 
ATOM     27  N   UNL     1       3.223   4.508  17.384  0.00  0.00    +0.000 NA
ENDBRANCH  18  19
ENDBRANCH   4  18
TORSDOF 4
ENDMDL
MODEL 7
REMARK VINA RESULT:      -8.4      1.810      2.235
REMARK  Name = 
REMARK  4 active torsions:
REMARK  status: ('A' for Active; 'I' for Inactive)
REMARK    1  A    between atoms: C_2  and  C_19
REMARK    2  A    between atoms: N_3  and  C_4
REMARK    3  A    between atoms: N_7  and  C_8
REMARK    4  A    between atoms: C_8  and  C_9
REMARK                            x       y       z     vdW  Elec       q    Type
REMARK                         _______ _______ _______ _____ _____    ______ ____
ROOT
ATOM      1  C   UNL     1       8.040   8.355  17.964  0.00  0.00    +0.000 A 
ATOM      2  C   UNL     1       8.419   7.379  18.910  0.00  0.00    +0.000 A 
ATOM      3  N   UNL     1       7.823   6.202  18.689  0.00  0.00    +0.000 NA
ATOM      4  N   UNL     1       7.051   6.437  17.606  0.00  0.00    +0.000 N 
ATOM      5  C   UNL     1       7.136   7.721  17.149  0.00  0.00    +0.000 A 
ENDROOT
BRANCH   1   8
ATOM      6  O   UNL     1       9.397  10.042  19.840  0.00  0.00    +0.000 OA
ATOM      7  C   UNL     1       9.115  10.413  18.705  0.00  0.00    +0.000 C 
ATOM      8  N   UNL     1       8.435   9.661  17.773  0.00  0.00    +0.000 N 
ATOM      9  H   UNL     1       8.248  10.046  16.853  0.00  0.00    +0.000 HD
BRANCH   7  10
ATOM     10  C   UNL     1       9.548  11.772  18.266  0.00  0.00    +0.000 A 
ATOM     11  C   UNL     1       8.609  12.814  18.295  0.00  0.00    +0.000 A 
ATOM     12  C   UNL     1       8.975  14.106  17.899  0.00  0.00    +0.000 A 
ATOM     13  C   UNL     1      10.281  14.346  17.486  0.00  0.00    +0.000 A 
ATOM     14  F   UNL     1      10.626  15.587  17.101  0.00  0.00    +0.000 F 
ATOM     15  C   UNL     1      11.218  13.338  17.450  0.00  0.00    +0.000 A 
ATOM     16  C   UNL     1      10.850  12.050  17.846  0.00  0.00    +0.000 A 
ATOM     17  F   UNL     1      11.790  11.087  17.809  0.00  0.00    +0.000 F 
ENDBRANCH   7  10
ENDBRANCH   1   8
BRANCH   4  18
ATOM     18  C   UNL     1       6.332   5.350  16.965  0.00  0.00    +0.000 C 
BRANCH  18  19
ATOM     19  C   UNL     1       5.153   4.913  17.754  0.00  0.00    +0.000 A 
ATOM     20  C   UNL     1       5.083   4.002  18.792  0.00  0.00    +0.000 A 
ATOM     21  N   UNL     1       3.751   3.743  18.963  0.00  0.00    +0.000 N 
ATOM     22  C   UNL     1       3.155   2.729  19.723  0.00  0.00    +0.000 A 
ATOM     23  C   UNL     1       2.015   2.201  19.220  0.00  0.00    +0.000 A 
ATOM     24  C   UNL     1       1.177   3.106  18.417  0.00  0.00    +0.000 A 
ATOM     25  C   UNL     1       1.675   4.239  17.885  0.00  0.00    +0.000 A 
ATOM     26  C   UNL     1       3.066   4.507  18.029  0.00  0.00    +0.000 A 
ATOM     27  N   UNL     1       3.881   5.294  17.361  0.00  0.00    +0.000 NA
ENDBRANCH  18  19
ENDBRANCH   4  18
TORSDOF 4
ENDMDL
MODEL 8
REMARK VINA RESULT:      -8.4      1.136      1.368
REMARK  Name = 
REMARK  4 active torsions:
REMARK  status: ('A' for Active; 'I' for Inactive)
REMARK    1  A    between atoms: C_2  and  C_19
REMARK    2  A    between atoms: N_3  and  C_4
REMARK    3  A    between atoms: N_7  and  C_8
REMARK    4  A    between atoms: C_8  and  C_9
REMARK                            x       y       z     vdW  Elec       q    Type
REMARK                         _______ _______ _______ _____ _____    ______ ____
ROOT
ATOM      1  C   UNL     1       8.117   7.114  18.619  0.00  0.00    +0.000 A 
ATOM      2  C   UNL     1       8.034   5.922  19.368  0.00  0.00    +0.000 A 
ATOM      3  N   UNL     1       7.356   4.966  18.724  0.00  0.00    +0.000 NA
ATOM      4  N   UNL     1       6.994   5.560  17.566  0.00  0.00    +0.000 N 
ATOM      5  C   UNL     1       7.414   6.857  17.469  0.00  0.00    +0.000 A 
ENDROOT
BRANCH   1   8
ATOM      6  O   UNL     1       7.480   9.662  17.476  0.00  0.00    +0.000 OA
ATOM      7  C   UNL     1       8.378   9.517  18.299  0.00  0.00    +0.000 C 
ATOM      8  N   UNL     1       8.752   8.314  18.857  0.00  0.00    +0.000 N 
ATOM      9  H   UNL     1       9.505   8.286  19.535  0.00  0.00    +0.000 HD
BRANCH   7  10
ATOM     10  C   UNL     1       9.125  10.720  18.766  0.00  0.00    +0.000 A 
ATOM     11  C   UNL     1       9.988  10.586  19.864  0.00  0.00    +0.000 A 
ATOM     12  C   UNL     1      10.715  11.688  20.331  0.00  0.00    +0.000 A 
ATOM     13  C   UNL     1      10.578  12.914  19.689  0.00  0.00    +0.000 A 
ATOM     14  F   UNL     1      11.272  13.970  20.145  0.00  0.00    +0.000 F 
ATOM     15  C   UNL     1       9.735  13.068  18.612  0.00  0.00    +0.000 A 
ATOM     16  C   UNL     1       9.012  11.967  18.148  0.00  0.00    +0.000 A 
ATOM     17  F   UNL     1       8.203  12.146  17.086  0.00  0.00    +0.000 F 
ENDBRANCH   7  10
ENDBRANCH   1   8
BRANCH   4  18
ATOM     18  C   UNL     1       6.341   4.796  16.518  0.00  0.00    +0.000 C 
BRANCH  18  19
ATOM     19  C   UNL     1       4.915   4.520  16.829  0.00  0.00    +0.000 A 
ATOM     20  C   UNL     1       3.963   5.357  17.380  0.00  0.00    +0.000 A 
ATOM     21  N   UNL     1       2.920   4.544  17.730  0.00  0.00    +0.000 N 
ATOM     22  C   UNL     1       1.810   4.851  18.527  0.00  0.00    +0.000 A 
ATOM     23  C   UNL     1       1.348   3.853  19.314  0.00  0.00    +0.000 A 
ATOM     24  C   UNL     1       1.530   2.484  18.805  0.00  0.00    +0.000 A 
ATOM     25  C   UNL     1       2.426   2.207  17.837  0.00  0.00    +0.000 A 
ATOM     26  C   UNL     1       3.277   3.251  17.376  0.00  0.00    +0.000 A 
ATOM     27  N   UNL     1       4.428   3.228  16.739  0.00  0.00    +0.000 NA
ENDBRANCH  18  19
ENDBRANCH   4  18
TORSDOF 4
ENDMDL
MODEL 9
REMARK VINA RESULT:      -8.3      1.758      2.162
REMARK  Name = 
REMARK  4 active torsions:
REMARK  status: ('A' for Active; 'I' for Inactive)
REMARK    1  A    between atoms: C_2  and  C_19
REMARK    2  A    between atoms: N_3  and  C_4
REMARK    3  A    between atoms: N_7  and  C_8
REMARK    4  A    between atoms: C_8  and  C_9
REMARK                            x       y       z     vdW  Elec       q    Type
REMARK                         _______ _______ _______ _____ _____    ______ ____
ROOT
ATOM      1  C   UNL     1       8.012   8.333  18.057  0.00  0.00    +0.000 A 
ATOM      2  C   UNL     1       8.417   7.247  18.862  0.00  0.00    +0.000 A 
ATOM      3  N   UNL     1       7.619   6.184  18.716  0.00  0.00    +0.000 NA
ATOM      4  N   UNL     1       6.695   6.602  17.825  0.00  0.00    +0.000 N 
ATOM      5  C   UNL     1       6.881   7.893  17.417  0.00  0.00    +0.000 A 
ENDROOT
BRANCH   1   8
ATOM      6  O   UNL     1       9.115  10.093  20.030  0.00  0.00    +0.000 OA
ATOM      7  C   UNL     1       9.100  10.371  18.836  0.00  0.00    +0.000 C 
ATOM      8  N   UNL     1       8.555   9.582  17.847  0.00  0.00    +0.000 N 
ATOM      9  H   UNL     1       8.591   9.888  16.881  0.00  0.00    +0.000 HD
BRANCH   7  10
ATOM     10  C   UNL     1       9.734  11.645  18.388  0.00  0.00    +0.000 A 
ATOM     11  C   UNL     1      10.842  11.574  17.529  0.00  0.00    +0.000 A 
ATOM     12  C   UNL     1      11.462  12.745  17.078  0.00  0.00    +0.000 A 
ATOM     13  C   UNL     1      10.963  13.978  17.482  0.00  0.00    +0.000 A 
ATOM     14  F   UNL     1      11.566  15.099  17.052  0.00  0.00    +0.000 F 
ATOM     15  C   UNL     1       9.878  14.070  18.325  0.00  0.00    +0.000 A 
ATOM     16  C   UNL     1       9.261  12.900  18.773  0.00  0.00    +0.000 A 
ATOM     17  F   UNL     1       8.196  13.022  19.588  0.00  0.00    +0.000 F 
ENDBRANCH   7  10
ENDBRANCH   1   8
BRANCH   4  18
ATOM     18  C   UNL     1       5.709   5.676  17.297  0.00  0.00    +0.000 C 
BRANCH  18  19
ATOM     19  C   UNL     1       4.877   5.069  18.368  0.00  0.00    +0.000 A 
ATOM     20  C   UNL     1       4.699   3.735  18.687  0.00  0.00    +0.000 A 
ATOM     21  N   UNL     1       3.627   3.702  19.535  0.00  0.00    +0.000 N 
ATOM     22  C   UNL     1       2.897   2.587  19.967  0.00  0.00    +0.000 A 
ATOM     23  C   UNL     1       1.570   2.778  20.145  0.00  0.00    +0.000 A 
ATOM     24  C   UNL     1       1.155   4.130  20.553  0.00  0.00    +0.000 A 
ATOM     25  C   UNL     1       1.962   5.195  20.380  0.00  0.00    +0.000 A 
ATOM     26  C   UNL     1       3.199   5.011  19.700  0.00  0.00    +0.000 A 
ATOM     27  N   UNL     1       4.000   5.858  19.090  0.00  0.00    +0.000 NA
ENDBRANCH  18  19
ENDBRANCH   4  18
TORSDOF 4
ENDMDL
