MODEL 1
REMARK VINA RESULT:      -8.2      0.000      0.000
REMARK  Name = 
REMARK  6 active torsions:
REMARK  status: ('A' for Active; 'I' for Inactive)
REMARK    1  A    between atoms: C_2  and  C_16
REMARK    2  A    between atoms: N_3  and  C_4
REMARK    3  A    between atoms: C_4  and  C_5
REMARK    4  A    between atoms: C_8  and  N_9
REMARK    5  A    between atoms: C_19  and  O_20
REMARK    6  A    between atoms: O_20  and  C_21
REMARK                            x       y       z     vdW  Elec       q    Type
REMARK                         _______ _______ _______ _____ _____    ______ ____
ROOT
ATOM      1  O   UNL     1       0.930  12.196  18.692  0.00  0.00    +0.000 OA
ATOM      2  C   UNL     1       0.325  11.135  18.627  0.00  0.00    +0.000 C 
ATOM      3  N   UNL     1      -1.024  11.035  18.355  0.00  0.00    +0.000 N 
ATOM      4  H   UNL     1      -1.497  10.163  18.541  0.00  0.00    +0.000 HD
ENDROOT
BRANCH   2   5
ATOM      5  C   UNL     1       1.032   9.853  18.882  0.00  0.00    +0.000 A 
ATOM      6  C   UNL     1       0.985   9.306  20.171  0.00  0.00    +0.000 A 
ATOM      7  C   UNL     1       1.635   8.101  20.450  0.00  0.00    +0.000 A 
ATOM      8  C   UNL     1       2.302   7.415  19.431  0.00  0.00    +0.000 A 
ATOM      9  C   UNL     1       2.398   7.988  18.161  0.00  0.00    +0.000 A 
ATOM     10  C   UNL     1       1.767   9.205  17.883  0.00  0.00    +0.000 A 
BRANCH   8  11
ATOM     11  O   UNL     1       2.965   6.221  19.598  0.00  0.00    +0.000 OA
BRANCH  11  12
ATOM     12  C   UNL     1       2.277   5.028  19.587  0.00  0.00    +0.000 A 
ATOM     13  C   UNL     1       1.677   4.439  20.702  0.00  0.00    +0.000 A 
ATOM     14  C   UNL     1       1.013   3.217  20.577  0.00  0.00    +0.000 A 
ATOM     15  C   UNL     1       0.900   2.608  19.328  0.00  0.00    +0.000 A 
ATOM     16  C   UNL     1       1.444   3.223  18.202  0.00  0.00    +0.000 A 
ATOM     17  C   UNL     1       2.131   4.430  18.332  0.00  0.00    +0.000 A 
ENDBRANCH  11  12
ENDBRANCH   8  11
ENDBRANCH   2   5
BRANCH   3  18
ATOM     18  C   UNL     1      -1.848  12.214  18.187  0.00  0.00    +0.000 C 
BRANCH  18  19
ATOM     19  C   UNL     1      -2.920  12.285  19.247  0.00  0.00    +0.000 A 
ATOM     20  C   UNL     1      -4.264  12.093  18.897  0.00  0.00    +0.000 A 
ATOM     21  C   UNL     1      -5.275  12.179  19.860  0.00  0.00    +0.000 A 
ATOM     22  C   UNL     1      -4.952  12.476  21.188  0.00  0.00    +0.000 A 
ATOM     23  C   UNL     1      -3.610  12.677  21.543  0.00  0.00    +0.000 A 
ATOM     24  C   UNL     1      -2.602  12.581  20.578  0.00  0.00    +0.000 A 
BRANCH  22  25
ATOM     25  N   UNL     1      -5.963  12.604  22.174  0.00  0.00    +0.000 N 
ATOM     26  C   UNL     1      -7.319  12.766  22.006  0.00  0.00    +0.000 A 
ATOM     27  N   UNL     1      -7.916  12.905  23.168  0.00  0.00    +0.000 NA
ATOM     28  C   UNL     1      -6.881  12.807  24.046  0.00  0.00    +0.000 A 
ATOM     29  N   UNL     1      -5.681  12.604  23.503  0.00  0.00    +0.000 NA
ENDBRANCH  22  25
ENDBRANCH  18  19
ENDBRANCH   3  18
TORSDOF 6
ENDMDL
MODEL 2
REMARK VINA RESULT:      -8.1      3.758      9.937
REMARK  Name = 
REMARK  6 active torsions:
REMARK  status: ('A' for Active; 'I' for Inactive)
REMARK    1  A    between atoms: C_2  and  C_16
REMARK    2  A    between atoms: N_3  and  C_4
REMARK    3  A    between atoms: C_4  and  C_5
REMARK    4  A    between atoms: C_8  and  N_9
REMARK    5  A    between atoms: C_19  and  O_20
REMARK    6  A    between atoms: O_20  and  C_21
REMARK                            x       y       z     vdW  Elec       q    Type
REMARK                         _______ _______ _______ _____ _____    ______ ____
ROOT
ATOM      1  O   UNL     1       0.799  10.565  19.914  0.00  0.00    +0.000 OA
ATOM      2  C   UNL     1       0.311  10.267  18.832  0.00  0.00    +0.000 C 
ATOM      3  N   UNL     1       1.018   9.672  17.807  0.00  0.00    +0.000 N 
ATOM      4  H   UNL     1       0.622   9.666  16.879  0.00  0.00    +0.000 HD
ENDROOT
BRANCH   2   5
ATOM      5  C   UNL     1      -1.113  10.576  18.543  0.00  0.00    +0.000 A 
ATOM      6  C   UNL     1      -1.774   9.833  17.556  0.00  0.00    +0.000 A 
ATOM      7  C   UNL     1      -3.114  10.092  17.257  0.00  0.00    +0.000 A 
ATOM      8  C   UNL     1      -3.814  11.068  17.972  0.00  0.00    +0.000 A 
ATOM      9  C   UNL     1      -3.140  11.848  18.916  0.00  0.00    +0.000 A 
ATOM     10  C   UNL     1      -1.793  11.607  19.202  0.00  0.00    +0.000 A 
BRANCH   8  11
ATOM     11  O   UNL     1      -5.133  11.394  17.763  0.00  0.00    +0.000 OA
BRANCH  11  12
ATOM     12  C   UNL     1      -6.050  11.304  18.787  0.00  0.00    +0.000 A 
ATOM     13  C   UNL     1      -6.642  12.393  19.431  0.00  0.00    +0.000 A 
ATOM     14  C   UNL     1      -7.553  12.183  20.468  0.00  0.00    +0.000 A 
ATOM     15  C   UNL     1      -7.916  10.886  20.828  0.00  0.00    +0.000 A 
ATOM     16  C   UNL     1      -7.375   9.798  20.146  0.00  0.00    +0.000 A 
ATOM     17  C   UNL     1      -6.444  10.007  19.128  0.00  0.00    +0.000 A 
ENDBRANCH  11  12
ENDBRANCH   8  11
ENDBRANCH   2   5
BRANCH   3  18
ATOM     18  C   UNL     1       2.438   9.412  17.924  0.00  0.00    +0.000 C 
BRANCH  18  19
ATOM     19  C   UNL     1       2.708   7.940  18.121  0.00  0.00    +0.000 A 
ATOM     20  C   UNL     1       2.208   7.282  19.253  0.00  0.00    +0.000 A 
ATOM     21  C   UNL     1       2.467   5.924  19.467  0.00  0.00    +0.000 A 
ATOM     22  C   UNL     1       3.247   5.210  18.552  0.00  0.00    +0.000 A 
ATOM     23  C   UNL     1       3.758   5.864  17.422  0.00  0.00    +0.000 A 
ATOM     24  C   UNL     1       3.488   7.220  17.208  0.00  0.00    +0.000 A 
BRANCH  22  25
ATOM     25  N   UNL     1       3.554   3.842  18.767  0.00  0.00    +0.000 N 
ATOM     26  C   UNL     1       3.300   2.761  17.955  0.00  0.00    +0.000 A 
ATOM     27  N   UNL     1       3.687   1.646  18.534  0.00  0.00    +0.000 NA
ATOM     28  C   UNL     1       4.197   2.088  19.716  0.00  0.00    +0.000 A 
ATOM     29  N   UNL     1       4.162   3.407  19.901  0.00  0.00    +0.000 NA
ENDBRANCH  22  25
ENDBRANCH  18  19
ENDBRANCH   3  18
TORSDOF 6
ENDMDL
MODEL 3
REMARK VINA RESULT:      -8.1      4.385      6.603
REMARK  Name = 
REMARK  6 active torsions:
REMARK  status: ('A' for Active; 'I' for Inactive)
REMARK    1  A    between atoms: C_2  and  C_16
REMARK    2  A    between atoms: N_3  and  C_4
REMARK    3  A    between atoms: C_4  and  C_5
REMARK    4  A    between atoms: C_8  and  N_9
REMARK    5  A    between atoms: C_19  and  O_20
REMARK    6  A    between atoms: O_20  and  C_21
REMARK                            x       y       z     vdW  Elec       q    Type
REMARK                         _______ _______ _______ _____ _____    ______ ____
ROOT
ATOM      1  O   UNL     1       3.109   4.610  20.258  0.00  0.00    +0.000 OA
ATOM      2  C   UNL     1       3.374   5.638  19.649  0.00  0.00    +0.000 C 
ATOM      3  N   UNL     1       2.729   6.840  19.853  0.00  0.00    +0.000 N 
ATOM      4  H   UNL     1       2.835   7.575  19.169  0.00  0.00    +0.000 HD
ENDROOT
BRANCH   2   5
ATOM      5  C   UNL     1       4.420   5.634  18.593  0.00  0.00    +0.000 A 
ATOM      6  C   UNL     1       5.568   4.856  18.790  0.00  0.00    +0.000 A 
ATOM      7  C   UNL     1       6.573   4.824  17.820  0.00  0.00    +0.000 A 
ATOM      8  C   UNL     1       6.417   5.538  16.629  0.00  0.00    +0.000 A 
ATOM      9  C   UNL     1       5.300   6.360  16.458  0.00  0.00    +0.000 A 
ATOM     10  C   UNL     1       4.303   6.412  17.436  0.00  0.00    +0.000 A 
BRANCH   8  11
ATOM     11  O   UNL     1       7.340   5.568  15.609  0.00  0.00    +0.000 OA
BRANCH  11  12
ATOM     12  C   UNL     1       7.085   4.938  14.412  0.00  0.00    +0.000 A 
ATOM     13  C   UNL     1       6.129   3.937  14.220  0.00  0.00    +0.000 A 
ATOM     14  C   UNL     1       5.963   3.358  12.960  0.00  0.00    +0.000 A 
ATOM     15  C   UNL     1       6.713   3.814  11.878  0.00  0.00    +0.000 A 
ATOM     16  C   UNL     1       7.624   4.855  12.051  0.00  0.00    +0.000 A 
ATOM     17  C   UNL     1       7.809   5.414  13.316  0.00  0.00    +0.000 A 
ENDBRANCH  11  12
ENDBRANCH   8  11
ENDBRANCH   2   5
BRANCH   3  18
ATOM     18  C   UNL     1       1.622   6.954  20.780  0.00  0.00    +0.000 C 
BRANCH  18  19
ATOM     19  C   UNL     1       1.107   8.370  20.843  0.00  0.00    +0.000 A 
ATOM     20  C   UNL     1       1.160   9.185  19.704  0.00  0.00    +0.000 A 
ATOM     21  C   UNL     1       0.710  10.510  19.747  0.00  0.00    +0.000 A 
ATOM     22  C   UNL     1       0.214  11.040  20.944  0.00  0.00    +0.000 A 
ATOM     23  C   UNL     1       0.167  10.232  22.089  0.00  0.00    +0.000 A 
ATOM     24  C   UNL     1       0.609   8.906  22.037  0.00  0.00    +0.000 A 
BRANCH  22  25
ATOM     25  N   UNL     1      -0.212  12.390  21.021  0.00  0.00    +0.000 N 
ATOM     26  C   UNL     1      -0.791  13.171  20.048  0.00  0.00    +0.000 A 
ATOM     27  N   UNL     1      -0.990  14.391  20.491  0.00  0.00    +0.000 NA
ATOM     28  C   UNL     1      -0.528  14.321  21.769  0.00  0.00    +0.000 A 
ATOM     29  N   UNL     1      -0.066  13.130  22.150  0.00  0.00    +0.000 NA
ENDBRANCH  22  25
ENDBRANCH  18  19
ENDBRANCH   3  18
TORSDOF 6
ENDMDL
MODEL 4
REMARK VINA RESULT:      -8.0      1.063      1.754
REMARK  Name = 
REMARK  6 active torsions:
REMARK  status: ('A' for Active; 'I' for Inactive)
REMARK    1  A    between atoms: C_2  and  C_16
REMARK    2  A    between atoms: N_3  and  C_4
REMARK    3  A    between atoms: C_4  and  C_5
REMARK    4  A    between atoms: C_8  and  N_9
REMARK    5  A    between atoms: C_19  and  O_20
REMARK    6  A    between atoms: O_20  and  C_21
REMARK                            x       y       z     vdW  Elec       q    Type
REMARK                         _______ _______ _______ _____ _____    ______ ____
ROOT
ATOM      1  O   UNL     1      -0.403  11.258  18.408  0.00  0.00    +0.000 OA
ATOM      2  C   UNL     1       0.194  10.936  19.427  0.00  0.00    +0.000 C 
ATOM      3  N   UNL     1       0.259  11.720  20.559  0.00  0.00    +0.000 N 
ATOM      4  H   UNL     1       0.947  11.503  21.266  0.00  0.00    +0.000 HD
ENDROOT
BRANCH   2   5
ATOM      5  C   UNL     1       0.936   9.650  19.485  0.00  0.00    +0.000 A 
ATOM      6  C   UNL     1       1.553   9.179  18.318  0.00  0.00    +0.000 A 
ATOM      7  C   UNL     1       2.262   7.974  18.333  0.00  0.00    +0.000 A 
ATOM      8  C   UNL     1       2.393   7.255  19.524  0.00  0.00    +0.000 A 
ATOM      9  C   UNL     1       1.730   7.695  20.673  0.00  0.00    +0.000 A 
ATOM     10  C   UNL     1       1.001   8.888  20.657  0.00  0.00    +0.000 A 
BRANCH   8  11
ATOM     11  O   UNL     1       3.074   6.067  19.648  0.00  0.00    +0.000 OA
BRANCH  11  12
ATOM     12  C   UNL     1       2.398   4.867  19.658  0.00  0.00    +0.000 A 
ATOM     13  C   UNL     1       2.055   4.150  20.807  0.00  0.00    +0.000 A 
ATOM     14  C   UNL     1       1.376   2.934  20.697  0.00  0.00    +0.000 A 
ATOM     15  C   UNL     1       0.991   2.459  19.444  0.00  0.00    +0.000 A 
ATOM     16  C   UNL     1       1.277   3.203  18.300  0.00  0.00    +0.000 A 
ATOM     17  C   UNL     1       1.979   4.403  18.408  0.00  0.00    +0.000 A 
ENDBRANCH  11  12
ENDBRANCH   8  11
ENDBRANCH   2   5
BRANCH   3  18
ATOM     18  C   UNL     1      -0.336  13.040  20.597  0.00  0.00    +0.000 C 
BRANCH  18  19
ATOM     19  C   UNL     1      -1.749  12.987  21.124  0.00  0.00    +0.000 A 
ATOM     20  C   UNL     1      -1.980  12.728  22.482  0.00  0.00    +0.000 A 
ATOM     21  C   UNL     1      -3.282  12.649  22.987  0.00  0.00    +0.000 A 
ATOM     22  C   UNL     1      -4.375  12.814  22.128  0.00  0.00    +0.000 A 
ATOM     23  C   UNL     1      -4.150  13.064  20.767  0.00  0.00    +0.000 A 
ATOM     24  C   UNL     1      -2.845  13.151  20.270  0.00  0.00    +0.000 A 
BRANCH  22  25
ATOM     25  N   UNL     1      -5.703  12.702  22.610  0.00  0.00    +0.000 N 
ATOM     26  C   UNL     1      -6.887  12.874  21.930  0.00  0.00    +0.000 A 
ATOM     27  N   UNL     1      -7.911  12.740  22.743  0.00  0.00    +0.000 NA
ATOM     28  C   UNL     1      -7.311  12.466  23.933  0.00  0.00    +0.000 A 
ATOM     29  N   UNL     1      -5.979  12.410  23.907  0.00  0.00    +0.000 NA
ENDBRANCH  22  25
ENDBRANCH  18  19
ENDBRANCH   3  18
TORSDOF 6
ENDMDL
MODEL 5
REMARK VINA RESULT:      -7.9      3.761      9.824
REMARK  Name = 
REMARK  6 active torsions:
REMARK  status: ('A' for Active; 'I' for Inactive)
REMARK    1  A    between atoms: C_2  and  C_16
REMARK    2  A    between atoms: N_3  and  C_4
REMARK    3  A    between atoms: C_4  and  C_5
REMARK    4  A    between atoms: C_8  and  N_9
REMARK    5  A    between atoms: C_19  and  O_20
REMARK    6  A    between atoms: O_20  and  C_21
REMARK                            x       y       z     vdW  Elec       q    Type
REMARK                         _______ _______ _______ _____ _____    ______ ____
ROOT
ATOM      1  O   UNL     1       0.855  11.668  19.127  0.00  0.00    +0.000 OA
ATOM      2  C   UNL     1       0.215  10.794  18.557  0.00  0.00    +0.000 C 
ATOM      3  N   UNL     1       0.779   9.655  18.021  0.00  0.00    +0.000 N 
ATOM      4  H   UNL     1       0.238   9.099  17.375  0.00  0.00    +0.000 HD
ENDROOT
BRANCH   2   5
ATOM      5  C   UNL     1      -1.253  10.938  18.377  0.00  0.00    +0.000 A 
ATOM      6  C   UNL     1      -1.875  10.221  17.347  0.00  0.00    +0.000 A 
ATOM      7  C   UNL     1      -3.254  10.329  17.146  0.00  0.00    +0.000 A 
ATOM      8  C   UNL     1      -4.025  11.122  18.001  0.00  0.00    +0.000 A 
ATOM      9  C   UNL     1      -3.397  11.881  18.992  0.00  0.00    +0.000 A 
ATOM     10  C   UNL     1      -2.014  11.794  19.182  0.00  0.00    +0.000 A 
BRANCH   8  11
ATOM     11  O   UNL     1      -5.386  11.289  17.896  0.00  0.00    +0.000 OA
BRANCH  11  12
ATOM     12  C   UNL     1      -6.222  10.902  18.920  0.00  0.00    +0.000 A 
ATOM     13  C   UNL     1      -6.578   9.583  19.210  0.00  0.00    +0.000 A 
ATOM     14  C   UNL     1      -7.445   9.307  20.270  0.00  0.00    +0.000 A 
ATOM     15  C   UNL     1      -7.916  10.343  21.074  0.00  0.00    +0.000 A 
ATOM     16  C   UNL     1      -7.515  11.655  20.827  0.00  0.00    +0.000 A 
ATOM     17  C   UNL     1      -6.670  11.933  19.751  0.00  0.00    +0.000 A 
ENDBRANCH  11  12
ENDBRANCH   8  11
ENDBRANCH   2   5
BRANCH   3  18
ATOM     18  C   UNL     1       2.211   9.442  18.040  0.00  0.00    +0.000 C 
BRANCH  18  19
ATOM     19  C   UNL     1       2.544   7.996  18.316  0.00  0.00    +0.000 A 
ATOM     20  C   UNL     1       2.058   7.376  19.475  0.00  0.00    +0.000 A 
ATOM     21  C   UNL     1       2.375   6.044  19.763  0.00  0.00    +0.000 A 
ATOM     22  C   UNL     1       3.200   5.319  18.895  0.00  0.00    +0.000 A 
ATOM     23  C   UNL     1       3.696   5.938  17.738  0.00  0.00    +0.000 A 
ATOM     24  C   UNL     1       3.369   7.267  17.451  0.00  0.00    +0.000 A 
BRANCH  22  25
ATOM     25  N   UNL     1       3.565   3.980  19.185  0.00  0.00    +0.000 N 
ATOM     26  C   UNL     1       2.769   2.860  19.241  0.00  0.00    +0.000 A 
ATOM     27  N   UNL     1       3.472   1.809  19.599  0.00  0.00    +0.000 NA
ATOM     28  C   UNL     1       4.723   2.325  19.742  0.00  0.00    +0.000 A 
ATOM     29  N   UNL     1       4.842   3.628  19.485  0.00  0.00    +0.000 NA
ENDBRANCH  22  25
ENDBRANCH  18  19
ENDBRANCH   3  18
TORSDOF 6
ENDMDL
MODEL 6
REMARK VINA RESULT:      -7.9      0.612      1.414
REMARK  Name = 
REMARK  6 active torsions:
REMARK  status: ('A' for Active; 'I' for Inactive)
REMARK    1  A    between atoms: C_2  and  C_16
REMARK    2  A    between atoms: N_3  and  C_4
REMARK    3  A    between atoms: C_4  and  C_5
REMARK    4  A    between atoms: C_8  and  N_9
REMARK    5  A    between atoms: C_19  and  O_20
REMARK    6  A    between atoms: O_20  and  C_21
REMARK                            x       y       z     vdW  Elec       q    Type
REMARK                         _______ _______ _______ _____ _____    ______ ____
ROOT
ATOM      1  O   UNL     1       0.964  11.922  19.445  0.00  0.00    +0.000 OA
ATOM      2  C   UNL     1       0.498  10.921  18.916  0.00  0.00    +0.000 C 
ATOM      3  N   UNL     1      -0.638  10.924  18.133  0.00  0.00    +0.000 N 
ATOM      4  H   UNL     1      -1.089  10.045  17.923  0.00  0.00    +0.000 HD
ENDROOT
BRANCH   2   5
ATOM      5  C   UNL     1       1.136   9.596  19.129  0.00  0.00    +0.000 A 
ATOM      6  C   UNL     1       1.754   8.967  18.040  0.00  0.00    +0.000 A 
ATOM      7  C   UNL     1       2.367   7.721  18.201  0.00  0.00    +0.000 A 
ATOM      8  C   UNL     1       2.402   7.117  19.460  0.00  0.00    +0.000 A 
ATOM      9  C   UNL     1       1.736   7.716  20.533  0.00  0.00    +0.000 A 
ATOM     10  C   UNL     1       1.103   8.952  20.371  0.00  0.00    +0.000 A 
BRANCH   8  11
ATOM     11  O   UNL     1       2.985   5.900  19.727  0.00  0.00    +0.000 OA
BRANCH  11  12
ATOM     12  C   UNL     1       2.363   4.728  19.358  0.00  0.00    +0.000 A 
ATOM     13  C   UNL     1       2.618   4.020  18.181  0.00  0.00    +0.000 A 
ATOM     14  C   UNL     1       1.917   2.844  17.904  0.00  0.00    +0.000 A 
ATOM     15  C   UNL     1       0.999   2.344  18.827  0.00  0.00    +0.000 A 
ATOM     16  C   UNL     1       0.788   3.014  20.031  0.00  0.00    +0.000 A 
ATOM     17  C   UNL     1       1.468   4.203  20.295  0.00  0.00    +0.000 A 
ENDBRANCH  11  12
ENDBRANCH   8  11
ENDBRANCH   2   5
BRANCH   3  18
ATOM     18  C   UNL     1      -1.411  12.132  17.931  0.00  0.00    +0.000 C 
BRANCH  18  19
ATOM     19  C   UNL     1      -2.573  12.202  18.891  0.00  0.00    +0.000 A 
ATOM     20  C   UNL     1      -3.848  11.790  18.477  0.00  0.00    +0.000 A 
ATOM     21  C   UNL     1      -4.944  11.870  19.342  0.00  0.00    +0.000 A 
ATOM     22  C   UNL     1      -4.778  12.381  20.634  0.00  0.00    +0.000 A 
ATOM     23  C   UNL     1      -3.507  12.802  21.051  0.00  0.00    +0.000 A 
ATOM     24  C   UNL     1      -2.413  12.711  20.184  0.00  0.00    +0.000 A 
BRANCH  22  25
ATOM     25  N   UNL     1      -5.881  12.505  21.516  0.00  0.00    +0.000 N 
ATOM     26  C   UNL     1      -7.153  11.997  21.388  0.00  0.00    +0.000 A 
ATOM     27  N   UNL     1      -7.909  12.381  22.392  0.00  0.00    +0.000 NA
ATOM     28  C   UNL     1      -7.050  13.124  23.141  0.00  0.00    +0.000 A 
ATOM     29  N   UNL     1      -5.806  13.216  22.671  0.00  0.00    +0.000 NA
ENDBRANCH  22  25
ENDBRANCH  18  19
ENDBRANCH   3  18
TORSDOF 6
ENDMDL
MODEL 7
REMARK VINA RESULT:      -7.9      4.355      6.511
REMARK  Name = 
REMARK  6 active torsions:
REMARK  status: ('A' for Active; 'I' for Inactive)
REMARK    1  A    between atoms: C_2  and  C_16
REMARK    2  A    between atoms: N_3  and  C_4
REMARK    3  A    between atoms: C_4  and  C_5
REMARK    4  A    between atoms: C_8  and  N_9
REMARK    5  A    between atoms: C_19  and  O_20
REMARK    6  A    between atoms: O_20  and  C_21
REMARK                            x       y       z     vdW  Elec       q    Type
REMARK                         _______ _______ _______ _____ _____    ______ ____
ROOT
ATOM      1  O   UNL     1       2.700   4.567  20.147  0.00  0.00    +0.000 OA
ATOM      2  C   UNL     1       3.078   5.623  19.658  0.00  0.00    +0.000 C 
ATOM      3  N   UNL     1       2.530   6.851  19.965  0.00  0.00    +0.000 N 
ATOM      4  H   UNL     1       2.729   7.639  19.365  0.00  0.00    +0.000 HD
ENDROOT
BRANCH   2   5
ATOM      5  C   UNL     1       4.164   5.632  18.644  0.00  0.00    +0.000 A 
ATOM      6  C   UNL     1       5.247   4.760  18.814  0.00  0.00    +0.000 A 
ATOM      7  C   UNL     1       6.287   4.737  17.880  0.00  0.00    +0.000 A 
ATOM      8  C   UNL     1       6.229   5.556  16.749  0.00  0.00    +0.000 A 
ATOM      9  C   UNL     1       5.178   6.466  16.609  0.00  0.00    +0.000 A 
ATOM     10  C   UNL     1       4.147   6.508  17.552  0.00  0.00    +0.000 A 
BRANCH   8  11
ATOM     11  O   UNL     1       7.193   5.604  15.769  0.00  0.00    +0.000 OA
BRANCH  11  12
ATOM     12  C   UNL     1       6.993   4.981  14.557  0.00  0.00    +0.000 A 
ATOM     13  C   UNL     1       6.038   3.992  14.311  0.00  0.00    +0.000 A 
ATOM     14  C   UNL     1       5.932   3.420  13.041  0.00  0.00    +0.000 A 
ATOM     15  C   UNL     1       6.742   3.872  12.001  0.00  0.00    +0.000 A 
ATOM     16  C   UNL     1       7.654   4.902  12.227  0.00  0.00    +0.000 A 
ATOM     17  C   UNL     1       7.779   5.454  13.502  0.00  0.00    +0.000 A 
ENDBRANCH  11  12
ENDBRANCH   8  11
ENDBRANCH   2   5
BRANCH   3  18
ATOM     18  C   UNL     1       1.399   6.970  20.861  0.00  0.00    +0.000 C 
BRANCH  18  19
ATOM     19  C   UNL     1       0.994   8.412  21.040  0.00  0.00    +0.000 A 
ATOM     20  C   UNL     1       0.514   8.856  22.280  0.00  0.00    +0.000 A 
ATOM     21  C   UNL     1       0.110  10.183  22.460  0.00  0.00    +0.000 A 
ATOM     22  C   UNL     1       0.166  11.082  21.389  0.00  0.00    +0.000 A 
ATOM     23  C   UNL     1       0.637  10.641  20.144  0.00  0.00    +0.000 A 
ATOM     24  C   UNL     1       1.049   9.316  19.972  0.00  0.00    +0.000 A 
BRANCH  22  25
ATOM     25  N   UNL     1      -0.273  12.421  21.538  0.00  0.00    +0.000 N 
ATOM     26  C   UNL     1      -0.160  13.472  20.658  0.00  0.00    +0.000 A 
ATOM     27  N   UNL     1      -0.640  14.574  21.187  0.00  0.00    +0.000 NA
ATOM     28  C   UNL     1      -1.062  14.155  22.411  0.00  0.00    +0.000 A 
ATOM     29  N   UNL     1      -0.885  12.860  22.669  0.00  0.00    +0.000 NA
ENDBRANCH  22  25
ENDBRANCH  18  19
ENDBRANCH   3  18
TORSDOF 6
ENDMDL
MODEL 8
REMARK VINA RESULT:      -7.9      3.880     10.043
REMARK  Name = 
REMARK  6 active torsions:
REMARK  status: ('A' for Active; 'I' for Inactive)
REMARK    1  A    between atoms: C_2  and  C_16
REMARK    2  A    between atoms: N_3  and  C_4
REMARK    3  A    between atoms: C_4  and  C_5
REMARK    4  A    between atoms: C_8  and  N_9
REMARK    5  A    between atoms: C_19  and  O_20
REMARK    6  A    between atoms: O_20  and  C_21
REMARK                            x       y       z     vdW  Elec       q    Type
REMARK                         _______ _______ _______ _____ _____    ______ ____
ROOT
ATOM      1  O   UNL     1       0.675  10.462  19.794  0.00  0.00    +0.000 OA
ATOM      2  C   UNL     1       0.311  10.191  18.657  0.00  0.00    +0.000 C 
ATOM      3  N   UNL     1       1.136   9.648  17.695  0.00  0.00    +0.000 N 
ATOM      4  H   UNL     1       0.839   9.665  16.730  0.00  0.00    +0.000 HD
ENDROOT
BRANCH   2   5
ATOM      5  C   UNL     1      -1.083  10.477  18.230  0.00  0.00    +0.000 A 
ATOM      6  C   UNL     1      -1.642   9.704  17.204  0.00  0.00    +0.000 A 
ATOM      7  C   UNL     1      -2.951   9.941  16.776  0.00  0.00    +0.000 A 
ATOM      8  C   UNL     1      -3.723  10.924  17.400  0.00  0.00    +0.000 A 
ATOM      9  C   UNL     1      -3.148  11.733  18.384  0.00  0.00    +0.000 A 
ATOM     10  C   UNL     1      -1.831  11.514  18.800  0.00  0.00    +0.000 A 
BRANCH   8  11
ATOM     11  O   UNL     1      -5.021  11.231  17.062  0.00  0.00    +0.000 OA
BRANCH  11  12
ATOM     12  C   UNL     1      -5.974  11.426  18.037  0.00  0.00    +0.000 A 
ATOM     13  C   UNL     1      -6.352  10.477  18.990  0.00  0.00    +0.000 A 
ATOM     14  C   UNL     1      -7.341  10.781  19.928  0.00  0.00    +0.000 A 
ATOM     15  C   UNL     1      -7.916  12.051  19.950  0.00  0.00    +0.000 A 
ATOM     16  C   UNL     1      -7.497  13.020  19.040  0.00  0.00    +0.000 A 
ATOM     17  C   UNL     1      -6.529  12.707  18.086  0.00  0.00    +0.000 A 
ENDBRANCH  11  12
ENDBRANCH   8  11
ENDBRANCH   2   5
BRANCH   3  18
ATOM     18  C   UNL     1       2.543   9.416  17.951  0.00  0.00    +0.000 C 
BRANCH  18  19
ATOM     19  C   UNL     1       2.824   7.948  18.161  0.00  0.00    +0.000 A 
ATOM     20  C   UNL     1       3.591   7.243  17.224  0.00  0.00    +0.000 A 
ATOM     21  C   UNL     1       3.843   5.876  17.386  0.00  0.00    +0.000 A 
ATOM     22  C   UNL     1       3.312   5.194  18.486  0.00  0.00    +0.000 A 
ATOM     23  C   UNL     1       2.536   5.893  19.422  0.00  0.00    +0.000 A 
ATOM     24  C   UNL     1       2.295   7.261  19.260  0.00  0.00    +0.000 A 
BRANCH  22  25
ATOM     25  N   UNL     1       3.523   3.801  18.652  0.00  0.00    +0.000 N 
ATOM     26  C   UNL     1       3.291   2.779  17.761  0.00  0.00    +0.000 A 
ATOM     27  N   UNL     1       3.560   1.616  18.310  0.00  0.00    +0.000 NA
ATOM     28  C   UNL     1       3.978   1.967  19.556  0.00  0.00    +0.000 A 
ATOM     29  N   UNL     1       3.996   3.275  19.811  0.00  0.00    +0.000 NA
ENDBRANCH  22  25
ENDBRANCH  18  19
ENDBRANCH   3  18
TORSDOF 6
ENDMDL
MODEL 9
REMARK VINA RESULT:      -7.8      1.267      1.779
REMARK  Name = 
REMARK  6 active torsions:
REMARK  status: ('A' for Active; 'I' for Inactive)
REMARK    1  A    between atoms: C_2  and  C_16
REMARK    2  A    between atoms: N_3  and  C_4
REMARK    3  A    between atoms: C_4  and  C_5
REMARK    4  A    between atoms: C_8  and  N_9
REMARK    5  A    between atoms: C_19  and  O_20
REMARK    6  A    between atoms: O_20  and  C_21
REMARK                            x       y       z     vdW  Elec       q    Type
REMARK                         _______ _______ _______ _____ _____    ______ ____
ROOT
ATOM      1  O   UNL     1       0.176  11.675  18.618  0.00  0.00    +0.000 OA
ATOM      2  C   UNL     1       0.569  11.051  19.595  0.00  0.00    +0.000 C 
ATOM      3  N   UNL     1       0.502  11.527  20.888  0.00  0.00    +0.000 N 
ATOM      4  H   UNL     1       1.044  11.070  21.606  0.00  0.00    +0.000 HD
ENDROOT
BRANCH   2   5
ATOM      5  C   UNL     1       1.195   9.714  19.428  0.00  0.00    +0.000 A 
ATOM      6  C   UNL     1       1.731   9.377  18.178  0.00  0.00    +0.000 A 
ATOM      7  C   UNL     1       2.330   8.129  17.982  0.00  0.00    +0.000 A 
ATOM      8  C   UNL     1       2.433   7.228  19.045  0.00  0.00    +0.000 A 
ATOM      9  C   UNL     1       1.847   7.541  20.274  0.00  0.00    +0.000 A 
ATOM     10  C   UNL     1       1.227   8.779  20.469  0.00  0.00    +0.000 A 
BRANCH   8  11
ATOM     11  O   UNL     1       3.009   5.982  18.960  0.00  0.00    +0.000 OA
BRANCH  11  12
ATOM     12  C   UNL     1       2.419   4.893  19.562  0.00  0.00    +0.000 A 
ATOM     13  C   UNL     1       2.569   4.539  20.905  0.00  0.00    +0.000 A 
ATOM     14  C   UNL     1       1.930   3.404  21.406  0.00  0.00    +0.000 A 
ATOM     15  C   UNL     1       1.097   2.649  20.582  0.00  0.00    +0.000 A 
ATOM     16  C   UNL     1       0.895   3.034  19.258  0.00  0.00    +0.000 A 
ATOM     17  C   UNL     1       1.555   4.153  18.750  0.00  0.00    +0.000 A 
ENDBRANCH  11  12
ENDBRANCH   8  11
ENDBRANCH   2   5
BRANCH   3  18
ATOM     18  C   UNL     1       0.007  12.858  21.177  0.00  0.00    +0.000 C 
BRANCH  18  19
ATOM     19  C   UNL     1      -1.442  12.822  21.594  0.00  0.00    +0.000 A 
ATOM     20  C   UNL     1      -2.430  13.330  20.739  0.00  0.00    +0.000 A 
ATOM     21  C   UNL     1      -3.777  13.329  21.117  0.00  0.00    +0.000 A 
ATOM     22  C   UNL     1      -4.150  12.830  22.370  0.00  0.00    +0.000 A 
ATOM     23  C   UNL     1      -3.165  12.328  23.234  0.00  0.00    +0.000 A 
ATOM     24  C   UNL     1      -1.821  12.323  22.847  0.00  0.00    +0.000 A 
BRANCH  22  25
ATOM     25  N   UNL     1      -5.504  12.853  22.790  0.00  0.00    +0.000 N 
ATOM     26  C   UNL     1      -6.617  13.270  22.098  0.00  0.00    +0.000 A 
ATOM     27  N   UNL     1      -7.689  13.189  22.853  0.00  0.00    +0.000 NA
ATOM     28  C   UNL     1      -7.193  12.694  24.019  0.00  0.00    +0.000 A 
ATOM     29  N   UNL     1      -5.882  12.452  24.031  0.00  0.00    +0.000 NA
ENDBRANCH  22  25
ENDBRANCH  18  19
ENDBRANCH   3  18
TORSDOF 6
ENDMDL
