MODEL 1
REMARK VINA RESULT:      -8.1      0.000      0.000
REMARK  Name = 
REMARK  6 active torsions:
REMARK  status: ('A' for Active; 'I' for Inactive)
REMARK    1  A    between atoms: C_1  and  N_2
REMARK    2  A    between atoms: N_2  and  S_3
REMARK    3  A    between atoms: S_3  and  C_6
REMARK    4  A    between atoms: C_10  and  C_11
REMARK    5  A    between atoms: N_13  and  C_14
REMARK    6  A    between atoms: C_19  and  N_20
REMARK                            x       y       z     vdW  Elec       q    Type
REMARK                         _______ _______ _______ _____ _____    ______ ____
ROOT
ATOM      1  C   UNL     1       2.107   6.666  19.365  0.00  0.00    +0.000 C 
ATOM      2  O   UNL     1       2.089   6.210  20.503  0.00  0.00    +0.000 OA
ATOM      3  N   UNL     1       2.350   5.937  18.214  0.00  0.00    +0.000 N 
ATOM      4  H   UNL     1       2.209   6.342  17.302  0.00  0.00    +0.000 HD
ENDROOT
BRANCH   1   9
ATOM      5  C   UNL     1       1.029  10.286  19.903  0.00  0.00    +0.000 A 
ATOM      6  C   UNL     1       1.490  10.890  18.730  0.00  0.00    +0.000 A 
ATOM      7  C   UNL     1       2.106  10.105  17.754  0.00  0.00    +0.000 A 
ATOM      8  C   UNL     1       2.289   8.733  17.969  0.00  0.00    +0.000 A 
ATOM      9  C   UNL     1       1.847   8.128  19.155  0.00  0.00    +0.000 A 
ATOM     10  C   UNL     1       1.193   8.911  20.114  0.00  0.00    +0.000 A 
BRANCH   5  11
ATOM     11  S   UNL     1       0.378  11.275  21.229  0.00  0.00    +0.000 S 
ATOM     12  O   UNL     1      -1.053  11.370  21.043  0.00  0.00    +0.000 OA
ATOM     13  O   UNL     1       1.209  12.455  21.361  0.00  0.00    +0.000 OA
BRANCH  11  15
ATOM     14  C   UNL     1      -0.568   9.758  23.249  0.00  0.00    +0.000 C 
ATOM     15  N   UNL     1       0.607  10.301  22.576  0.00  0.00    +0.000 NA
ATOM     16  H   UNL     1       1.405   9.677  22.450  0.00  0.00    +0.000 HD
ENDBRANCH  11  15
ENDBRANCH   5  11
ENDBRANCH   1   9
BRANCH   3  17
ATOM     17  C   UNL     1       2.505   4.539  18.209  0.00  0.00    +0.000 A 
ATOM     18  C   UNL     1       1.313   3.821  18.386  0.00  0.00    +0.000 A 
ATOM     19  C   UNL     1       1.325   2.434  18.449  0.00  0.00    +0.000 A 
ATOM     20  C   UNL     1       2.530   1.761  18.320  0.00  0.00    +0.000 A 
ATOM     21  C   UNL     1       3.723   2.479  18.158  0.00  0.00    +0.000 A 
ATOM     22  C   UNL     1       3.763   3.890  18.127  0.00  0.00    +0.000 A 
BRANCH  22  23
ATOM     23  N   UNL     1       4.998   4.535  18.058  0.00  0.00    +0.000 N 
ATOM     24  C   UNL     1       6.024   4.353  19.093  0.00  0.00    +0.000 C 
ATOM     25  C   UNL     1       7.423   4.715  18.584  0.00  0.00    +0.000 C 
ATOM     26  C   UNL     1       7.376   6.153  18.145  0.00  0.00    +0.000 A 
ATOM     27  C   UNL     1       8.305   7.103  18.570  0.00  0.00    +0.000 A 
ATOM     28  C   UNL     1       8.144   8.437  18.195  0.00  0.00    +0.000 A 
ATOM     29  C   UNL     1       7.078   8.813  17.375  0.00  0.00    +0.000 A 
ATOM     30  C   UNL     1       6.156   7.862  16.939  0.00  0.00    +0.000 A 
ATOM     31  C   UNL     1       6.283   6.530  17.345  0.00  0.00    +0.000 A 
ATOM     32  C   UNL     1       5.270   5.473  16.951  0.00  0.00    +0.000 C 
ENDBRANCH  22  23
ENDBRANCH   3  17
TORSDOF 5
ENDMDL
MODEL 2
REMARK VINA RESULT:      -8.1      2.180      4.683
REMARK  Name = 
REMARK  6 active torsions:
REMARK  status: ('A' for Active; 'I' for Inactive)
REMARK    1  A    between atoms: C_1  and  N_2
REMARK    2  A    between atoms: N_2  and  S_3
REMARK    3  A    between atoms: S_3  and  C_6
REMARK    4  A    between atoms: C_10  and  C_11
REMARK    5  A    between atoms: N_13  and  C_14
REMARK    6  A    between atoms: C_19  and  N_20
REMARK                            x       y       z     vdW  Elec       q    Type
REMARK                         _______ _______ _______ _____ _____    ______ ____
ROOT
ATOM      1  C   UNL     1       3.616   6.845  18.318  0.00  0.00    +0.000 C 
ATOM      2  O   UNL     1       4.195   6.247  19.217  0.00  0.00    +0.000 OA
ATOM      3  N   UNL     1       3.858   6.686  16.964  0.00  0.00    +0.000 N 
ATOM      4  H   UNL     1       3.251   7.100  16.275  0.00  0.00    +0.000 HD
ENDROOT
BRANCH   1   9
ATOM      5  C   UNL     1       1.070   8.927  20.253  0.00  0.00    +0.000 A 
ATOM      6  C   UNL     1       0.623   9.807  19.264  0.00  0.00    +0.000 A 
ATOM      7  C   UNL     1       1.120   9.685  17.966  0.00  0.00    +0.000 A 
ATOM      8  C   UNL     1       2.082   8.712  17.670  0.00  0.00    +0.000 A 
ATOM      9  C   UNL     1       2.550   7.841  18.666  0.00  0.00    +0.000 A 
ATOM     10  C   UNL     1       2.019   7.939  19.958  0.00  0.00    +0.000 A 
BRANCH   5  11
ATOM     11  S   UNL     1       0.575   9.147  21.947  0.00  0.00    +0.000 S 
ATOM     12  O   UNL     1       1.773   9.141  22.756  0.00  0.00    +0.000 OA
ATOM     13  O   UNL     1      -0.530   8.249  22.213  0.00  0.00    +0.000 OA
BRANCH  11  15
ATOM     14  C   UNL     1      -1.020  11.078  22.949  0.00  0.00    +0.000 C 
ATOM     15  N   UNL     1       0.005  10.725  21.971  0.00  0.00    +0.000 NA
ATOM     16  H   UNL     1       0.760  11.395  21.822  0.00  0.00    +0.000 HD
ENDBRANCH  11  15
ENDBRANCH   5  11
ENDBRANCH   1   9
BRANCH   3  17
ATOM     17  C   UNL     1       4.742   5.721  16.451  0.00  0.00    +0.000 A 
ATOM     18  C   UNL     1       5.710   6.229  15.570  0.00  0.00    +0.000 A 
ATOM     19  C   UNL     1       6.620   5.381  14.953  0.00  0.00    +0.000 A 
ATOM     20  C   UNL     1       6.571   4.023  15.225  0.00  0.00    +0.000 A 
ATOM     21  C   UNL     1       5.596   3.514  16.093  0.00  0.00    +0.000 A 
ATOM     22  C   UNL     1       4.627   4.333  16.713  0.00  0.00    +0.000 A 
BRANCH  22  23
ATOM     23  N   UNL     1       3.630   3.741  17.488  0.00  0.00    +0.000 N 
ATOM     24  C   UNL     1       2.214   4.095  17.328  0.00  0.00    +0.000 C 
ATOM     25  C   UNL     1       1.284   3.008  17.879  0.00  0.00    +0.000 C 
ATOM     26  C   UNL     1       1.617   2.839  19.335  0.00  0.00    +0.000 A 
ATOM     27  C   UNL     1       0.648   2.861  20.339  0.00  0.00    +0.000 A 
ATOM     28  C   UNL     1       1.041   2.789  21.675  0.00  0.00    +0.000 A 
ATOM     29  C   UNL     1       2.392   2.665  22.005  0.00  0.00    +0.000 A 
ATOM     30  C   UNL     1       3.361   2.628  21.002  0.00  0.00    +0.000 A 
ATOM     31  C   UNL     1       2.982   2.744  19.661  0.00  0.00    +0.000 A 
ATOM     32  C   UNL     1       4.002   2.775  18.540  0.00  0.00    +0.000 C 
ENDBRANCH  22  23
ENDBRANCH   3  17
TORSDOF 5
ENDMDL
MODEL 3
REMARK VINA RESULT:      -7.9      0.974      1.145
REMARK  Name = 
REMARK  6 active torsions:
REMARK  status: ('A' for Active; 'I' for Inactive)
REMARK    1  A    between atoms: C_1  and  N_2
REMARK    2  A    between atoms: N_2  and  S_3
REMARK    3  A    between atoms: S_3  and  C_6
REMARK    4  A    between atoms: C_10  and  C_11
REMARK    5  A    between atoms: N_13  and  C_14
REMARK    6  A    between atoms: C_19  and  N_20
REMARK                            x       y       z     vdW  Elec       q    Type
REMARK                         _______ _______ _______ _____ _____    ______ ____
ROOT
ATOM      1  C   UNL     1       2.201   6.615  19.342  0.00  0.00    +0.000 C 
ATOM      2  O   UNL     1       2.274   6.171  20.482  0.00  0.00    +0.000 OA
ATOM      3  N   UNL     1       2.371   5.879  18.182  0.00  0.00    +0.000 N 
ATOM      4  H   UNL     1       2.156   6.273  17.280  0.00  0.00    +0.000 HD
ENDROOT
BRANCH   1   9
ATOM      5  C   UNL     1       0.985  10.192  19.879  0.00  0.00    +0.000 A 
ATOM      6  C   UNL     1       1.474  10.826  18.735  0.00  0.00    +0.000 A 
ATOM      7  C   UNL     1       2.156  10.075  17.776  0.00  0.00    +0.000 A 
ATOM      8  C   UNL     1       2.375   8.707  17.981  0.00  0.00    +0.000 A 
ATOM      9  C   UNL     1       1.903   8.071  19.140  0.00  0.00    +0.000 A 
ATOM     10  C   UNL     1       1.184   8.819  20.080  0.00  0.00    +0.000 A 
BRANCH   5  11
ATOM     11  S   UNL     1       0.246  11.141  21.189  0.00  0.00    +0.000 S 
ATOM     12  O   UNL     1       0.545  10.473  22.436  0.00  0.00    +0.000 OA
ATOM     13  O   UNL     1      -1.113  11.461  20.803  0.00  0.00    +0.000 OA
BRANCH  11  15
ATOM     14  C   UNL     1       0.525  13.781  21.669  0.00  0.00    +0.000 C 
ATOM     15  N   UNL     1       1.153  12.553  21.190  0.00  0.00    +0.000 NA
ATOM     16  H   UNL     1       2.115  12.376  21.477  0.00  0.00    +0.000 HD
ENDBRANCH  11  15
ENDBRANCH   5  11
ENDBRANCH   1   9
BRANCH   3  17
ATOM     17  C   UNL     1       2.548   4.485  18.177  0.00  0.00    +0.000 A 
ATOM     18  C   UNL     1       1.366   3.747  18.350  0.00  0.00    +0.000 A 
ATOM     19  C   UNL     1       1.399   2.361  18.412  0.00  0.00    +0.000 A 
ATOM     20  C   UNL     1       2.616   1.707  18.288  0.00  0.00    +0.000 A 
ATOM     21  C   UNL     1       3.797   2.444  18.130  0.00  0.00    +0.000 A 
ATOM     22  C   UNL     1       3.815   3.855  18.100  0.00  0.00    +0.000 A 
BRANCH  22  23
ATOM     23  N   UNL     1       5.041   4.519  18.036  0.00  0.00    +0.000 N 
ATOM     24  C   UNL     1       6.068   4.348  19.071  0.00  0.00    +0.000 C 
ATOM     25  C   UNL     1       7.462   4.734  18.566  0.00  0.00    +0.000 C 
ATOM     26  C   UNL     1       7.393   6.173  18.134  0.00  0.00    +0.000 A 
ATOM     27  C   UNL     1       8.307   7.136  18.564  0.00  0.00    +0.000 A 
ATOM     28  C   UNL     1       8.126   8.468  18.196  0.00  0.00    +0.000 A 
ATOM     29  C   UNL     1       7.055   8.832  17.376  0.00  0.00    +0.000 A 
ATOM     30  C   UNL     1       6.149   7.869  16.934  0.00  0.00    +0.000 A 
ATOM     31  C   UNL     1       6.295   6.537  17.334  0.00  0.00    +0.000 A 
ATOM     32  C   UNL     1       5.300   5.466  16.933  0.00  0.00    +0.000 C 
ENDBRANCH  22  23
ENDBRANCH   3  17
TORSDOF 5
ENDMDL
MODEL 4
REMARK VINA RESULT:      -7.7      3.781      8.814
REMARK  Name = 
REMARK  6 active torsions:
REMARK  status: ('A' for Active; 'I' for Inactive)
REMARK    1  A    between atoms: C_1  and  N_2
REMARK    2  A    between atoms: N_2  and  S_3
REMARK    3  A    between atoms: S_3  and  C_6
REMARK    4  A    between atoms: C_10  and  C_11
REMARK    5  A    between atoms: N_13  and  C_14
REMARK    6  A    between atoms: C_19  and  N_20
REMARK                            x       y       z     vdW  Elec       q    Type
REMARK                         _______ _______ _______ _____ _____    ______ ____
ROOT
ATOM      1  C   UNL     1       0.822   9.936  21.209  0.00  0.00    +0.000 C 
ATOM      2  O   UNL     1       1.249   9.796  22.349  0.00  0.00    +0.000 OA
ATOM      3  N   UNL     1      -0.168  10.827  20.827  0.00  0.00    +0.000 N 
ATOM      4  H   UNL     1      -0.371  10.993  19.855  0.00  0.00    +0.000 HD
ENDROOT
BRANCH   1   9
ATOM      5  C   UNL     1       2.374   7.045  19.262  0.00  0.00    +0.000 A 
ATOM      6  C   UNL     1       2.342   7.541  17.957  0.00  0.00    +0.000 A 
ATOM      7  C   UNL     1       1.859   8.831  17.727  0.00  0.00    +0.000 A 
ATOM      8  C   UNL     1       1.379   9.601  18.793  0.00  0.00    +0.000 A 
ATOM      9  C   UNL     1       1.389   9.097  20.103  0.00  0.00    +0.000 A 
ATOM     10  C   UNL     1       1.913   7.819  20.336  0.00  0.00    +0.000 A 
BRANCH   5  11
ATOM     11  S   UNL     1       2.840   5.357  19.574  0.00  0.00    +0.000 S 
ATOM     12  O   UNL     1       4.283   5.307  19.642  0.00  0.00    +0.000 OA
ATOM     13  O   UNL     1       2.089   4.509  18.670  0.00  0.00    +0.000 OA
BRANCH  11  15
ATOM     14  C   UNL     1       2.160   3.721  21.608  0.00  0.00    +0.000 C 
ATOM     15  N   UNL     1       2.291   5.097  21.138  0.00  0.00    +0.000 NA
ATOM     16  H   UNL     1       2.685   5.778  21.788  0.00  0.00    +0.000 HD
ENDBRANCH  11  15
ENDBRANCH   5  11
ENDBRANCH   1   9
BRANCH   3  17
ATOM     17  C   UNL     1      -0.735  11.766  21.706  0.00  0.00    +0.000 A 
ATOM     18  C   UNL     1      -1.573  11.213  22.687  0.00  0.00    +0.000 A 
ATOM     19  C   UNL     1      -2.237  12.029  23.593  0.00  0.00    +0.000 A 
ATOM     20  C   UNL     1      -2.054  13.402  23.528  0.00  0.00    +0.000 A 
ATOM     21  C   UNL     1      -1.228  13.955  22.540  0.00  0.00    +0.000 A 
ATOM     22  C   UNL     1      -0.564  13.167  21.574  0.00  0.00    +0.000 A 
BRANCH  22  23
ATOM     23  N   UNL     1       0.163  13.797  20.565  0.00  0.00    +0.000 N 
ATOM     24  C   UNL     1       1.618  13.972  20.654  0.00  0.00    +0.000 C 
ATOM     25  C   UNL     1       2.255  14.205  19.280  0.00  0.00    +0.000 C 
ATOM     26  C   UNL     1       1.618  15.438  18.701  0.00  0.00    +0.000 A 
ATOM     27  C   UNL     1       2.360  16.501  18.185  0.00  0.00    +0.000 A 
ATOM     28  C   UNL     1       1.702  17.650  17.750  0.00  0.00    +0.000 A 
ATOM     29  C   UNL     1       0.309  17.726  17.800  0.00  0.00    +0.000 A 
ATOM     30  C   UNL     1      -0.435  16.658  18.303  0.00  0.00    +0.000 A 
ATOM     31  C   UNL     1       0.216  15.518  18.783  0.00  0.00    +0.000 A 
ATOM     32  C   UNL     1      -0.545  14.360  19.398  0.00  0.00    +0.000 C 
ENDBRANCH  22  23
ENDBRANCH   3  17
TORSDOF 5
ENDMDL
MODEL 5
REMARK VINA RESULT:      -7.7      3.437      8.405
REMARK  Name = 
REMARK  6 active torsions:
REMARK  status: ('A' for Active; 'I' for Inactive)
REMARK    1  A    between atoms: C_1  and  N_2
REMARK    2  A    between atoms: N_2  and  S_3
REMARK    3  A    between atoms: S_3  and  C_6
REMARK    4  A    between atoms: C_10  and  C_11
REMARK    5  A    between atoms: N_13  and  C_14
REMARK    6  A    between atoms: C_19  and  N_20
REMARK                            x       y       z     vdW  Elec       q    Type
REMARK                         _______ _______ _______ _____ _____    ______ ____
ROOT
ATOM      1  C   UNL     1       1.091   9.452  21.246  0.00  0.00    +0.000 C 
ATOM      2  O   UNL     1       1.510   9.376  22.394  0.00  0.00    +0.000 OA
ATOM      3  N   UNL     1       0.162  10.373  20.790  0.00  0.00    +0.000 N 
ATOM      4  H   UNL     1      -0.031  10.473  19.807  0.00  0.00    +0.000 HD
ENDROOT
BRANCH   1   9
ATOM      5  C   UNL     1       2.326   6.284  19.516  0.00  0.00    +0.000 A 
ATOM      6  C   UNL     1       2.452   6.720  18.195  0.00  0.00    +0.000 A 
ATOM      7  C   UNL     1       2.180   8.054  17.887  0.00  0.00    +0.000 A 
ATOM      8  C   UNL     1       1.750   8.932  18.889  0.00  0.00    +0.000 A 
ATOM      9  C   UNL     1       1.601   8.491  20.213  0.00  0.00    +0.000 A 
ATOM     10  C   UNL     1       1.915   7.163  20.526  0.00  0.00    +0.000 A 
BRANCH   5  11
ATOM     11  S   UNL     1       2.518   4.562  19.918  0.00  0.00    +0.000 S 
ATOM     12  O   UNL     1       1.853   4.331  21.181  0.00  0.00    +0.000 OA
ATOM     13  O   UNL     1       3.906   4.203  19.711  0.00  0.00    +0.000 OA
BRANCH  11  15
ATOM     14  C   UNL     1       0.896   2.560  19.117  0.00  0.00    +0.000 C 
ATOM     15  N   UNL     1       1.584   3.795  18.754  0.00  0.00    +0.000 NA
ATOM     16  H   UNL     1       1.068   4.470  18.189  0.00  0.00    +0.000 HD
ENDBRANCH  11  15
ENDBRANCH   5  11
ENDBRANCH   1   9
BRANCH   3  17
ATOM     17  C   UNL     1      -0.341  11.414  21.589  0.00  0.00    +0.000 A 
ATOM     18  C   UNL     1      -1.198  10.996  22.618  0.00  0.00    +0.000 A 
ATOM     19  C   UNL     1      -1.804  11.924  23.456  0.00  0.00    +0.000 A 
ATOM     20  C   UNL     1      -1.542  13.273  23.272  0.00  0.00    +0.000 A 
ATOM     21  C   UNL     1      -0.698  13.691  22.235  0.00  0.00    +0.000 A 
ATOM     22  C   UNL     1      -0.091  12.787  21.336  0.00  0.00    +0.000 A 
BRANCH  22  23
ATOM     23  N   UNL     1       0.660  13.285  20.272  0.00  0.00    +0.000 N 
ATOM     24  C   UNL     1       2.073  12.929  20.089  0.00  0.00    +0.000 C 
ATOM     25  C   UNL     1       2.539  13.152  18.646  0.00  0.00    +0.000 C 
ATOM     26  C   UNL     1       2.326  14.608  18.334  0.00  0.00    +0.000 A 
ATOM     27  C   UNL     1       3.324  15.418  17.791  0.00  0.00    +0.000 A 
ATOM     28  C   UNL     1       3.081  16.780  17.614  0.00  0.00    +0.000 A 
ATOM     29  C   UNL     1       1.838  17.323  17.947  0.00  0.00    +0.000 A 
ATOM     30  C   UNL     1       0.835  16.511  18.476  0.00  0.00    +0.000 A 
ATOM     31  C   UNL     1       1.082  15.153  18.700  0.00  0.00    +0.000 A 
ATOM     32  C   UNL     1       0.047  14.244  19.332  0.00  0.00    +0.000 C 
ENDBRANCH  22  23
ENDBRANCH   3  17
TORSDOF 5
ENDMDL
MODEL 6
REMARK VINA RESULT:      -7.6      3.368      8.353
REMARK  Name = 
REMARK  6 active torsions:
REMARK  status: ('A' for Active; 'I' for Inactive)
REMARK    1  A    between atoms: C_1  and  N_2
REMARK    2  A    between atoms: N_2  and  S_3
REMARK    3  A    between atoms: S_3  and  C_6
REMARK    4  A    between atoms: C_10  and  C_11
REMARK    5  A    between atoms: N_13  and  C_14
REMARK    6  A    between atoms: C_19  and  N_20
REMARK                            x       y       z     vdW  Elec       q    Type
REMARK                         _______ _______ _______ _____ _____    ______ ____
ROOT
ATOM      1  C   UNL     1       0.606   9.685  19.694  0.00  0.00    +0.000 C 
ATOM      2  O   UNL     1      -0.411   9.948  19.063  0.00  0.00    +0.000 OA
ATOM      3  N   UNL     1       0.951  10.228  20.921  0.00  0.00    +0.000 N 
ATOM      4  H   UNL     1       1.726   9.864  21.451  0.00  0.00    +0.000 HD
ENDROOT
BRANCH   1   9
ATOM      5  C   UNL     1       2.742   6.565  19.181  0.00  0.00    +0.000 A 
ATOM      6  C   UNL     1       3.359   6.849  17.961  0.00  0.00    +0.000 A 
ATOM      7  C   UNL     1       3.111   8.074  17.338  0.00  0.00    +0.000 A 
ATOM      8  C   UNL     1       2.224   8.989  17.917  0.00  0.00    +0.000 A 
ATOM      9  C   UNL     1       1.585   8.698  19.133  0.00  0.00    +0.000 A 
ATOM     10  C   UNL     1       1.868   7.486  19.775  0.00  0.00    +0.000 A 
BRANCH   5  11
ATOM     11  S   UNL     1       2.915   4.960  19.927  0.00  0.00    +0.000 S 
ATOM     12  O   UNL     1       2.318   5.021  21.242  0.00  0.00    +0.000 OA
ATOM     13  O   UNL     1       4.280   4.517  19.729  0.00  0.00    +0.000 OA
BRANCH  11  15
ATOM     14  C   UNL     1       0.858   3.232  19.677  0.00  0.00    +0.000 C 
ATOM     15  N   UNL     1       1.898   4.000  18.999  0.00  0.00    +0.000 NA
ATOM     16  H   UNL     1       1.644   4.465  18.127  0.00  0.00    +0.000 HD
ENDBRANCH  11  15
ENDBRANCH   5  11
ENDBRANCH   1   9
BRANCH   3  17
ATOM     17  C   UNL     1       0.105  11.085  21.646  0.00  0.00    +0.000 A 
ATOM     18  C   UNL     1      -0.704  10.438  22.593  0.00  0.00    +0.000 A 
ATOM     19  C   UNL     1      -1.622  11.156  23.349  0.00  0.00    +0.000 A 
ATOM     20  C   UNL     1      -1.723  12.527  23.166  0.00  0.00    +0.000 A 
ATOM     21  C   UNL     1      -0.926  13.170  22.209  0.00  0.00    +0.000 A 
ATOM     22  C   UNL     1      -0.008  12.475  21.392  0.00  0.00    +0.000 A 
BRANCH  22  23
ATOM     23  N   UNL     1       0.681  13.170  20.398  0.00  0.00    +0.000 N 
ATOM     24  C   UNL     1       2.145  13.272  20.400  0.00  0.00    +0.000 C 
ATOM     25  C   UNL     1       2.699  13.612  19.011  0.00  0.00    +0.000 C 
ATOM     26  C   UNL     1       2.086  14.922  18.600  0.00  0.00    +0.000 A 
ATOM     27  C   UNL     1       2.844  15.998  18.136  0.00  0.00    +0.000 A 
ATOM     28  C   UNL     1       2.216  17.212  17.860  0.00  0.00    +0.000 A 
ATOM     29  C   UNL     1       0.834  17.341  18.016  0.00  0.00    +0.000 A 
ATOM     30  C   UNL     1       0.074  16.262  18.467  0.00  0.00    +0.000 A 
ATOM     31  C   UNL     1       0.699  15.054  18.789  0.00  0.00    +0.000 A 
ATOM     32  C   UNL     1      -0.075  13.874  19.344  0.00  0.00    +0.000 C 
ENDBRANCH  22  23
ENDBRANCH   3  17
TORSDOF 5
ENDMDL
MODEL 7
REMARK VINA RESULT:      -7.6      4.654      8.763
REMARK  Name = 
REMARK  6 active torsions:
REMARK  status: ('A' for Active; 'I' for Inactive)
REMARK    1  A    between atoms: C_1  and  N_2
REMARK    2  A    between atoms: N_2  and  S_3
REMARK    3  A    between atoms: S_3  and  C_6
REMARK    4  A    between atoms: C_10  and  C_11
REMARK    5  A    between atoms: N_13  and  C_14
REMARK    6  A    between atoms: C_19  and  N_20
REMARK                            x       y       z     vdW  Elec       q    Type
REMARK                         _______ _______ _______ _____ _____    ______ ____
ROOT
ATOM      1  C   UNL     1      -2.182  13.884  20.805  0.00  0.00    +0.000 C 
ATOM      2  O   UNL     1      -1.595  14.201  21.833  0.00  0.00    +0.000 OA
ATOM      3  N   UNL     1      -1.663  13.976  19.525  0.00  0.00    +0.000 N 
ATOM      4  H   UNL     1      -2.141  13.567  18.739  0.00  0.00    +0.000 HD
ENDROOT
BRANCH   1   9
ATOM      5  C   UNL     1      -5.489  12.186  19.947  0.00  0.00    +0.000 A 
ATOM      6  C   UNL     1      -6.166  12.265  21.167  0.00  0.00    +0.000 A 
ATOM      7  C   UNL     1      -5.559  12.911  22.245  0.00  0.00    +0.000 A 
ATOM      8  C   UNL     1      -4.270  13.442  22.110  0.00  0.00    +0.000 A 
ATOM      9  C   UNL     1      -3.579  13.345  20.892  0.00  0.00    +0.000 A 
ATOM     10  C   UNL     1      -4.207  12.733  19.801  0.00  0.00    +0.000 A 
BRANCH   5  11
ATOM     11  S   UNL     1      -6.166  11.242  18.601  0.00  0.00    +0.000 S 
ATOM     12  O   UNL     1      -5.143  10.323  18.154  0.00  0.00    +0.000 OA
ATOM     13  O   UNL     1      -6.817  12.160  17.689  0.00  0.00    +0.000 OA
BRANCH  11  15
ATOM     14  C   UNL     1      -7.033   8.904  19.631  0.00  0.00    +0.000 C 
ATOM     15  N   UNL     1      -7.339  10.303  19.349  0.00  0.00    +0.000 NA
ATOM     16  H   UNL     1      -7.830  10.831  20.071  0.00  0.00    +0.000 HD
ENDBRANCH  11  15
ENDBRANCH   5  11
ENDBRANCH   1   9
BRANCH   3  17
ATOM     17  C   UNL     1      -0.335  14.356  19.261  0.00  0.00    +0.000 A 
ATOM     18  C   UNL     1      -0.181  15.689  18.849  0.00  0.00    +0.000 A 
ATOM     19  C   UNL     1       1.070  16.185  18.510  0.00  0.00    +0.000 A 
ATOM     20  C   UNL     1       2.175  15.352  18.596  0.00  0.00    +0.000 A 
ATOM     21  C   UNL     1       2.020  14.017  18.993  0.00  0.00    +0.000 A 
ATOM     22  C   UNL     1       0.761  13.459  19.310  0.00  0.00    +0.000 A 
BRANCH  22  23
ATOM     23  N   UNL     1       0.675  12.098  19.605  0.00  0.00    +0.000 N 
ATOM     24  C   UNL     1       0.781  11.598  20.981  0.00  0.00    +0.000 C 
ATOM     25  C   UNL     1       0.168  10.201  21.133  0.00  0.00    +0.000 C 
ATOM     26  C   UNL     1       0.904   9.290  20.191  0.00  0.00    +0.000 A 
ATOM     27  C   UNL     1       1.451   8.070  20.591  0.00  0.00    +0.000 A 
ATOM     28  C   UNL     1       2.199   7.322  19.683  0.00  0.00    +0.000 A 
ATOM     29  C   UNL     1       2.374   7.775  18.374  0.00  0.00    +0.000 A 
ATOM     30  C   UNL     1       1.817   8.987  17.968  0.00  0.00    +0.000 A 
ATOM     31  C   UNL     1       1.102   9.767  18.882  0.00  0.00    +0.000 A 
ATOM     32  C   UNL     1       0.533  11.121  18.507  0.00  0.00    +0.000 C 
ENDBRANCH  22  23
ENDBRANCH   3  17
TORSDOF 5
ENDMDL
MODEL 8
REMARK VINA RESULT:      -7.5      3.739      8.942
REMARK  Name = 
REMARK  6 active torsions:
REMARK  status: ('A' for Active; 'I' for Inactive)
REMARK    1  A    between atoms: C_1  and  N_2
REMARK    2  A    between atoms: N_2  and  S_3
REMARK    3  A    between atoms: S_3  and  C_6
REMARK    4  A    between atoms: C_10  and  C_11
REMARK    5  A    between atoms: N_13  and  C_14
REMARK    6  A    between atoms: C_19  and  N_20
REMARK                            x       y       z     vdW  Elec       q    Type
REMARK                         _______ _______ _______ _____ _____    ______ ____
ROOT
ATOM      1  C   UNL     1       0.719  10.105  21.235  0.00  0.00    +0.000 C 
ATOM      2  O   UNL     1       1.157  10.010  22.375  0.00  0.00    +0.000 OA
ATOM      3  N   UNL     1      -0.285  10.969  20.831  0.00  0.00    +0.000 N 
ATOM      4  H   UNL     1      -0.498  11.099  19.856  0.00  0.00    +0.000 HD
ENDROOT
BRANCH   1   9
ATOM      5  C   UNL     1       2.218   7.139  19.360  0.00  0.00    +0.000 A 
ATOM      6  C   UNL     1       2.245   7.624  18.051  0.00  0.00    +0.000 A 
ATOM      7  C   UNL     1       1.820   8.929  17.796  0.00  0.00    +0.000 A 
ATOM      8  C   UNL     1       1.337   9.726  18.841  0.00  0.00    +0.000 A 
ATOM      9  C   UNL     1       1.287   9.235  20.154  0.00  0.00    +0.000 A 
ATOM     10  C   UNL     1       1.754   7.940  20.413  0.00  0.00    +0.000 A 
BRANCH   5  11
ATOM     11  S   UNL     1       2.609   5.438  19.700  0.00  0.00    +0.000 S 
ATOM     12  O   UNL     1       1.802   5.019  20.824  0.00  0.00    +0.000 OA
ATOM     13  O   UNL     1       4.051   5.299  19.703  0.00  0.00    +0.000 OA
BRANCH  11  15
ATOM     14  C   UNL     1       2.895   3.793  17.580  0.00  0.00    +0.000 C 
ATOM     15  N   UNL     1       1.993   4.634  18.361  0.00  0.00    +0.000 NA
ATOM     16  H   UNL     1       1.056   4.274  18.544  0.00  0.00    +0.000 HD
ENDBRANCH  11  15
ENDBRANCH   5  11
ENDBRANCH   1   9
BRANCH   3  17
ATOM     17  C   UNL     1      -0.856  11.931  21.682  0.00  0.00    +0.000 A 
ATOM     18  C   UNL     1      -1.723  11.407  22.654  0.00  0.00    +0.000 A 
ATOM     19  C   UNL     1      -2.393  12.248  23.532  0.00  0.00    +0.000 A 
ATOM     20  C   UNL     1      -2.188  13.617  23.448  0.00  0.00    +0.000 A 
ATOM     21  C   UNL     1      -1.334  14.141  22.469  0.00  0.00    +0.000 A 
ATOM     22  C   UNL     1      -0.662  13.327  21.531  0.00  0.00    +0.000 A 
BRANCH  22  23
ATOM     23  N   UNL     1       0.096  13.930  20.526  0.00  0.00    +0.000 N 
ATOM     24  C   UNL     1       1.551  14.085  20.644  0.00  0.00    +0.000 C 
ATOM     25  C   UNL     1       2.220  14.285  19.279  0.00  0.00    +0.000 C 
ATOM     26  C   UNL     1       1.613  15.517  18.667  0.00  0.00    +0.000 A 
ATOM     27  C   UNL     1       2.382  16.560  18.149  0.00  0.00    +0.000 A 
ATOM     28  C   UNL     1       1.751  17.711  17.680  0.00  0.00    +0.000 A 
ATOM     29  C   UNL     1       0.358  17.807  17.699  0.00  0.00    +0.000 A 
ATOM     30  C   UNL     1      -0.413  16.759  18.204  0.00  0.00    +0.000 A 
ATOM     31  C   UNL     1       0.212  15.619  18.718  0.00  0.00    +0.000 A 
ATOM     32  C   UNL     1      -0.579  14.483  19.336  0.00  0.00    +0.000 C 
ENDBRANCH  22  23
ENDBRANCH   3  17
TORSDOF 5
ENDMDL
MODEL 9
REMARK VINA RESULT:      -7.5      3.353      8.399
REMARK  Name = 
REMARK  6 active torsions:
REMARK  status: ('A' for Active; 'I' for Inactive)
REMARK    1  A    between atoms: C_1  and  N_2
REMARK    2  A    between atoms: N_2  and  S_3
REMARK    3  A    between atoms: S_3  and  C_6
REMARK    4  A    between atoms: C_10  and  C_11
REMARK    5  A    between atoms: N_13  and  C_14
REMARK    6  A    between atoms: C_19  and  N_20
REMARK                            x       y       z     vdW  Elec       q    Type
REMARK                         _______ _______ _______ _____ _____    ______ ____
ROOT
ATOM      1  C   UNL     1       0.591   9.743  19.697  0.00  0.00    +0.000 C 
ATOM      2  O   UNL     1      -0.382  10.071  19.029  0.00  0.00    +0.000 OA
ATOM      3  N   UNL     1       0.908  10.240  20.950  0.00  0.00    +0.000 N 
ATOM      4  H   UNL     1       1.640   9.826  21.504  0.00  0.00    +0.000 HD
ENDROOT
BRANCH   1   9
ATOM      5  C   UNL     1       2.545   6.509  19.165  0.00  0.00    +0.000 A 
ATOM      6  C   UNL     1       3.277   6.813  18.015  0.00  0.00    +0.000 A 
ATOM      7  C   UNL     1       3.164   8.085  17.449  0.00  0.00    +0.000 A 
ATOM      8  C   UNL     1       2.297   9.029  18.012  0.00  0.00    +0.000 A 
ATOM      9  C   UNL     1       1.543   8.719  19.155  0.00  0.00    +0.000 A 
ATOM     10  C   UNL     1       1.691   7.457  19.744  0.00  0.00    +0.000 A 
BRANCH   5  11
ATOM     11  S   UNL     1       2.548   4.857  19.824  0.00  0.00    +0.000 S 
ATOM     12  O   UNL     1       1.687   4.051  18.988  0.00  0.00    +0.000 OA
ATOM     13  O   UNL     1       2.355   4.944  21.257  0.00  0.00    +0.000 OA
BRANCH  11  15
ATOM     14  C   UNL     1       4.395   2.903  19.606  0.00  0.00    +0.000 C 
ATOM     15  N   UNL     1       4.113   4.333  19.522  0.00  0.00    +0.000 NA
ATOM     16  H   UNL     1       4.535   4.849  18.750  0.00  0.00    +0.000 HD
ENDBRANCH  11  15
ENDBRANCH   5  11
ENDBRANCH   1   9
BRANCH   3  17
ATOM     17  C   UNL     1       0.074  11.123  21.658  0.00  0.00    +0.000 A 
ATOM     18  C   UNL     1      -0.750  10.506  22.612  0.00  0.00    +0.000 A 
ATOM     19  C   UNL     1      -1.657  11.253  23.352  0.00  0.00    +0.000 A 
ATOM     20  C   UNL     1      -1.733  12.622  23.148  0.00  0.00    +0.000 A 
ATOM     21  C   UNL     1      -0.920  13.236  22.185  0.00  0.00    +0.000 A 
ATOM     22  C   UNL     1      -0.011  12.511  21.383  0.00  0.00    +0.000 A 
BRANCH  22  23
ATOM     23  N   UNL     1       0.694  13.178  20.381  0.00  0.00    +0.000 N 
ATOM     24  C   UNL     1       2.161  13.228  20.371  0.00  0.00    +0.000 C 
ATOM     25  C   UNL     1       2.715  13.544  18.977  0.00  0.00    +0.000 C 
ATOM     26  C   UNL     1       2.147  14.874  18.567  0.00  0.00    +0.000 A 
ATOM     27  C   UNL     1       2.940  15.921  18.094  0.00  0.00    +0.000 A 
ATOM     28  C   UNL     1       2.354  17.156  17.820  0.00  0.00    +0.000 A 
ATOM     29  C   UNL     1       0.979  17.336  17.987  0.00  0.00    +0.000 A 
ATOM     30  C   UNL     1       0.184  16.286  18.447  0.00  0.00    +0.000 A 
ATOM     31  C   UNL     1       0.767  15.057  18.768  0.00  0.00    +0.000 A 
ATOM     32  C   UNL     1      -0.045  13.908  19.332  0.00  0.00    +0.000 C 
ENDBRANCH  22  23
ENDBRANCH   3  17
TORSDOF 5
ENDMDL
