MODEL 1
REMARK VINA RESULT:      -8.4      0.000      0.000
REMARK  Name = 
REMARK  3 active torsions:
REMARK  status: ('A' for Active; 'I' for Inactive)
REMARK    1  A    between atoms: C_2  and  C_3
REMARK    2  A    between atoms: C_3  and  C_4
REMARK    3  A    between atoms: C_4  and  N_5
REMARK                            x       y       z     vdW  Elec       q    Type
REMARK                         _______ _______ _______ _____ _____    ______ ____
ROOT
ATOM      1  O   UNL     1       1.463   9.607  22.806  0.00  0.00    +0.000 OA
ATOM      2  C   UNL     1       0.730   9.685  21.818  0.00  0.00    +0.000 C 
ATOM      3  N   UNL     1      -0.001  10.831  21.624  0.00  0.00    +0.000 N 
ATOM      4  C   UNL     1      -0.868  11.123  20.566  0.00  0.00    +0.000 A 
ATOM      5  C   UNL     1      -1.796  12.138  20.734  0.00  0.00    +0.000 A 
ATOM      6  C   UNL     1      -2.745  12.343  19.733  0.00  0.00    +0.000 A 
ATOM      7  C   UNL     1      -2.728  11.548  18.578  0.00  0.00    +0.000 A 
ATOM      8  C   UNL     1      -3.675  11.680  17.547  0.00  0.00    +0.000 A 
ATOM      9  C   UNL     1      -3.611  10.858  16.421  0.00  0.00    +0.000 A 
ATOM     10  C   UNL     1      -2.608   9.900  16.321  0.00  0.00    +0.000 A 
ATOM     11  C   UNL     1      -1.673   9.770  17.348  0.00  0.00    +0.000 A 
ATOM     12  C   UNL     1      -1.716  10.576  18.476  0.00  0.00    +0.000 A 
ATOM     13  N   UNL     1      -0.804  10.395  19.438  0.00  0.00    +0.000 NA
ATOM     14  H   UNL     1       0.056  11.484  22.392  0.00  0.00    +0.000 HD
ENDROOT
BRANCH   2  15
ATOM     15  C   UNL     1       0.609   8.551  20.827  0.00  0.00    +0.000 C 
BRANCH  15  16
ATOM     16  C   UNL     1       1.925   8.199  20.149  0.00  0.00    +0.000 C 
BRANCH  16  17
ATOM     17  N   UNL     1       1.987   6.760  19.884  0.00  0.00    +0.000 N 
ATOM     18  C   UNL     1       1.508   5.879  20.823  0.00  0.00    +0.000 A 
ATOM     19  N   UNL     1       1.538   4.593  20.718  0.00  0.00    +0.000 NA
ATOM     20  C   UNL     1       2.097   4.052  19.551  0.00  0.00    +0.000 A 
ATOM     21  C   UNL     1       2.051   2.668  19.362  0.00  0.00    +0.000 A 
ATOM     22  C   UNL     1       2.594   2.087  18.212  0.00  0.00    +0.000 A 
ATOM     23  C   UNL     1       3.212   2.888  17.251  0.00  0.00    +0.000 A 
ATOM     24  C   UNL     1       3.270   4.269  17.430  0.00  0.00    +0.000 A 
ATOM     25  C   UNL     1       2.696   4.843  18.571  0.00  0.00    +0.000 A 
ATOM     26  C   UNL     1       2.667   6.307  18.759  0.00  0.00    +0.000 A 
ATOM     27  O   UNL     1       3.232   7.041  17.951  0.00  0.00    +0.000 OA
ENDBRANCH  16  17
ENDBRANCH  15  16
ENDBRANCH   2  15
TORSDOF 3
ENDMDL
MODEL 2
REMARK VINA RESULT:      -8.4      3.802      6.435
REMARK  Name = 
REMARK  3 active torsions:
REMARK  status: ('A' for Active; 'I' for Inactive)
REMARK    1  A    between atoms: C_2  and  C_3
REMARK    2  A    between atoms: C_3  and  C_4
REMARK    3  A    between atoms: C_4  and  N_5
REMARK                            x       y       z     vdW  Elec       q    Type
REMARK                         _______ _______ _______ _____ _____    ______ ____
ROOT
ATOM      1  O   UNL     1       3.492   1.690  18.283  0.00  0.00    +0.000 OA
ATOM      2  C   UNL     1       3.208   2.890  18.279  0.00  0.00    +0.000 C 
ATOM      3  N   UNL     1       2.869   3.495  19.463  0.00  0.00    +0.000 N 
ATOM      4  C   UNL     1       2.536   4.838  19.673  0.00  0.00    +0.000 A 
ATOM      5  C   UNL     1       1.858   5.176  20.832  0.00  0.00    +0.000 A 
ATOM      6  C   UNL     1       1.412   6.489  20.982  0.00  0.00    +0.000 A 
ATOM      7  C   UNL     1       1.677   7.437  19.984  0.00  0.00    +0.000 A 
ATOM      8  C   UNL     1       1.228   8.768  20.056  0.00  0.00    +0.000 A 
ATOM      9  C   UNL     1       1.519   9.667  19.030  0.00  0.00    +0.000 A 
ATOM     10  C   UNL     1       2.254   9.244  17.928  0.00  0.00    +0.000 A 
ATOM     11  C   UNL     1       2.694   7.922  17.858  0.00  0.00    +0.000 A 
ATOM     12  C   UNL     1       2.418   7.010  18.866  0.00  0.00    +0.000 A 
ATOM     13  N   UNL     1       2.849   5.751  18.737  0.00  0.00    +0.000 NA
ATOM     14  H   UNL     1       2.781   2.852  20.238  0.00  0.00    +0.000 HD
ENDROOT
BRANCH   2  15
ATOM     15  C   UNL     1       3.215   3.704  17.005  0.00  0.00    +0.000 C 
BRANCH  15  16
ATOM     16  C   UNL     1       4.553   3.680  16.281  0.00  0.00    +0.000 C 
BRANCH  16  17
ATOM     17  N   UNL     1       5.515   4.540  16.973  0.00  0.00    +0.000 N 
ATOM     18  C   UNL     1       6.167   4.067  18.086  0.00  0.00    +0.000 A 
ATOM     19  N   UNL     1       7.008   4.740  18.797  0.00  0.00    +0.000 NA
ATOM     20  C   UNL     1       7.283   6.056  18.400  0.00  0.00    +0.000 A 
ATOM     21  C   UNL     1       8.265   6.775  19.086  0.00  0.00    +0.000 A 
ATOM     22  C   UNL     1       8.572   8.090  18.722  0.00  0.00    +0.000 A 
ATOM     23  C   UNL     1       7.878   8.705  17.680  0.00  0.00    +0.000 A 
ATOM     24  C   UNL     1       6.893   8.001  16.989  0.00  0.00    +0.000 A 
ATOM     25  C   UNL     1       6.615   6.675  17.343  0.00  0.00    +0.000 A 
ATOM     26  C   UNL     1       5.635   5.870  16.586  0.00  0.00    +0.000 A 
ATOM     27  O   UNL     1       4.981   6.389  15.685  0.00  0.00    +0.000 OA
ENDBRANCH  16  17
ENDBRANCH  15  16
ENDBRANCH   2  15
TORSDOF 3
ENDMDL
MODEL 3
REMARK VINA RESULT:      -8.4      3.861      6.378
REMARK  Name = 
REMARK  3 active torsions:
REMARK  status: ('A' for Active; 'I' for Inactive)
REMARK    1  A    between atoms: C_2  and  C_3
REMARK    2  A    between atoms: C_3  and  C_4
REMARK    3  A    between atoms: C_4  and  N_5
REMARK                            x       y       z     vdW  Elec       q    Type
REMARK                         _______ _______ _______ _____ _____    ______ ____
ROOT
ATOM      1  O   UNL     1       2.779   1.614  18.569  0.00  0.00    +0.000 OA
ATOM      2  C   UNL     1       2.632   2.837  18.509  0.00  0.00    +0.000 C 
ATOM      3  N   UNL     1       2.355   3.530  19.661  0.00  0.00    +0.000 N 
ATOM      4  C   UNL     1       2.175   4.909  19.808  0.00  0.00    +0.000 A 
ATOM      5  C   UNL     1       1.531   5.373  20.943  0.00  0.00    +0.000 A 
ATOM      6  C   UNL     1       1.235   6.733  21.030  0.00  0.00    +0.000 A 
ATOM      7  C   UNL     1       1.612   7.599  19.994  0.00  0.00    +0.000 A 
ATOM      8  C   UNL     1       1.314   8.974  20.001  0.00  0.00    +0.000 A 
ATOM      9  C   UNL     1       1.712   9.788  18.940  0.00  0.00    +0.000 A 
ATOM     10  C   UNL     1       2.402   9.235  17.867  0.00  0.00    +0.000 A 
ATOM     11  C   UNL     1       2.691   7.870  17.861  0.00  0.00    +0.000 A 
ATOM     12  C   UNL     1       2.307   7.042  18.904  0.00  0.00    +0.000 A 
ATOM     13  N   UNL     1       2.595   5.738  18.836  0.00  0.00    +0.000 NA
ATOM     14  H   UNL     1       2.191   2.936  20.462  0.00  0.00    +0.000 HD
ENDROOT
BRANCH   2  15
ATOM     15  C   UNL     1       2.739   3.586  17.201  0.00  0.00    +0.000 C 
BRANCH  15  16
ATOM     16  C   UNL     1       4.061   3.358  16.481  0.00  0.00    +0.000 C 
BRANCH  16  17
ATOM     17  N   UNL     1       4.963   4.487  16.717  0.00  0.00    +0.000 N 
ATOM     18  C   UNL     1       5.073   5.474  15.767  0.00  0.00    +0.000 A 
ATOM     19  N   UNL     1       5.857   6.496  15.847  0.00  0.00    +0.000 NA
ATOM     20  C   UNL     1       6.654   6.614  16.994  0.00  0.00    +0.000 A 
ATOM     21  C   UNL     1       7.436   7.760  17.156  0.00  0.00    +0.000 A 
ATOM     22  C   UNL     1       8.244   7.919  18.286  0.00  0.00    +0.000 A 
ATOM     23  C   UNL     1       8.295   6.914  19.253  0.00  0.00    +0.000 A 
ATOM     24  C   UNL     1       7.525   5.762  19.101  0.00  0.00    +0.000 A 
ATOM     25  C   UNL     1       6.696   5.629  17.981  0.00  0.00    +0.000 A 
ATOM     26  C   UNL     1       5.806   4.461  17.822  0.00  0.00    +0.000 A 
ATOM     27  O   UNL     1       5.850   3.541  18.636  0.00  0.00    +0.000 OA
ENDBRANCH  16  17
ENDBRANCH  15  16
ENDBRANCH   2  15
TORSDOF 3
ENDMDL
MODEL 4
REMARK VINA RESULT:      -8.3      1.521      2.267
REMARK  Name = 
REMARK  3 active torsions:
REMARK  status: ('A' for Active; 'I' for Inactive)
REMARK    1  A    between atoms: C_2  and  C_3
REMARK    2  A    between atoms: C_3  and  C_4
REMARK    3  A    between atoms: C_4  and  N_5
REMARK                            x       y       z     vdW  Elec       q    Type
REMARK                         _______ _______ _______ _____ _____    ______ ____
ROOT
ATOM      1  O   UNL     1       1.733   9.388  22.563  0.00  0.00    +0.000 OA
ATOM      2  C   UNL     1       0.947   9.513  21.622  0.00  0.00    +0.000 C 
ATOM      3  N   UNL     1       0.227  10.676  21.508  0.00  0.00    +0.000 N 
ATOM      4  C   UNL     1      -0.692  11.019  20.511  0.00  0.00    +0.000 A 
ATOM      5  C   UNL     1      -1.590  12.043  20.765  0.00  0.00    +0.000 A 
ATOM      6  C   UNL     1      -2.590  12.299  19.827  0.00  0.00    +0.000 A 
ATOM      7  C   UNL     1      -2.652  11.544  18.647  0.00  0.00    +0.000 A 
ATOM      8  C   UNL     1      -3.653  11.727  17.676  0.00  0.00    +0.000 A 
ATOM      9  C   UNL     1      -3.667  10.944  16.521  0.00  0.00    +0.000 A 
ATOM     10  C   UNL     1      -2.689   9.974  16.333  0.00  0.00    +0.000 A 
ATOM     11  C   UNL     1      -1.701   9.792  17.300  0.00  0.00    +0.000 A 
ATOM     12  C   UNL     1      -1.665  10.560  18.455  0.00  0.00    +0.000 A 
ATOM     13  N   UNL     1      -0.705  10.329  19.357  0.00  0.00    +0.000 NA
ATOM     14  H   UNL     1       0.339  11.302  22.293  0.00  0.00    +0.000 HD
ENDROOT
BRANCH   2  15
ATOM     15  C   UNL     1       0.749   8.415  20.601  0.00  0.00    +0.000 C 
BRANCH  15  16
ATOM     16  C   UNL     1       1.651   7.211  20.829  0.00  0.00    +0.000 C 
BRANCH  16  17
ATOM     17  N   UNL     1       2.502   6.991  19.658  0.00  0.00    +0.000 N 
ATOM     18  C   UNL     1       2.504   7.914  18.640  0.00  0.00    +0.000 A 
ATOM     19  N   UNL     1       3.184   7.814  17.548  0.00  0.00    +0.000 NA
ATOM     20  C   UNL     1       3.988   6.677  17.387  0.00  0.00    +0.000 A 
ATOM     21  C   UNL     1       4.814   6.589  16.264  0.00  0.00    +0.000 A 
ATOM     22  C   UNL     1       5.634   5.474  16.066  0.00  0.00    +0.000 A 
ATOM     23  C   UNL     1       5.614   4.423  16.984  0.00  0.00    +0.000 A 
ATOM     24  C   UNL     1       4.791   4.495  18.106  0.00  0.00    +0.000 A 
ATOM     25  C   UNL     1       3.998   5.631  18.310  0.00  0.00    +0.000 A 
ATOM     26  C   UNL     1       3.172   5.780  19.525  0.00  0.00    +0.000 A 
ATOM     27  O   UNL     1       3.104   4.860  20.337  0.00  0.00    +0.000 OA
ENDBRANCH  16  17
ENDBRANCH  15  16
ENDBRANCH   2  15
TORSDOF 3
ENDMDL
MODEL 5
REMARK VINA RESULT:      -8.3      3.381      5.544
REMARK  Name = 
REMARK  3 active torsions:
REMARK  status: ('A' for Active; 'I' for Inactive)
REMARK    1  A    between atoms: C_2  and  C_3
REMARK    2  A    between atoms: C_3  and  C_4
REMARK    3  A    between atoms: C_4  and  N_5
REMARK                            x       y       z     vdW  Elec       q    Type
REMARK                         _______ _______ _______ _____ _____    ______ ____
ROOT
ATOM      1  O   UNL     1       2.038   2.586  20.155  0.00  0.00    +0.000 OA
ATOM      2  C   UNL     1       1.957   3.762  19.796  0.00  0.00    +0.000 C 
ATOM      3  N   UNL     1       1.799   4.738  20.747  0.00  0.00    +0.000 N 
ATOM      4  C   UNL     1       1.708   6.120  20.549  0.00  0.00    +0.000 A 
ATOM      5  C   UNL     1       1.170   6.897  21.561  0.00  0.00    +0.000 A 
ATOM      6  C   UNL     1       0.958   8.254  21.316  0.00  0.00    +0.000 A 
ATOM      7  C   UNL     1       1.312   8.805  20.077  0.00  0.00    +0.000 A 
ATOM      8  C   UNL     1       1.095  10.156  19.752  0.00  0.00    +0.000 A 
ATOM      9  C   UNL     1       1.465  10.649  18.500  0.00  0.00    +0.000 A 
ATOM     10  C   UNL     1       2.047   9.798  17.567  0.00  0.00    +0.000 A 
ATOM     11  C   UNL     1       2.257   8.457  17.892  0.00  0.00    +0.000 A 
ATOM     12  C   UNL     1       1.899   7.945  19.130  0.00  0.00    +0.000 A 
ATOM     13  N   UNL     1       2.107   6.648  19.379  0.00  0.00    +0.000 NA
ATOM     14  H   UNL     1       1.656   4.376  21.680  0.00  0.00    +0.000 HD
ENDROOT
BRANCH   2  15
ATOM     15  C   UNL     1       2.017   4.152  18.336  0.00  0.00    +0.000 C 
BRANCH  15  16
ATOM     16  C   UNL     1       3.242   3.607  17.616  0.00  0.00    +0.000 C 
BRANCH  16  17
ATOM     17  N   UNL     1       4.301   4.618  17.590  0.00  0.00    +0.000 N 
ATOM     18  C   UNL     1       4.319   5.553  16.584  0.00  0.00    +0.000 A 
ATOM     19  N   UNL     1       5.216   6.469  16.437  0.00  0.00    +0.000 NA
ATOM     20  C   UNL     1       6.252   6.518  17.380  0.00  0.00    +0.000 A 
ATOM     21  C   UNL     1       7.180   7.559  17.308  0.00  0.00    +0.000 A 
ATOM     22  C   UNL     1       8.228   7.647  18.230  0.00  0.00    +0.000 A 
ATOM     23  C   UNL     1       8.368   6.674  19.220  0.00  0.00    +0.000 A 
ATOM     24  C   UNL     1       7.453   5.627  19.301  0.00  0.00    +0.000 A 
ATOM     25  C   UNL     1       6.390   5.566  18.391  0.00  0.00    +0.000 A 
ATOM     26  C   UNL     1       5.355   4.517  18.491  0.00  0.00    +0.000 A 
ATOM     27  O   UNL     1       5.466   3.625  19.329  0.00  0.00    +0.000 OA
ENDBRANCH  16  17
ENDBRANCH  15  16
ENDBRANCH   2  15
TORSDOF 3
ENDMDL
MODEL 6
REMARK VINA RESULT:      -8.3      2.785      7.951
REMARK  Name = 
REMARK  3 active torsions:
REMARK  status: ('A' for Active; 'I' for Inactive)
REMARK    1  A    between atoms: C_2  and  C_3
REMARK    2  A    between atoms: C_3  and  C_4
REMARK    3  A    between atoms: C_4  and  N_5
REMARK                            x       y       z     vdW  Elec       q    Type
REMARK                         _______ _______ _______ _____ _____    ______ ____
ROOT
ATOM      1  O   UNL     1       5.323   7.073  15.774  0.00  0.00    +0.000 OA
ATOM      2  C   UNL     1       4.730   6.464  16.667  0.00  0.00    +0.000 C 
ATOM      3  N   UNL     1       4.604   5.101  16.571  0.00  0.00    +0.000 N 
ATOM      4  C   UNL     1       3.990   4.232  17.479  0.00  0.00    +0.000 A 
ATOM      5  C   UNL     1       3.622   2.971  17.040  0.00  0.00    +0.000 A 
ATOM      6  C   UNL     1       2.894   2.152  17.904  0.00  0.00    +0.000 A 
ATOM      7  C   UNL     1       2.576   2.603  19.192  0.00  0.00    +0.000 A 
ATOM      8  C   UNL     1       1.817   1.843  20.101  0.00  0.00    +0.000 A 
ATOM      9  C   UNL     1       1.527   2.344  21.371  0.00  0.00    +0.000 A 
ATOM     10  C   UNL     1       1.987   3.604  21.737  0.00  0.00    +0.000 A 
ATOM     11  C   UNL     1       2.736   4.356  20.832  0.00  0.00    +0.000 A 
ATOM     12  C   UNL     1       3.038   3.879  19.565  0.00  0.00    +0.000 A 
ATOM     13  N   UNL     1       3.743   4.651  18.732  0.00  0.00    +0.000 NA
ATOM     14  H   UNL     1       4.934   4.723  15.693  0.00  0.00    +0.000 HD
ENDROOT
BRANCH   2  15
ATOM     15  C   UNL     1       4.130   7.182  17.855  0.00  0.00    +0.000 C 
BRANCH  15  16
ATOM     16  C   UNL     1       2.877   7.975  17.509  0.00  0.00    +0.000 C 
BRANCH  16  17
ATOM     17  N   UNL     1       2.177   8.369  18.733  0.00  0.00    +0.000 N 
ATOM     18  C   UNL     1       2.067   7.472  19.768  0.00  0.00    +0.000 A 
ATOM     19  N   UNL     1       1.448   7.691  20.878  0.00  0.00    +0.000 NA
ATOM     20  C   UNL     1       0.844   8.945  21.046  0.00  0.00    +0.000 A 
ATOM     21  C   UNL     1       0.255   9.249  22.276  0.00  0.00    +0.000 A 
ATOM     22  C   UNL     1      -0.356  10.489  22.487  0.00  0.00    +0.000 A 
ATOM     23  C   UNL     1      -0.405  11.427  21.455  0.00  0.00    +0.000 A 
ATOM     24  C   UNL     1       0.174  11.135  20.222  0.00  0.00    +0.000 A 
ATOM     25  C   UNL     1       0.811   9.902  20.032  0.00  0.00    +0.000 A 
ATOM     26  C   UNL     1       1.503   9.585  18.767  0.00  0.00    +0.000 A 
ATOM     27  O   UNL     1       1.452  10.373  17.826  0.00  0.00    +0.000 OA
ENDBRANCH  16  17
ENDBRANCH  15  16
ENDBRANCH   2  15
TORSDOF 3
ENDMDL
MODEL 7
REMARK VINA RESULT:      -8.3      1.147      1.711
REMARK  Name = 
REMARK  3 active torsions:
REMARK  status: ('A' for Active; 'I' for Inactive)
REMARK    1  A    between atoms: C_2  and  C_3
REMARK    2  A    between atoms: C_3  and  C_4
REMARK    3  A    between atoms: C_4  and  N_5
REMARK                            x       y       z     vdW  Elec       q    Type
REMARK                         _______ _______ _______ _____ _____    ______ ____
ROOT
ATOM      1  O   UNL     1       1.806   9.708  22.576  0.00  0.00    +0.000 OA
ATOM      2  C   UNL     1       1.013   9.792  21.636  0.00  0.00    +0.000 C 
ATOM      3  N   UNL     1       0.195  10.891  21.554  0.00  0.00    +0.000 N 
ATOM      4  C   UNL     1      -0.750  11.182  20.564  0.00  0.00    +0.000 A 
ATOM      5  C   UNL     1      -1.734  12.116  20.846  0.00  0.00    +0.000 A 
ATOM      6  C   UNL     1      -2.751  12.312  19.912  0.00  0.00    +0.000 A 
ATOM      7  C   UNL     1      -2.746  11.591  18.709  0.00  0.00    +0.000 A 
ATOM      8  C   UNL     1      -3.758  11.715  17.740  0.00  0.00    +0.000 A 
ATOM      9  C   UNL     1      -3.702  10.968  16.562  0.00  0.00    +0.000 A 
ATOM     10  C   UNL     1      -2.643  10.094  16.349  0.00  0.00    +0.000 A 
ATOM     11  C   UNL     1      -1.643   9.970  17.314  0.00  0.00    +0.000 A 
ATOM     12  C   UNL     1      -1.677  10.702  18.491  0.00  0.00    +0.000 A 
ATOM     13  N   UNL     1      -0.701  10.530  19.390  0.00  0.00    +0.000 NA
ATOM     14  H   UNL     1       0.251  11.500  22.358  0.00  0.00    +0.000 HD
ENDROOT
BRANCH   2  15
ATOM     15  C   UNL     1       0.913   8.713  20.581  0.00  0.00    +0.000 C 
BRANCH  15  16
ATOM     16  C   UNL     1       1.292   7.332  21.096  0.00  0.00    +0.000 C 
BRANCH  16  17
ATOM     17  N   UNL     1       2.029   6.596  20.067  0.00  0.00    +0.000 N 
ATOM     18  C   UNL     1       2.626   7.286  19.039  0.00  0.00    +0.000 A 
ATOM     19  N   UNL     1       3.272   6.748  18.060  0.00  0.00    +0.000 NA
ATOM     20  C   UNL     1       3.379   5.350  18.045  0.00  0.00    +0.000 A 
ATOM     21  C   UNL     1       4.158   4.744  17.056  0.00  0.00    +0.000 A 
ATOM     22  C   UNL     1       4.293   3.354  17.006  0.00  0.00    +0.000 A 
ATOM     23  C   UNL     1       3.626   2.554  17.935  0.00  0.00    +0.000 A 
ATOM     24  C   UNL     1       2.841   3.145  18.924  0.00  0.00    +0.000 A 
ATOM     25  C   UNL     1       2.738   4.540  18.983  0.00  0.00    +0.000 A 
ATOM     26  C   UNL     1       1.980   5.206  20.061  0.00  0.00    +0.000 A 
ATOM     27  O   UNL     1       1.352   4.534  20.876  0.00  0.00    +0.000 OA
ENDBRANCH  16  17
ENDBRANCH  15  16
ENDBRANCH   2  15
TORSDOF 3
ENDMDL
MODEL 8
REMARK VINA RESULT:      -8.1      1.801      8.238
REMARK  Name = 
REMARK  3 active torsions:
REMARK  status: ('A' for Active; 'I' for Inactive)
REMARK    1  A    between atoms: C_2  and  C_3
REMARK    2  A    between atoms: C_3  and  C_4
REMARK    3  A    between atoms: C_4  and  N_5
REMARK                            x       y       z     vdW  Elec       q    Type
REMARK                         _______ _______ _______ _____ _____    ______ ____
ROOT
ATOM      1  O   UNL     1       2.488  10.284  17.514  0.00  0.00    +0.000 OA
ATOM      2  C   UNL     1       2.288   9.150  17.955  0.00  0.00    +0.000 C 
ATOM      3  N   UNL     1       3.194   8.159  17.672  0.00  0.00    +0.000 N 
ATOM      4  C   UNL     1       3.160   6.824  18.091  0.00  0.00    +0.000 A 
ATOM      5  C   UNL     1       3.926   5.898  17.403  0.00  0.00    +0.000 A 
ATOM      6  C   UNL     1       3.795   4.549  17.735  0.00  0.00    +0.000 A 
ATOM      7  C   UNL     1       2.922   4.163  18.761  0.00  0.00    +0.000 A 
ATOM      8  C   UNL     1       2.716   2.819  19.123  0.00  0.00    +0.000 A 
ATOM      9  C   UNL     1       1.831   2.493  20.151  0.00  0.00    +0.000 A 
ATOM     10  C   UNL     1       1.145   3.502  20.818  0.00  0.00    +0.000 A 
ATOM     11  C   UNL     1       1.349   4.833  20.453  0.00  0.00    +0.000 A 
ATOM     12  C   UNL     1       2.224   5.181  19.436  0.00  0.00    +0.000 A 
ATOM     13  N   UNL     1       2.365   6.473  19.116  0.00  0.00    +0.000 NA
ATOM     14  H   UNL     1       3.912   8.439  17.019  0.00  0.00    +0.000 HD
ENDROOT
BRANCH   2  15
ATOM     15  C   UNL     1       1.068   8.825  18.788  0.00  0.00    +0.000 C 
BRANCH  15  16
ATOM     16  C   UNL     1       0.453  10.046  19.457  0.00  0.00    +0.000 C 
BRANCH  16  17
ATOM     17  N   UNL     1      -0.834  10.365  18.836  0.00  0.00    +0.000 N 
ATOM     18  C   UNL     1      -1.090   9.940  17.555  0.00  0.00    +0.000 A 
ATOM     19  N   UNL     1      -2.170  10.186  16.892  0.00  0.00    +0.000 NA
ATOM     20  C   UNL     1      -3.163  10.943  17.530  0.00  0.00    +0.000 A 
ATOM     21  C   UNL     1      -4.383  11.139  16.879  0.00  0.00    +0.000 A 
ATOM     22  C   UNL     1      -5.401  11.885  17.480  0.00  0.00    +0.000 A 
ATOM     23  C   UNL     1      -5.195  12.463  18.733  0.00  0.00    +0.000 A 
ATOM     24  C   UNL     1      -3.980  12.280  19.392  0.00  0.00    +0.000 A 
ATOM     25  C   UNL     1      -2.979  11.505  18.794  0.00  0.00    +0.000 A 
ATOM     26  C   UNL     1      -1.710  11.222  19.493  0.00  0.00    +0.000 A 
ATOM     27  O   UNL     1      -1.480  11.743  20.582  0.00  0.00    +0.000 OA
ENDBRANCH  16  17
ENDBRANCH  15  16
ENDBRANCH   2  15
TORSDOF 3
ENDMDL
MODEL 9
REMARK VINA RESULT:      -8.0      3.546      5.542
REMARK  Name = 
REMARK  3 active torsions:
REMARK  status: ('A' for Active; 'I' for Inactive)
REMARK    1  A    between atoms: C_2  and  C_3
REMARK    2  A    between atoms: C_3  and  C_4
REMARK    3  A    between atoms: C_4  and  N_5
REMARK                            x       y       z     vdW  Elec       q    Type
REMARK                         _______ _______ _______ _____ _____    ______ ____
ROOT
ATOM      1  O   UNL     1       1.888   2.163  19.819  0.00  0.00    +0.000 OA
ATOM      2  C   UNL     1       1.876   3.352  19.493  0.00  0.00    +0.000 C 
ATOM      3  N   UNL     1       1.751   4.307  20.471  0.00  0.00    +0.000 N 
ATOM      4  C   UNL     1       1.736   5.697  20.312  0.00  0.00    +0.000 A 
ATOM      5  C   UNL     1       1.220   6.472  21.337  0.00  0.00    +0.000 A 
ATOM      6  C   UNL     1       1.084   7.845  21.128  0.00  0.00    +0.000 A 
ATOM      7  C   UNL     1       1.491   8.411  19.913  0.00  0.00    +0.000 A 
ATOM      8  C   UNL     1       1.351   9.781  19.624  0.00  0.00    +0.000 A 
ATOM      9  C   UNL     1       1.770  10.290  18.394  0.00  0.00    +0.000 A 
ATOM     10  C   UNL     1       2.325   9.436  17.447  0.00  0.00    +0.000 A 
ATOM     11  C   UNL     1       2.458   8.078  17.735  0.00  0.00    +0.000 A 
ATOM     12  C   UNL     1       2.050   7.550  18.951  0.00  0.00    +0.000 A 
ATOM     13  N   UNL     1       2.185   6.236  19.166  0.00  0.00    +0.000 NA
ATOM     14  H   UNL     1       1.571   3.927  21.389  0.00  0.00    +0.000 HD
ENDROOT
BRANCH   2  15
ATOM     15  C   UNL     1       1.984   3.780  18.047  0.00  0.00    +0.000 C 
BRANCH  15  16
ATOM     16  C   UNL     1       3.254   3.289  17.367  0.00  0.00    +0.000 C 
BRANCH  16  17
ATOM     17  N   UNL     1       4.412   4.034  17.865  0.00  0.00    +0.000 N 
ATOM     18  C   UNL     1       4.938   3.721  19.096  0.00  0.00    +0.000 A 
ATOM     19  N   UNL     1       5.932   4.326  19.654  0.00  0.00    +0.000 NA
ATOM     20  C   UNL     1       6.527   5.381  18.948  0.00  0.00    +0.000 A 
ATOM     21  C   UNL     1       7.668   5.987  19.479  0.00  0.00    +0.000 A 
ATOM     22  C   UNL     1       8.295   7.041  18.806  0.00  0.00    +0.000 A 
ATOM     23  C   UNL     1       7.766   7.514  17.605  0.00  0.00    +0.000 A 
ATOM     24  C   UNL     1       6.625   6.922  17.067  0.00  0.00    +0.000 A 
ATOM     25  C   UNL     1       6.024   5.847  17.733  0.00  0.00    +0.000 A 
ATOM     26  C   UNL     1       4.861   5.143  17.157  0.00  0.00    +0.000 A 
ATOM     27  O   UNL     1       4.348   5.553  16.118  0.00  0.00    +0.000 OA
ENDBRANCH  16  17
ENDBRANCH  15  16
ENDBRANCH   2  15
TORSDOF 3
ENDMDL
