MODEL 1
REMARK VINA RESULT:      -8.4      0.000      0.000
REMARK  Name = 
REMARK  6 active torsions:
REMARK  status: ('A' for Active; 'I' for Inactive)
REMARK    1  A    between atoms: C_1  and  N_2
REMARK    2  A    between atoms: C_6  and  C_7
REMARK    3  A    between atoms: C_7  and  C_8
REMARK    4  A    between atoms: C_11  and  C_12
REMARK    5  A    between atoms: C_16  and  N_17
REMARK    6  A    between atoms: C_24  and  C_25
REMARK                            x       y       z     vdW  Elec       q    Type
REMARK                         _______ _______ _______ _____ _____    ______ ____
ROOT
ATOM      1  C   UNL     1       2.647   6.980  18.296  0.00  0.00    +0.000 A 
ATOM      2  C   UNL     1       1.579   6.202  17.852  0.00  0.00    +0.000 A 
ATOM      3  C   UNL     1       1.427   4.903  18.325  0.00  0.00    +0.000 A 
ATOM      4  C   UNL     1       2.357   4.315  19.205  0.00  0.00    +0.000 A 
ATOM      5  C   UNL     1       3.612   4.972  19.280  0.00  0.00    +0.000 A 
ATOM      6  C   UNL     1       3.708   6.334  18.936  0.00  0.00    +0.000 A 
ENDROOT
BRANCH   5   7
ATOM      7  N   UNL     1       4.825   4.215  19.060  0.00  0.00    +0.000 N 
ATOM      8  C   UNL     1       6.010   5.104  19.097  0.00  0.00    +0.000 C 
ATOM      9  C   UNL     1       6.435   5.179  17.667  0.00  0.00    +0.000 A 
ATOM     10  C   UNL     1       5.893   4.080  17.000  0.00  0.00    +0.000 A 
ATOM     11  C   UNL     1       6.035   3.885  15.639  0.00  0.00    +0.000 A 
ATOM     12  C   UNL     1       6.740   4.851  14.925  0.00  0.00    +0.000 A 
ATOM     13  C   UNL     1       7.276   5.976  15.581  0.00  0.00    +0.000 A 
ATOM     14  C   UNL     1       7.129   6.165  16.969  0.00  0.00    +0.000 A 
ATOM     15  C   UNL     1       4.930   3.427  17.903  0.00  0.00    +0.000 C 
ATOM     16  O   UNL     1       4.277   2.441  17.601  0.00  0.00    +0.000 OA
BRANCH  14  17
ATOM     17  C   UNL     1       7.636   7.437  17.602  0.00  0.00    +0.000 C 
ATOM     18  F   UNL     1       8.471   8.159  16.809  0.00  0.00    +0.000 F 
ATOM     19  F   UNL     1       6.626   8.281  17.942  0.00  0.00    +0.000 F 
ATOM     20  F   UNL     1       8.329   7.197  18.749  0.00  0.00    +0.000 F 
ENDBRANCH  14  17
ENDBRANCH   5   7
BRANCH   4  21
ATOM     21  C   UNL     1       1.909   3.021  20.030  0.00  0.00    +0.000 C 
ATOM     22  C   UNL     1       1.036   3.306  21.280  0.00  0.00    +0.000 C 
ATOM     23  O   UNL     1       1.860   2.474  22.119  0.00  0.00    +0.000 OA
ATOM     24  C   UNL     1       2.844   2.359  21.067  0.00  0.00    +0.000 C 
ENDBRANCH   4  21
BRANCH   1  25
ATOM     25  C   UNL     1       2.606   8.474  18.101  0.00  0.00    +0.000 C 
BRANCH  25  31
ATOM     26  C   UNL     1       1.608   8.485  21.045  0.00  0.00    +0.000 C 
ATOM     27  N   UNL     1       0.958   9.099  19.920  0.00  0.00    +0.000 N 
ATOM     28  C   UNL     1      -0.267   9.689  19.935  0.00  0.00    +0.000 A 
ATOM     29  N   UNL     1      -0.552  10.135  18.735  0.00  0.00    +0.000 NA
ATOM     30  N   UNL     1       0.496   9.807  17.908  0.00  0.00    +0.000 NA
ATOM     31  C   UNL     1       1.399   9.161  18.623  0.00  0.00    +0.000 A 
ENDBRANCH  25  31
ENDBRANCH   1  25
TORSDOF 5
ENDMDL
MODEL 2
REMARK VINA RESULT:      -8.2      0.700      1.294
REMARK  Name = 
REMARK  6 active torsions:
REMARK  status: ('A' for Active; 'I' for Inactive)
REMARK    1  A    between atoms: C_1  and  N_2
REMARK    2  A    between atoms: C_6  and  C_7
REMARK    3  A    between atoms: C_7  and  C_8
REMARK    4  A    between atoms: C_11  and  C_12
REMARK    5  A    between atoms: C_16  and  N_17
REMARK    6  A    between atoms: C_24  and  C_25
REMARK                            x       y       z     vdW  Elec       q    Type
REMARK                         _______ _______ _______ _____ _____    ______ ____
ROOT
ATOM      1  C   UNL     1       2.549   6.733  18.312  0.00  0.00    +0.000 A 
ATOM      2  C   UNL     1       1.492   5.911  17.926  0.00  0.00    +0.000 A 
ATOM      3  C   UNL     1       1.408   4.615  18.422  0.00  0.00    +0.000 A 
ATOM      4  C   UNL     1       2.396   4.074  19.269  0.00  0.00    +0.000 A 
ATOM      5  C   UNL     1       3.628   4.777  19.281  0.00  0.00    +0.000 A 
ATOM      6  C   UNL     1       3.659   6.136  18.915  0.00  0.00    +0.000 A 
ENDROOT
BRANCH   5   7
ATOM      7  N   UNL     1       4.857   4.061  19.019  0.00  0.00    +0.000 N 
ATOM      8  C   UNL     1       6.017   4.982  19.060  0.00  0.00    +0.000 C 
ATOM      9  C   UNL     1       6.414   5.107  17.624  0.00  0.00    +0.000 A 
ATOM     10  C   UNL     1       5.891   4.011  16.938  0.00  0.00    +0.000 A 
ATOM     11  C   UNL     1       6.012   3.855  15.570  0.00  0.00    +0.000 A 
ATOM     12  C   UNL     1       6.677   4.858  14.870  0.00  0.00    +0.000 A 
ATOM     13  C   UNL     1       7.193   5.981  15.545  0.00  0.00    +0.000 A 
ATOM     14  C   UNL     1       7.066   6.129  16.941  0.00  0.00    +0.000 A 
ATOM     15  C   UNL     1       4.963   3.307  17.840  0.00  0.00    +0.000 C 
ATOM     16  O   UNL     1       4.332   2.311  17.524  0.00  0.00    +0.000 OA
BRANCH  14  17
ATOM     17  C   UNL     1       7.549   7.399  17.598  0.00  0.00    +0.000 C 
ATOM     18  F   UNL     1       8.227   7.202  18.759  0.00  0.00    +0.000 F 
ATOM     19  F   UNL     1       8.387   8.107  16.795  0.00  0.00    +0.000 F 
ATOM     20  F   UNL     1       6.522   8.239  17.904  0.00  0.00    +0.000 F 
ENDBRANCH  14  17
ENDBRANCH   5   7
BRANCH   4  21
ATOM     21  C   UNL     1       2.031   2.778  20.132  0.00  0.00    +0.000 C 
ATOM     22  C   UNL     1       0.969   3.001  21.240  0.00  0.00    +0.000 C 
ATOM     23  O   UNL     1       1.783   2.354  22.235  0.00  0.00    +0.000 OA
ATOM     24  C   UNL     1       2.905   2.327  21.324  0.00  0.00    +0.000 C 
ENDBRANCH   4  21
BRANCH   1  25
ATOM     25  C   UNL     1       2.444   8.222  18.097  0.00  0.00    +0.000 C 
BRANCH  25  31
ATOM     26  C   UNL     1       1.827  11.269  18.091  0.00  0.00    +0.000 C 
ATOM     27  N   UNL     1       1.473  10.327  19.117  0.00  0.00    +0.000 N 
ATOM     28  C   UNL     1       0.910  10.632  20.316  0.00  0.00    +0.000 A 
ATOM     29  N   UNL     1       0.731   9.533  21.009  0.00  0.00    +0.000 NA
ATOM     30  N   UNL     1       1.211   8.485  20.259  0.00  0.00    +0.000 NA
ATOM     31  C   UNL     1       1.679   8.971  19.124  0.00  0.00    +0.000 A 
ENDBRANCH  25  31
ENDBRANCH   1  25
TORSDOF 5
ENDMDL
MODEL 3
REMARK VINA RESULT:      -7.3      4.814      8.794
REMARK  Name = 
REMARK  6 active torsions:
REMARK  status: ('A' for Active; 'I' for Inactive)
REMARK    1  A    between atoms: C_1  and  N_2
REMARK    2  A    between atoms: C_6  and  C_7
REMARK    3  A    between atoms: C_7  and  C_8
REMARK    4  A    between atoms: C_11  and  C_12
REMARK    5  A    between atoms: C_16  and  N_17
REMARK    6  A    between atoms: C_24  and  C_25
REMARK                            x       y       z     vdW  Elec       q    Type
REMARK                         _______ _______ _______ _____ _____    ______ ____
ROOT
ATOM      1  C   UNL     1       2.379   7.310  19.145  0.00  0.00    +0.000 A 
ATOM      2  C   UNL     1       2.160   7.978  17.942  0.00  0.00    +0.000 A 
ATOM      3  C   UNL     1       1.705   9.292  17.953  0.00  0.00    +0.000 A 
ATOM      4  C   UNL     1       1.398   9.965  19.151  0.00  0.00    +0.000 A 
ATOM      5  C   UNL     1       1.227   9.129  20.284  0.00  0.00    +0.000 A 
ATOM      6  C   UNL     1       1.827   7.856  20.307  0.00  0.00    +0.000 A 
ENDROOT
BRANCH   5   7
ATOM      7  N   UNL     1       0.015   9.231  21.067  0.00  0.00    +0.000 N 
ATOM      8  C   UNL     1      -1.145   9.535  20.196  0.00  0.00    +0.000 C 
ATOM      9  C   UNL     1      -1.457  10.961  20.515  0.00  0.00    +0.000 A 
ATOM     10  C   UNL     1      -0.895  11.255  21.757  0.00  0.00    +0.000 A 
ATOM     11  C   UNL     1      -0.936  12.517  22.319  0.00  0.00    +0.000 A 
ATOM     12  C   UNL     1      -1.558  13.524  21.584  0.00  0.00    +0.000 A 
ATOM     13  C   UNL     1      -2.113  13.247  20.319  0.00  0.00    +0.000 A 
ATOM     14  C   UNL     1      -2.068  11.956  19.756  0.00  0.00    +0.000 A 
ATOM     15  C   UNL     1      -0.022  10.133  22.141  0.00  0.00    +0.000 C 
ATOM     16  O   UNL     1       0.626  10.099  23.175  0.00  0.00    +0.000 OA
BRANCH  14  17
ATOM     17  C   UNL     1      -2.588  11.740  18.357  0.00  0.00    +0.000 C 
ATOM     18  F   UNL     1      -1.792  12.251  17.381  0.00  0.00    +0.000 F 
ATOM     19  F   UNL     1      -2.737  10.421  18.061  0.00  0.00    +0.000 F 
ATOM     20  F   UNL     1      -3.812  12.307  18.173  0.00  0.00    +0.000 F 
ENDBRANCH  14  17
ENDBRANCH   5   7
BRANCH   4  21
ATOM     21  C   UNL     1       1.305  11.562  19.123  0.00  0.00    +0.000 C 
ATOM     22  C   UNL     1       2.295  12.263  18.157  0.00  0.00    +0.000 C 
ATOM     23  O   UNL     1       2.732  13.182  19.174  0.00  0.00    +0.000 OA
ATOM     24  C   UNL     1       2.019  12.432  20.182  0.00  0.00    +0.000 C 
ENDBRANCH   4  21
BRANCH   1  25
ATOM     25  C   UNL     1       3.219   6.059  19.155  0.00  0.00    +0.000 C 
BRANCH  25  31
ATOM     26  C   UNL     1       1.119   4.181  20.469  0.00  0.00    +0.000 C 
ATOM     27  N   UNL     1       1.716   4.020  19.171  0.00  0.00    +0.000 N 
ATOM     28  C   UNL     1       1.549   2.953  18.346  0.00  0.00    +0.000 A 
ATOM     29  N   UNL     1       2.245   3.134  17.250  0.00  0.00    +0.000 NA
ATOM     30  N   UNL     1       2.904   4.335  17.368  0.00  0.00    +0.000 NA
ATOM     31  C   UNL     1       2.599   4.859  18.541  0.00  0.00    +0.000 A 
ENDBRANCH  25  31
ENDBRANCH   1  25
TORSDOF 5
ENDMDL
MODEL 4
REMARK VINA RESULT:      -7.2      4.858      8.790
REMARK  Name = 
REMARK  6 active torsions:
REMARK  status: ('A' for Active; 'I' for Inactive)
REMARK    1  A    between atoms: C_1  and  N_2
REMARK    2  A    between atoms: C_6  and  C_7
REMARK    3  A    between atoms: C_7  and  C_8
REMARK    4  A    between atoms: C_11  and  C_12
REMARK    5  A    between atoms: C_16  and  N_17
REMARK    6  A    between atoms: C_24  and  C_25
REMARK                            x       y       z     vdW  Elec       q    Type
REMARK                         _______ _______ _______ _____ _____    ______ ____
ROOT
ATOM      1  C   UNL     1       2.395   7.183  19.417  0.00  0.00    +0.000 A 
ATOM      2  C   UNL     1       2.208   7.770  18.166  0.00  0.00    +0.000 A 
ATOM      3  C   UNL     1       1.745   9.078  18.079  0.00  0.00    +0.000 A 
ATOM      4  C   UNL     1       1.399   9.825  19.223  0.00  0.00    +0.000 A 
ATOM      5  C   UNL     1       1.201   9.062  20.401  0.00  0.00    +0.000 A 
ATOM      6  C   UNL     1       1.807   7.798  20.524  0.00  0.00    +0.000 A 
ENDROOT
BRANCH   5   7
ATOM      7  N   UNL     1      -0.034   9.206  21.141  0.00  0.00    +0.000 N 
ATOM      8  C   UNL     1      -1.159   9.513  20.226  0.00  0.00    +0.000 C 
ATOM      9  C   UNL     1      -1.451  10.952  20.504  0.00  0.00    +0.000 A 
ATOM     10  C   UNL     1      -0.924  11.263  21.758  0.00  0.00    +0.000 A 
ATOM     11  C   UNL     1      -0.958  12.537  22.291  0.00  0.00    +0.000 A 
ATOM     12  C   UNL     1      -1.535  13.539  21.514  0.00  0.00    +0.000 A 
ATOM     13  C   UNL     1      -2.054  13.245  20.238  0.00  0.00    +0.000 A 
ATOM     14  C   UNL     1      -2.017  11.941  19.704  0.00  0.00    +0.000 A 
ATOM     15  C   UNL     1      -0.087  10.132  22.195  0.00  0.00    +0.000 C 
ATOM     16  O   UNL     1       0.525  10.108  23.250  0.00  0.00    +0.000 OA
BRANCH  14  17
ATOM     17  C   UNL     1      -2.495  11.705  18.293  0.00  0.00    +0.000 C 
ATOM     18  F   UNL     1      -2.525  10.396  17.927  0.00  0.00    +0.000 F 
ATOM     19  F   UNL     1      -3.753  12.176  18.091  0.00  0.00    +0.000 F 
ATOM     20  F   UNL     1      -1.707  12.329  17.375  0.00  0.00    +0.000 F 
ENDBRANCH  14  17
ENDBRANCH   5   7
BRANCH   4  21
ATOM     21  C   UNL     1       1.298  11.416  19.088  0.00  0.00    +0.000 C 
ATOM     22  C   UNL     1       2.328  12.063  18.125  0.00  0.00    +0.000 C 
ATOM     23  O   UNL     1       2.711  13.049  19.101  0.00  0.00    +0.000 OA
ATOM     24  C   UNL     1       1.957  12.358  20.121  0.00  0.00    +0.000 C 
ENDBRANCH   4  21
BRANCH   1  25
ATOM     25  C   UNL     1       3.242   5.941  19.531  0.00  0.00    +0.000 C 
BRANCH  25  31
ATOM     26  C   UNL     1       1.856   3.844  17.701  0.00  0.00    +0.000 C 
ATOM     27  N   UNL     1       1.885   3.838  19.139  0.00  0.00    +0.000 N 
ATOM     28  C   UNL     1       1.210   2.976  19.944  0.00  0.00    +0.000 A 
ATOM     29  N   UNL     1       1.458   3.263  21.199  0.00  0.00    +0.000 NA
ATOM     30  N   UNL     1       2.294   4.355  21.219  0.00  0.00    +0.000 NA
ATOM     31  C   UNL     1       2.534   4.714  19.972  0.00  0.00    +0.000 A 
ENDBRANCH  25  31
ENDBRANCH   1  25
TORSDOF 5
ENDMDL
MODEL 5
REMARK VINA RESULT:      -7.1      4.527      8.810
REMARK  Name = 
REMARK  6 active torsions:
REMARK  status: ('A' for Active; 'I' for Inactive)
REMARK    1  A    between atoms: C_1  and  N_2
REMARK    2  A    between atoms: C_6  and  C_7
REMARK    3  A    between atoms: C_7  and  C_8
REMARK    4  A    between atoms: C_11  and  C_12
REMARK    5  A    between atoms: C_16  and  N_17
REMARK    6  A    between atoms: C_24  and  C_25
REMARK                            x       y       z     vdW  Elec       q    Type
REMARK                         _______ _______ _______ _____ _____    ______ ____
ROOT
ATOM      1  C   UNL     1       2.444   7.266  19.274  0.00  0.00    +0.000 A 
ATOM      2  C   UNL     1       2.241   7.887  18.043  0.00  0.00    +0.000 A 
ATOM      3  C   UNL     1       1.764   9.192  17.997  0.00  0.00    +0.000 A 
ATOM      4  C   UNL     1       1.419   9.901  19.165  0.00  0.00    +0.000 A 
ATOM      5  C   UNL     1       1.237   9.102  20.322  0.00  0.00    +0.000 A 
ATOM      6  C   UNL     1       1.857   7.842  20.404  0.00  0.00    +0.000 A 
ENDROOT
BRANCH   5   7
ATOM      7  N   UNL     1       0.005   9.211  21.074  0.00  0.00    +0.000 N 
ATOM      8  C   UNL     1      -1.133   9.507  20.172  0.00  0.00    +0.000 C 
ATOM      9  C   UNL     1      -1.452  10.935  20.472  0.00  0.00    +0.000 A 
ATOM     10  C   UNL     1      -0.921  11.240  21.725  0.00  0.00    +0.000 A 
ATOM     11  C   UNL     1      -0.977  12.507  22.275  0.00  0.00    +0.000 A 
ATOM     12  C   UNL     1      -1.581  13.507  21.516  0.00  0.00    +0.000 A 
ATOM     13  C   UNL     1      -2.104  13.220  20.241  0.00  0.00    +0.000 A 
ATOM     14  C   UNL     1      -2.045  11.924  19.690  0.00  0.00    +0.000 A 
ATOM     15  C   UNL     1      -0.058  10.121  22.140  0.00  0.00    +0.000 C 
ATOM     16  O   UNL     1       0.564  10.096  23.190  0.00  0.00    +0.000 OA
BRANCH  14  17
ATOM     17  C   UNL     1      -2.530  11.696  18.280  0.00  0.00    +0.000 C 
ATOM     18  F   UNL     1      -2.640  10.386  17.933  0.00  0.00    +0.000 F 
ATOM     19  F   UNL     1      -3.756  12.241  18.063  0.00  0.00    +0.000 F 
ATOM     20  F   UNL     1      -1.700  12.256  17.357  0.00  0.00    +0.000 F 
ENDBRANCH  14  17
ENDBRANCH   5   7
BRANCH   4  21
ATOM     21  C   UNL     1       1.300  11.494  19.078  0.00  0.00    +0.000 C 
ATOM     22  C   UNL     1       2.304  12.178  18.114  0.00  0.00    +0.000 C 
ATOM     23  O   UNL     1       2.697  13.140  19.109  0.00  0.00    +0.000 OA
ATOM     24  C   UNL     1       1.970  12.413  20.124  0.00  0.00    +0.000 C 
ENDBRANCH   4  21
BRANCH   1  25
ATOM     25  C   UNL     1       3.304   6.030  19.347  0.00  0.00    +0.000 C 
BRANCH  25  31
ATOM     26  C   UNL     1       4.699   4.383  17.109  0.00  0.00    +0.000 C 
ATOM     27  N   UNL     1       3.385   4.155  17.646  0.00  0.00    +0.000 N 
ATOM     28  C   UNL     1       2.483   3.251  17.181  0.00  0.00    +0.000 A 
ATOM     29  N   UNL     1       1.387   3.317  17.899  0.00  0.00    +0.000 NA
ATOM     30  N   UNL     1       1.563   4.306  18.838  0.00  0.00    +0.000 NA
ATOM     31  C   UNL     1       2.765   4.825  18.669  0.00  0.00    +0.000 A 
ENDBRANCH  25  31
ENDBRANCH   1  25
TORSDOF 5
ENDMDL
MODEL 6
REMARK VINA RESULT:      -7.1      0.596      1.039
REMARK  Name = 
REMARK  6 active torsions:
REMARK  status: ('A' for Active; 'I' for Inactive)
REMARK    1  A    between atoms: C_1  and  N_2
REMARK    2  A    between atoms: C_6  and  C_7
REMARK    3  A    between atoms: C_7  and  C_8
REMARK    4  A    between atoms: C_11  and  C_12
REMARK    5  A    between atoms: C_16  and  N_17
REMARK    6  A    between atoms: C_24  and  C_25
REMARK                            x       y       z     vdW  Elec       q    Type
REMARK                         _______ _______ _______ _____ _____    ______ ____
ROOT
ATOM      1  C   UNL     1       2.503   7.106  18.574  0.00  0.00    +0.000 A 
ATOM      2  C   UNL     1       1.370   6.297  18.646  0.00  0.00    +0.000 A 
ATOM      3  C   UNL     1       1.374   5.173  19.465  0.00  0.00    +0.000 A 
ATOM      4  C   UNL     1       2.516   4.784  20.192  0.00  0.00    +0.000 A 
ATOM      5  C   UNL     1       3.732   5.372  19.761  0.00  0.00    +0.000 A 
ATOM      6  C   UNL     1       3.708   6.592  19.060  0.00  0.00    +0.000 A 
ENDROOT
BRANCH   5   7
ATOM      7  N   UNL     1       4.857   4.521  19.438  0.00  0.00    +0.000 N 
ATOM      8  C   UNL     1       6.100   5.320  19.320  0.00  0.00    +0.000 C 
ATOM      9  C   UNL     1       6.371   5.329  17.851  0.00  0.00    +0.000 A 
ATOM     10  C   UNL     1       5.683   4.258  17.281  0.00  0.00    +0.000 A 
ATOM     11  C   UNL     1       5.662   4.019  15.920  0.00  0.00    +0.000 A 
ATOM     12  C   UNL     1       6.353   4.912  15.104  0.00  0.00    +0.000 A 
ATOM     13  C   UNL     1       7.036   6.009  15.662  0.00  0.00    +0.000 A 
ATOM     14  C   UNL     1       7.054   6.243  17.052  0.00  0.00    +0.000 A 
ATOM     15  C   UNL     1       4.779   3.700  18.302  0.00  0.00    +0.000 C 
ATOM     16  O   UNL     1       4.028   2.759  18.103  0.00  0.00    +0.000 OA
BRANCH  14  17
ATOM     17  C   UNL     1       7.716   7.489  17.586  0.00  0.00    +0.000 C 
ATOM     18  F   UNL     1       8.434   7.295  18.723  0.00  0.00    +0.000 F 
ATOM     19  F   UNL     1       8.580   8.036  16.690  0.00  0.00    +0.000 F 
ATOM     20  F   UNL     1       6.811   8.463  17.880  0.00  0.00    +0.000 F 
ENDBRANCH  14  17
ENDBRANCH   5   7
BRANCH   4  21
ATOM     21  C   UNL     1       2.328   3.772  21.416  0.00  0.00    +0.000 C 
ATOM     22  C   UNL     1       3.125   2.446  21.303  0.00  0.00    +0.000 C 
ATOM     23  O   UNL     1       1.964   1.652  21.611  0.00  0.00    +0.000 OA
ATOM     24  C   UNL     1       1.116   2.816  21.495  0.00  0.00    +0.000 C 
ENDBRANCH   4  21
BRANCH   1  25
ATOM     25  C   UNL     1       2.382   8.499  18.011  0.00  0.00    +0.000 C 
BRANCH  25  31
ATOM     26  C   UNL     1       1.546   9.124  20.940  0.00  0.00    +0.000 C 
ATOM     27  N   UNL     1       0.823   9.481  19.750  0.00  0.00    +0.000 N 
ATOM     28  C   UNL     1      -0.411  10.050  19.710  0.00  0.00    +0.000 A 
ATOM     29  N   UNL     1      -0.770  10.230  18.462  0.00  0.00    +0.000 NA
ATOM     30  N   UNL     1       0.239   9.744  17.664  0.00  0.00    +0.000 NA
ATOM     31  C   UNL     1       1.192   9.271  18.446  0.00  0.00    +0.000 A 
ENDBRANCH  25  31
ENDBRANCH   1  25
TORSDOF 5
ENDMDL
MODEL 7
REMARK VINA RESULT:      -7.1      0.926      1.495
REMARK  Name = 
REMARK  6 active torsions:
REMARK  status: ('A' for Active; 'I' for Inactive)
REMARK    1  A    between atoms: C_1  and  N_2
REMARK    2  A    between atoms: C_6  and  C_7
REMARK    3  A    between atoms: C_7  and  C_8
REMARK    4  A    between atoms: C_11  and  C_12
REMARK    5  A    between atoms: C_16  and  N_17
REMARK    6  A    between atoms: C_24  and  C_25
REMARK                            x       y       z     vdW  Elec       q    Type
REMARK                         _______ _______ _______ _____ _____    ______ ____
ROOT
ATOM      1  C   UNL     1       2.498   7.078  18.428  0.00  0.00    +0.000 A 
ATOM      2  C   UNL     1       1.387   6.239  18.502  0.00  0.00    +0.000 A 
ATOM      3  C   UNL     1       1.407   5.138  19.351  0.00  0.00    +0.000 A 
ATOM      4  C   UNL     1       2.545   4.801  20.110  0.00  0.00    +0.000 A 
ATOM      5  C   UNL     1       3.752   5.411  19.685  0.00  0.00    +0.000 A 
ATOM      6  C   UNL     1       3.707   6.611  18.951  0.00  0.00    +0.000 A 
ENDROOT
BRANCH   5   7
ATOM      7  N   UNL     1       4.906   4.584  19.405  0.00  0.00    +0.000 N 
ATOM      8  C   UNL     1       6.134   5.410  19.327  0.00  0.00    +0.000 C 
ATOM      9  C   UNL     1       6.456   5.418  17.868  0.00  0.00    +0.000 A 
ATOM     10  C   UNL     1       5.812   4.328  17.280  0.00  0.00    +0.000 A 
ATOM     11  C   UNL     1       5.843   4.082  15.921  0.00  0.00    +0.000 A 
ATOM     12  C   UNL     1       6.542   4.987  15.124  0.00  0.00    +0.000 A 
ATOM     13  C   UNL     1       7.181   6.102  15.699  0.00  0.00    +0.000 A 
ATOM     14  C   UNL     1       7.146   6.342  17.088  0.00  0.00    +0.000 A 
ATOM     15  C   UNL     1       4.886   3.756  18.273  0.00  0.00    +0.000 C 
ATOM     16  O   UNL     1       4.163   2.797  18.054  0.00  0.00    +0.000 OA
BRANCH  14  17
ATOM     17  C   UNL     1       7.761   7.605  17.636  0.00  0.00    +0.000 C 
ATOM     18  F   UNL     1       6.859   8.563  17.977  0.00  0.00    +0.000 F 
ATOM     19  F   UNL     1       8.498   7.375  18.755  0.00  0.00    +0.000 F 
ATOM     20  F   UNL     1       8.607   8.192  16.744  0.00  0.00    +0.000 F 
ENDBRANCH  14  17
ENDBRANCH   5   7
BRANCH   4  21
ATOM     21  C   UNL     1       2.361   3.817  21.357  0.00  0.00    +0.000 C 
ATOM     22  C   UNL     1       3.123   2.470  21.251  0.00  0.00    +0.000 C 
ATOM     23  O   UNL     1       1.952   1.710  21.601  0.00  0.00    +0.000 OA
ATOM     24  C   UNL     1       1.129   2.893  21.483  0.00  0.00    +0.000 C 
ENDBRANCH   4  21
BRANCH   1  25
ATOM     25  C   UNL     1       2.350   8.451  17.826  0.00  0.00    +0.000 C 
BRANCH  25  31
ATOM     26  C   UNL     1       2.573  11.548  17.669  0.00  0.00    +0.000 C 
ATOM     27  N   UNL     1       1.755  10.795  18.581  0.00  0.00    +0.000 N 
ATOM     28  C   UNL     1       1.030  11.310  19.608  0.00  0.00    +0.000 A 
ATOM     29  N   UNL     1       0.413  10.340  20.238  0.00  0.00    +0.000 NA
ATOM     30  N   UNL     1       0.762   9.158  19.627  0.00  0.00    +0.000 NA
ATOM     31  C   UNL     1       1.591   9.435  18.638  0.00  0.00    +0.000 A 
ENDBRANCH  25  31
ENDBRANCH   1  25
TORSDOF 5
ENDMDL
MODEL 8
REMARK VINA RESULT:      -7.0      4.843      8.884
REMARK  Name = 
REMARK  6 active torsions:
REMARK  status: ('A' for Active; 'I' for Inactive)
REMARK    1  A    between atoms: C_1  and  N_2
REMARK    2  A    between atoms: C_6  and  C_7
REMARK    3  A    between atoms: C_7  and  C_8
REMARK    4  A    between atoms: C_11  and  C_12
REMARK    5  A    between atoms: C_16  and  N_17
REMARK    6  A    between atoms: C_24  and  C_25
REMARK                            x       y       z     vdW  Elec       q    Type
REMARK                         _______ _______ _______ _____ _____    ______ ____
ROOT
ATOM      1  C   UNL     1       2.289   7.496  19.202  0.00  0.00    +0.000 A 
ATOM      2  C   UNL     1       2.146   8.134  17.971  0.00  0.00    +0.000 A 
ATOM      3  C   UNL     1       1.702   9.451  17.922  0.00  0.00    +0.000 A 
ATOM      4  C   UNL     1       1.331  10.157  19.083  0.00  0.00    +0.000 A 
ATOM      5  C   UNL     1       1.088   9.351  20.224  0.00  0.00    +0.000 A 
ATOM      6  C   UNL     1       1.675   8.075  20.315  0.00  0.00    +0.000 A 
ENDROOT
BRANCH   5   7
ATOM      7  N   UNL     1      -0.167   9.481  20.932  0.00  0.00    +0.000 N 
ATOM      8  C   UNL     1      -1.306   9.466  19.984  0.00  0.00    +0.000 C 
ATOM      9  C   UNL     1      -1.777  10.884  19.981  0.00  0.00    +0.000 A 
ATOM     10  C   UNL     1      -1.312  11.493  21.147  0.00  0.00    +0.000 A 
ATOM     11  C   UNL     1      -1.510  12.832  21.424  0.00  0.00    +0.000 A 
ATOM     12  C   UNL     1      -2.192  13.587  20.473  0.00  0.00    +0.000 A 
ATOM     13  C   UNL     1      -2.650  12.992  19.282  0.00  0.00    +0.000 A 
ATOM     14  C   UNL     1      -2.446  11.624  19.010  0.00  0.00    +0.000 A 
ATOM     15  C   UNL     1      -0.350  10.579  21.788  0.00  0.00    +0.000 C 
ATOM     16  O   UNL     1       0.244  10.834  22.823  0.00  0.00    +0.000 OA
BRANCH  14  17
ATOM     17  C   UNL     1      -2.869  11.063  17.675  0.00  0.00    +0.000 C 
ATOM     18  F   UNL     1      -3.600  11.921  16.916  0.00  0.00    +0.000 F 
ATOM     19  F   UNL     1      -1.806  10.702  16.908  0.00  0.00    +0.000 F 
ATOM     20  F   UNL     1      -3.633   9.943  17.810  0.00  0.00    +0.000 F 
ENDBRANCH  14  17
ENDBRANCH   5   7
BRANCH   4  21
ATOM     21  C   UNL     1       1.252  11.752  19.009  0.00  0.00    +0.000 C 
ATOM     22  C   UNL     1       2.284  12.420  18.063  0.00  0.00    +0.000 C 
ATOM     23  O   UNL     1       2.690  13.363  19.072  0.00  0.00    +0.000 OA
ATOM     24  C   UNL     1       1.932  12.645  20.071  0.00  0.00    +0.000 C 
ENDBRANCH   4  21
BRANCH   1  25
ATOM     25  C   UNL     1       3.117   6.240  19.292  0.00  0.00    +0.000 C 
BRANCH  25  31
ATOM     26  C   UNL     1       1.766   4.000  17.613  0.00  0.00    +0.000 C 
ATOM     27  N   UNL     1       1.785   4.100  19.047  0.00  0.00    +0.000 N 
ATOM     28  C   UNL     1       1.112   3.292  19.908  0.00  0.00    +0.000 A 
ATOM     29  N   UNL     1       1.348   3.673  21.141  0.00  0.00    +0.000 NA
ATOM     30  N   UNL     1       2.173   4.772  21.086  0.00  0.00    +0.000 NA
ATOM     31  C   UNL     1       2.418   5.041  19.817  0.00  0.00    +0.000 A 
ENDBRANCH  25  31
ENDBRANCH   1  25
TORSDOF 5
ENDMDL
MODEL 9
REMARK VINA RESULT:      -7.0      5.967      9.142
REMARK  Name = 
REMARK  6 active torsions:
REMARK  status: ('A' for Active; 'I' for Inactive)
REMARK    1  A    between atoms: C_1  and  N_2
REMARK    2  A    between atoms: C_6  and  C_7
REMARK    3  A    between atoms: C_7  and  C_8
REMARK    4  A    between atoms: C_11  and  C_12
REMARK    5  A    between atoms: C_16  and  N_17
REMARK    6  A    between atoms: C_24  and  C_25
REMARK                            x       y       z     vdW  Elec       q    Type
REMARK                         _______ _______ _______ _____ _____    ______ ____
ROOT
ATOM      1  C   UNL     1      -3.048  13.255  22.723  0.00  0.00    +0.000 A 
ATOM      2  C   UNL     1      -3.069  13.943  21.511  0.00  0.00    +0.000 A 
ATOM      3  C   UNL     1      -2.607  13.323  20.356  0.00  0.00    +0.000 A 
ATOM      4  C   UNL     1      -2.057  12.025  20.374  0.00  0.00    +0.000 A 
ATOM      5  C   UNL     1      -1.671  11.555  21.654  0.00  0.00    +0.000 A 
ATOM      6  C   UNL     1      -2.267  12.099  22.807  0.00  0.00    +0.000 A 
ENDROOT
BRANCH   5   7
ATOM      7  N   UNL     1      -0.324  11.064  21.855  0.00  0.00    +0.000 N 
ATOM      8  C   UNL     1       0.669  12.055  21.378  0.00  0.00    +0.000 C 
ATOM      9  C   UNL     1       1.205  11.437  20.127  0.00  0.00    +0.000 A 
ATOM     10  C   UNL     1       0.938  10.069  20.176  0.00  0.00    +0.000 A 
ATOM     11  C   UNL     1       1.239   9.208  19.137  0.00  0.00    +0.000 A 
ATOM     12  C   UNL     1       1.819   9.761  17.998  0.00  0.00    +0.000 A 
ATOM     13  C   UNL     1       2.076  11.143  17.925  0.00  0.00    +0.000 A 
ATOM     14  C   UNL     1       1.768  12.012  18.991  0.00  0.00    +0.000 A 
ATOM     15  C   UNL     1       0.031   9.821  21.310  0.00  0.00    +0.000 C 
ATOM     16  O   UNL     1      -0.400   8.717  21.606  0.00  0.00    +0.000 OA
BRANCH  14  17
ATOM     17  C   UNL     1       1.973  13.497  18.819  0.00  0.00    +0.000 C 
ATOM     18  F   UNL     1       2.554  13.847  17.642  0.00  0.00    +0.000 F 
ATOM     19  F   UNL     1       0.803  14.188  18.875  0.00  0.00    +0.000 F 
ATOM     20  F   UNL     1       2.766  14.020  19.795  0.00  0.00    +0.000 F 
ENDBRANCH  14  17
ENDBRANCH   5   7
BRANCH   4  21
ATOM     21  C   UNL     1      -1.954  11.225  18.993  0.00  0.00    +0.000 C 
ATOM     22  C   UNL     1      -1.581  12.086  17.758  0.00  0.00    +0.000 C 
ATOM     23  O   UNL     1      -2.663  11.546  16.978  0.00  0.00    +0.000 OA
ATOM     24  C   UNL     1      -3.209  10.902  18.151  0.00  0.00    +0.000 C 
ENDBRANCH   4  21
BRANCH   1  25
ATOM     25  C   UNL     1      -3.882  13.757  23.874  0.00  0.00    +0.000 C 
BRANCH  25  31
ATOM     26  C   UNL     1      -6.388  15.576  23.596  0.00  0.00    +0.000 C 
ATOM     27  N   UNL     1      -6.383  14.155  23.816  0.00  0.00    +0.000 N 
ATOM     28  C   UNL     1      -7.476  13.384  24.057  0.00  0.00    +0.000 A 
ATOM     29  N   UNL     1      -7.105  12.137  24.219  0.00  0.00    +0.000 NA
ATOM     30  N   UNL     1      -5.735  12.092  24.108  0.00  0.00    +0.000 NA
ATOM     31  C   UNL     1      -5.299  13.317  23.885  0.00  0.00    +0.000 A 
ENDBRANCH  25  31
ENDBRANCH   1  25
TORSDOF 5
ENDMDL
