MODEL 1
REMARK VINA RESULT:      -8.9      0.000      0.000
REMARK  Name = 
REMARK  6 active torsions:
REMARK  status: ('A' for Active; 'I' for Inactive)
REMARK    1  A    between atoms: C_2  and  C_17
REMARK    2  A    between atoms: N_3  and  C_4
REMARK    3  A    between atoms: C_4  and  C_5
REMARK    4  A    between atoms: C_4  and  C_11
REMARK    5  A    between atoms: C_21  and  C_22
REMARK    6  A    between atoms: C_22  and  N_23
REMARK                            x       y       z     vdW  Elec       q    Type
REMARK                         _______ _______ _______ _____ _____    ______ ____
ROOT
ATOM      1  O   UNL     1       2.447   8.247  17.152  0.00  0.00    +0.000 OA
ATOM      2  C   UNL     1       2.203   7.985  18.327  0.00  0.00    +0.000 C 
ATOM      3  N   UNL     1       2.653   6.851  18.969  0.00  0.00    +0.000 N 
ATOM      4  H   UNL     1       2.522   6.752  19.966  0.00  0.00    +0.000 HD
ENDROOT
BRANCH   2   5
ATOM      5  C   UNL     1       1.395   8.938  19.137  0.00  0.00    +0.000 A 
ATOM      6  C   UNL     1       1.343   8.753  20.524  0.00  0.00    +0.000 A 
ATOM      7  C   UNL     1       0.627   9.641  21.328  0.00  0.00    +0.000 A 
ATOM      8  C   UNL     1      -0.023  10.737  20.755  0.00  0.00    +0.000 A 
ATOM      9  C   UNL     1       0.038  10.955  19.373  0.00  0.00    +0.000 A 
ATOM     10  C   UNL     1       0.745  10.041  18.567  0.00  0.00    +0.000 A 
BRANCH   9  11
ATOM     11  C   UNL     1      -0.581  12.190  18.756  0.00  0.00    +0.000 C 
BRANCH  11  12
ATOM     12  N   UNL     1      -1.935  11.953  18.284  0.00  0.00    +0.000 N 
ATOM     13  C   UNL     1      -2.229  11.238  17.069  0.00  0.00    +0.000 C 
ATOM     14  C   UNL     1      -3.737  11.362  16.952  0.00  0.00    +0.000 C 
ATOM     15  C   UNL     1      -4.205  11.392  18.399  0.00  0.00    +0.000 C 
ATOM     16  C   UNL     1      -3.047  12.049  19.106  0.00  0.00    +0.000 C 
ATOM     17  O   UNL     1      -3.080  12.525  20.231  0.00  0.00    +0.000 OA
ENDBRANCH  11  12
ENDBRANCH   9  11
ENDBRANCH   2   5
BRANCH   3  18
ATOM     18  C   UNL     1       3.421   5.806  18.284  0.00  0.00    +0.000 C 
BRANCH  18  19
ATOM     19  C   UNL     1       4.927   6.096  18.356  0.00  0.00    +0.000 A 
ATOM     20  C   UNL     1       5.774   5.475  19.289  0.00  0.00    +0.000 A 
ATOM     21  C   UNL     1       7.163   5.645  19.238  0.00  0.00    +0.000 A 
ATOM     22  C   UNL     1       7.738   6.435  18.248  0.00  0.00    +0.000 A 
ATOM     23  C   UNL     1       6.924   7.071  17.318  0.00  0.00    +0.000 A 
ATOM     24  C   UNL     1       5.537   6.900  17.370  0.00  0.00    +0.000 A 
ENDBRANCH  18  19
BRANCH  18  25
ATOM     25  C   UNL     1       2.937   4.392  18.760  0.00  0.00    +0.000 C 
ATOM     26  C   UNL     1       2.655   3.474  17.546  0.00  0.00    +0.000 C 
ATOM     27  C   UNL     1       2.046   2.128  17.935  0.00  0.00    +0.000 C 
ATOM     28  C   UNL     1       0.798   2.319  18.785  0.00  0.00    +0.000 C 
ATOM     29  C   UNL     1       1.136   3.100  20.047  0.00  0.00    +0.000 C 
ATOM     30  C   UNL     1       1.723   4.469  19.711  0.00  0.00    +0.000 C 
ENDBRANCH  18  25
ENDBRANCH   3  18
TORSDOF 6
ENDMDL
MODEL 2
REMARK VINA RESULT:      -8.9      0.858      1.124
REMARK  Name = 
REMARK  6 active torsions:
REMARK  status: ('A' for Active; 'I' for Inactive)
REMARK    1  A    between atoms: C_2  and  C_17
REMARK    2  A    between atoms: N_3  and  C_4
REMARK    3  A    between atoms: C_4  and  C_5
REMARK    4  A    between atoms: C_4  and  C_11
REMARK    5  A    between atoms: C_21  and  C_22
REMARK    6  A    between atoms: C_22  and  N_23
REMARK                            x       y       z     vdW  Elec       q    Type
REMARK                         _______ _______ _______ _____ _____    ______ ____
ROOT
ATOM      1  O   UNL     1       2.485   8.202  17.065  0.00  0.00    +0.000 OA
ATOM      2  C   UNL     1       2.215   7.941  18.234  0.00  0.00    +0.000 C 
ATOM      3  N   UNL     1       2.664   6.815  18.891  0.00  0.00    +0.000 N 
ATOM      4  H   UNL     1       2.509   6.717  19.884  0.00  0.00    +0.000 HD
ENDROOT
BRANCH   2   5
ATOM      5  C   UNL     1       1.374   8.885  19.020  0.00  0.00    +0.000 A 
ATOM      6  C   UNL     1       1.379   8.775  20.416  0.00  0.00    +0.000 A 
ATOM      7  C   UNL     1       0.634   9.660  21.196  0.00  0.00    +0.000 A 
ATOM      8  C   UNL     1      -0.103  10.679  20.589  0.00  0.00    +0.000 A 
ATOM      9  C   UNL     1      -0.101  10.824  19.196  0.00  0.00    +0.000 A 
ATOM     10  C   UNL     1       0.638   9.912  18.416  0.00  0.00    +0.000 A 
BRANCH   9  11
ATOM     11  C   UNL     1      -0.817  11.982  18.536  0.00  0.00    +0.000 C 
BRANCH  11  12
ATOM     12  N   UNL     1      -2.245  11.747  18.406  0.00  0.00    +0.000 N 
ATOM     13  C   UNL     1      -3.218  12.312  19.304  0.00  0.00    +0.000 C 
ATOM     14  C   UNL     1      -4.521  11.688  18.837  0.00  0.00    +0.000 C 
ATOM     15  C   UNL     1      -4.316  11.516  17.340  0.00  0.00    +0.000 C 
ATOM     16  C   UNL     1      -2.830  11.292  17.234  0.00  0.00    +0.000 C 
ATOM     17  O   UNL     1      -2.248  10.842  16.258  0.00  0.00    +0.000 OA
ENDBRANCH  11  12
ENDBRANCH   9  11
ENDBRANCH   2   5
BRANCH   3  18
ATOM     18  C   UNL     1       3.463   5.778  18.229  0.00  0.00    +0.000 C 
BRANCH  18  19
ATOM     19  C   UNL     1       4.962   6.093  18.332  0.00  0.00    +0.000 A 
ATOM     20  C   UNL     1       5.801   5.482  19.279  0.00  0.00    +0.000 A 
ATOM     21  C   UNL     1       7.188   5.675  19.257  0.00  0.00    +0.000 A 
ATOM     22  C   UNL     1       7.769   6.477  18.281  0.00  0.00    +0.000 A 
ATOM     23  C   UNL     1       6.964   7.103  17.338  0.00  0.00    +0.000 A 
ATOM     24  C   UNL     1       5.579   6.910  17.361  0.00  0.00    +0.000 A 
ENDBRANCH  18  19
BRANCH  18  25
ATOM     25  C   UNL     1       2.991   4.359  18.702  0.00  0.00    +0.000 C 
ATOM     26  C   UNL     1       2.732   3.436  17.488  0.00  0.00    +0.000 C 
ATOM     27  C   UNL     1       2.135   2.084  17.873  0.00  0.00    +0.000 C 
ATOM     28  C   UNL     1       0.877   2.261  18.710  0.00  0.00    +0.000 C 
ATOM     29  C   UNL     1       1.192   3.049  19.973  0.00  0.00    +0.000 C 
ATOM     30  C   UNL     1       1.767   4.424  19.641  0.00  0.00    +0.000 C 
ENDBRANCH  18  25
ENDBRANCH   3  18
TORSDOF 6
ENDMDL
MODEL 3
REMARK VINA RESULT:      -8.9      1.195      1.868
REMARK  Name = 
REMARK  6 active torsions:
REMARK  status: ('A' for Active; 'I' for Inactive)
REMARK    1  A    between atoms: C_2  and  C_17
REMARK    2  A    between atoms: N_3  and  C_4
REMARK    3  A    between atoms: C_4  and  C_5
REMARK    4  A    between atoms: C_4  and  C_11
REMARK    5  A    between atoms: C_21  and  C_22
REMARK    6  A    between atoms: C_22  and  N_23
REMARK                            x       y       z     vdW  Elec       q    Type
REMARK                         _______ _______ _______ _____ _____    ______ ____
ROOT
ATOM      1  O   UNL     1       2.350   8.752  17.404  0.00  0.00    +0.000 OA
ATOM      2  C   UNL     1       2.116   8.200  18.475  0.00  0.00    +0.000 C 
ATOM      3  N   UNL     1       2.512   6.915  18.778  0.00  0.00    +0.000 N 
ATOM      4  H   UNL     1       2.396   6.561  19.717  0.00  0.00    +0.000 HD
ENDROOT
BRANCH   2   5
ATOM      5  C   UNL     1       1.381   8.942  19.537  0.00  0.00    +0.000 A 
ATOM      6  C   UNL     1       1.341   8.394  20.824  0.00  0.00    +0.000 A 
ATOM      7  C   UNL     1       0.694   9.070  21.860  0.00  0.00    +0.000 A 
ATOM      8  C   UNL     1       0.104  10.314  21.623  0.00  0.00    +0.000 A 
ATOM      9  C   UNL     1       0.156  10.893  20.348  0.00  0.00    +0.000 A 
ATOM     10  C   UNL     1       0.792  10.192  19.305  0.00  0.00    +0.000 A 
BRANCH   9  11
ATOM     11  C   UNL     1      -0.395  12.281  20.105  0.00  0.00    +0.000 C 
BRANCH  11  12
ATOM     12  N   UNL     1      -1.790  12.399  20.497  0.00  0.00    +0.000 N 
ATOM     13  C   UNL     1      -2.212  13.064  21.703  0.00  0.00    +0.000 C 
ATOM     14  C   UNL     1      -3.710  12.816  21.725  0.00  0.00    +0.000 C 
ATOM     15  C   UNL     1      -4.086  12.778  20.252  0.00  0.00    +0.000 C 
ATOM     16  C   UNL     1      -2.839  12.231  19.607  0.00  0.00    +0.000 C 
ATOM     17  O   UNL     1      -2.767  11.776  18.475  0.00  0.00    +0.000 OA
ENDBRANCH  11  12
ENDBRANCH   9  11
ENDBRANCH   2   5
BRANCH   3  18
ATOM     18  C   UNL     1       3.203   6.052  17.814  0.00  0.00    +0.000 C 
BRANCH  18  19
ATOM     19  C   UNL     1       4.721   6.080  18.043  0.00  0.00    +0.000 A 
ATOM     20  C   UNL     1       5.324   5.536  19.189  0.00  0.00    +0.000 A 
ATOM     21  C   UNL     1       6.716   5.443  19.306  0.00  0.00    +0.000 A 
ATOM     22  C   UNL     1       7.538   5.885  18.275  0.00  0.00    +0.000 A 
ATOM     23  C   UNL     1       6.970   6.439  17.134  0.00  0.00    +0.000 A 
ATOM     24  C   UNL     1       5.580   6.531  17.019  0.00  0.00    +0.000 A 
ENDBRANCH  18  19
BRANCH  18  25
ATOM     25  C   UNL     1       2.509   4.646  17.764  0.00  0.00    +0.000 C 
ATOM     26  C   UNL     1       1.658   4.411  19.035  0.00  0.00    +0.000 C 
ATOM     27  C   UNL     1       1.068   3.005  19.117  0.00  0.00    +0.000 C 
ATOM     28  C   UNL     1       2.154   1.948  18.976  0.00  0.00    +0.000 C 
ATOM     29  C   UNL     1       2.879   2.113  17.648  0.00  0.00    +0.000 C 
ATOM     30  C   UNL     1       3.513   3.497  17.530  0.00  0.00    +0.000 C 
ENDBRANCH  18  25
ENDBRANCH   3  18
TORSDOF 6
ENDMDL
MODEL 4
REMARK VINA RESULT:      -8.8      2.194      3.006
REMARK  Name = 
REMARK  6 active torsions:
REMARK  status: ('A' for Active; 'I' for Inactive)
REMARK    1  A    between atoms: C_2  and  C_17
REMARK    2  A    between atoms: N_3  and  C_4
REMARK    3  A    between atoms: C_4  and  C_5
REMARK    4  A    between atoms: C_4  and  C_11
REMARK    5  A    between atoms: C_21  and  C_22
REMARK    6  A    between atoms: C_22  and  N_23
REMARK                            x       y       z     vdW  Elec       q    Type
REMARK                         _______ _______ _______ _____ _____    ______ ____
ROOT
ATOM      1  O   UNL     1       2.185   8.784  17.425  0.00  0.00    +0.000 OA
ATOM      2  C   UNL     1       2.028   8.279  18.533  0.00  0.00    +0.000 C 
ATOM      3  N   UNL     1       2.451   7.009  18.864  0.00  0.00    +0.000 N 
ATOM      4  H   UNL     1       2.401   6.696  19.823  0.00  0.00    +0.000 HD
ENDROOT
BRANCH   2   5
ATOM      5  C   UNL     1       1.362   9.065  19.609  0.00  0.00    +0.000 A 
ATOM      6  C   UNL     1       1.165   8.454  20.853  0.00  0.00    +0.000 A 
ATOM      7  C   UNL     1       0.578   9.162  21.902  0.00  0.00    +0.000 A 
ATOM      8  C   UNL     1       0.205  10.496  21.724  0.00  0.00    +0.000 A 
ATOM      9  C   UNL     1       0.416  11.135  20.495  0.00  0.00    +0.000 A 
ATOM     10  C   UNL     1       0.991  10.404  19.436  0.00  0.00    +0.000 A 
BRANCH   9  11
ATOM     11  C   UNL     1       0.105  12.605  20.322  0.00  0.00    +0.000 C 
BRANCH  11  12
ATOM     12  N   UNL     1       1.261  13.367  19.881  0.00  0.00    +0.000 N 
ATOM     13  C   UNL     1       1.474  13.747  18.508  0.00  0.00    +0.000 C 
ATOM     14  C   UNL     1       2.843  14.401  18.540  0.00  0.00    +0.000 C 
ATOM     15  C   UNL     1       2.902  15.036  19.921  0.00  0.00    +0.000 C 
ATOM     16  C   UNL     1       2.051  14.107  20.748  0.00  0.00    +0.000 C 
ATOM     17  O   UNL     1       2.026  14.065  21.969  0.00  0.00    +0.000 OA
ENDBRANCH  11  12
ENDBRANCH   9  11
ENDBRANCH   2   5
BRANCH   3  18
ATOM     18  C   UNL     1       3.081   6.107  17.893  0.00  0.00    +0.000 C 
BRANCH  18  19
ATOM     19  C   UNL     1       4.606   6.087  18.074  0.00  0.00    +0.000 A 
ATOM     20  C   UNL     1       5.227   5.532  19.204  0.00  0.00    +0.000 A 
ATOM     21  C   UNL     1       6.619   5.393  19.277  0.00  0.00    +0.000 A 
ATOM     22  C   UNL     1       7.421   5.800  18.217  0.00  0.00    +0.000 A 
ATOM     23  C   UNL     1       6.835   6.363  17.090  0.00  0.00    +0.000 A 
ATOM     24  C   UNL     1       5.445   6.501  17.018  0.00  0.00    +0.000 A 
ENDBRANCH  18  19
BRANCH  18  25
ATOM     25  C   UNL     1       2.338   4.726  17.890  0.00  0.00    +0.000 C 
ATOM     26  C   UNL     1       1.668   4.463  19.260  0.00  0.00    +0.000 C 
ATOM     27  C   UNL     1       1.047   3.072  19.372  0.00  0.00    +0.000 C 
ATOM     28  C   UNL     1       2.065   1.991  19.038  0.00  0.00    +0.000 C 
ATOM     29  C   UNL     1       2.600   2.190  17.628  0.00  0.00    +0.000 C 
ATOM     30  C   UNL     1       3.259   3.559  17.472  0.00  0.00    +0.000 C 
ENDBRANCH  18  25
ENDBRANCH   3  18
TORSDOF 6
ENDMDL
MODEL 5
REMARK VINA RESULT:      -8.8      2.212      3.067
REMARK  Name = 
REMARK  6 active torsions:
REMARK  status: ('A' for Active; 'I' for Inactive)
REMARK    1  A    between atoms: C_2  and  C_17
REMARK    2  A    between atoms: N_3  and  C_4
REMARK    3  A    between atoms: C_4  and  C_5
REMARK    4  A    between atoms: C_4  and  C_11
REMARK    5  A    between atoms: C_21  and  C_22
REMARK    6  A    between atoms: C_22  and  N_23
REMARK                            x       y       z     vdW  Elec       q    Type
REMARK                         _______ _______ _______ _____ _____    ______ ____
ROOT
ATOM      1  O   UNL     1       1.883   7.981  17.503  0.00  0.00    +0.000 OA
ATOM      2  C   UNL     1       2.081   7.815  18.704  0.00  0.00    +0.000 C 
ATOM      3  N   UNL     1       2.844   6.789  19.220  0.00  0.00    +0.000 N 
ATOM      4  H   UNL     1       3.070   6.777  20.205  0.00  0.00    +0.000 HD
ENDROOT
BRANCH   2   5
ATOM      5  C   UNL     1       1.494   8.772  19.682  0.00  0.00    +0.000 A 
ATOM      6  C   UNL     1       1.294   8.338  20.998  0.00  0.00    +0.000 A 
ATOM      7  C   UNL     1       0.780   9.209  21.959  0.00  0.00    +0.000 A 
ATOM      8  C   UNL     1       0.484  10.531  21.618  0.00  0.00    +0.000 A 
ATOM      9  C   UNL     1       0.700  10.993  20.313  0.00  0.00    +0.000 A 
ATOM     10  C   UNL     1       1.200  10.100  19.346  0.00  0.00    +0.000 A 
BRANCH   9  11
ATOM     11  C   UNL     1       0.474  12.447  19.959  0.00  0.00    +0.000 C 
BRANCH  11  12
ATOM     12  N   UNL     1       1.703  13.120  19.572  0.00  0.00    +0.000 N 
ATOM     13  C   UNL     1       1.996  13.498  18.214  0.00  0.00    +0.000 C 
ATOM     14  C   UNL     1       3.411  14.040  18.306  0.00  0.00    +0.000 C 
ATOM     15  C   UNL     1       3.468  14.651  19.698  0.00  0.00    +0.000 C 
ATOM     16  C   UNL     1       2.515  13.783  20.478  0.00  0.00    +0.000 C 
ATOM     17  O   UNL     1       2.441  13.728  21.697  0.00  0.00    +0.000 OA
ENDBRANCH  11  12
ENDBRANCH   9  11
ENDBRANCH   2   5
BRANCH   3  18
ATOM     18  C   UNL     1       3.446   5.750  18.378  0.00  0.00    +0.000 C 
BRANCH  18  19
ATOM     19  C   UNL     1       4.963   5.953  18.257  0.00  0.00    +0.000 A 
ATOM     20  C   UNL     1       5.537   6.822  17.314  0.00  0.00    +0.000 A 
ATOM     21  C   UNL     1       6.909   7.102  17.321  0.00  0.00    +0.000 A 
ATOM     22  C   UNL     1       7.738   6.524  18.278  0.00  0.00    +0.000 A 
ATOM     23  C   UNL     1       7.200   5.652  19.216  0.00  0.00    +0.000 A 
ATOM     24  C   UNL     1       5.829   5.374  19.207  0.00  0.00    +0.000 A 
ENDBRANCH  18  19
BRANCH  18  25
ATOM     25  C   UNL     1       2.944   4.336  18.838  0.00  0.00    +0.000 C 
ATOM     26  C   UNL     1       2.656   3.434  17.614  0.00  0.00    +0.000 C 
ATOM     27  C   UNL     1       2.030   2.092  17.986  0.00  0.00    +0.000 C 
ATOM     28  C   UNL     1       0.781   2.288  18.835  0.00  0.00    +0.000 C 
ATOM     29  C   UNL     1       1.123   3.053  20.105  0.00  0.00    +0.000 C 
ATOM     30  C   UNL     1       1.728   4.418  19.785  0.00  0.00    +0.000 C 
ENDBRANCH  18  25
ENDBRANCH   3  18
TORSDOF 6
ENDMDL
MODEL 6
REMARK VINA RESULT:      -8.8      0.840      1.459
REMARK  Name = 
REMARK  6 active torsions:
REMARK  status: ('A' for Active; 'I' for Inactive)
REMARK    1  A    between atoms: C_2  and  C_17
REMARK    2  A    between atoms: N_3  and  C_4
REMARK    3  A    between atoms: C_4  and  C_5
REMARK    4  A    between atoms: C_4  and  C_11
REMARK    5  A    between atoms: C_21  and  C_22
REMARK    6  A    between atoms: C_22  and  N_23
REMARK                            x       y       z     vdW  Elec       q    Type
REMARK                         _______ _______ _______ _____ _____    ______ ____
ROOT
ATOM      1  O   UNL     1       3.009   8.364  17.099  0.00  0.00    +0.000 OA
ATOM      2  C   UNL     1       2.524   7.793  18.072  0.00  0.00    +0.000 C 
ATOM      3  N   UNL     1       2.761   6.471  18.381  0.00  0.00    +0.000 N 
ATOM      4  H   UNL     1       2.432   6.093  19.258  0.00  0.00    +0.000 HD
ENDROOT
BRANCH   2   5
ATOM      5  C   UNL     1       1.641   8.551  19.001  0.00  0.00    +0.000 A 
ATOM      6  C   UNL     1       1.666   8.218  20.361  0.00  0.00    +0.000 A 
ATOM      7  C   UNL     1       0.882   8.924  21.275  0.00  0.00    +0.000 A 
ATOM      8  C   UNL     1       0.085   9.985  20.840  0.00  0.00    +0.000 A 
ATOM      9  C   UNL     1       0.064  10.351  19.488  0.00  0.00    +0.000 A 
ATOM     10  C   UNL     1       0.843   9.619  18.571  0.00  0.00    +0.000 A 
BRANCH   9  11
ATOM     11  C   UNL     1      -0.720  11.559  19.024  0.00  0.00    +0.000 C 
BRANCH  11  12
ATOM     12  N   UNL     1      -1.885  11.192  18.236  0.00  0.00    +0.000 N 
ATOM     13  C   UNL     1      -1.862  10.153  17.240  0.00  0.00    +0.000 C 
ATOM     14  C   UNL     1      -3.248  10.235  16.625  0.00  0.00    +0.000 C 
ATOM     15  C   UNL     1      -4.125  10.686  17.784  0.00  0.00    +0.000 C 
ATOM     16  C   UNL     1      -3.179  11.522  18.607  0.00  0.00    +0.000 C 
ATOM     17  O   UNL     1      -3.507  12.306  19.485  0.00  0.00    +0.000 OA
ENDBRANCH  11  12
ENDBRANCH   9  11
ENDBRANCH   2   5
BRANCH   3  18
ATOM     18  C   UNL     1       3.575   5.593  17.533  0.00  0.00    +0.000 C 
BRANCH  18  19
ATOM     19  C   UNL     1       5.067   5.745  17.858  0.00  0.00    +0.000 A 
ATOM     20  C   UNL     1       5.961   6.423  17.013  0.00  0.00    +0.000 A 
ATOM     21  C   UNL     1       7.283   6.675  17.402  0.00  0.00    +0.000 A 
ATOM     22  C   UNL     1       7.738   6.262  18.650  0.00  0.00    +0.000 A 
ATOM     23  C   UNL     1       6.879   5.579  19.503  0.00  0.00    +0.000 A 
ATOM     24  C   UNL     1       5.560   5.328  19.113  0.00  0.00    +0.000 A 
ENDBRANCH  18  19
BRANCH  18  25
ATOM     25  C   UNL     1       2.980   4.141  17.544  0.00  0.00    +0.000 C 
ATOM     26  C   UNL     1       1.673   4.093  18.372  0.00  0.00    +0.000 C 
ATOM     27  C   UNL     1       1.117   2.681  18.542  0.00  0.00    +0.000 C 
ATOM     28  C   UNL     1       2.171   1.744  19.116  0.00  0.00    +0.000 C 
ATOM     29  C   UNL     1       3.388   1.699  18.204  0.00  0.00    +0.000 C 
ATOM     30  C   UNL     1       3.999   3.087  18.025  0.00  0.00    +0.000 C 
ENDBRANCH  18  25
ENDBRANCH   3  18
TORSDOF 6
ENDMDL
MODEL 7
REMARK VINA RESULT:      -8.8      1.403      2.086
REMARK  Name = 
REMARK  6 active torsions:
REMARK  status: ('A' for Active; 'I' for Inactive)
REMARK    1  A    between atoms: C_2  and  C_17
REMARK    2  A    between atoms: N_3  and  C_4
REMARK    3  A    between atoms: C_4  and  C_5
REMARK    4  A    between atoms: C_4  and  C_11
REMARK    5  A    between atoms: C_21  and  C_22
REMARK    6  A    between atoms: C_22  and  N_23
REMARK                            x       y       z     vdW  Elec       q    Type
REMARK                         _______ _______ _______ _____ _____    ______ ____
ROOT
ATOM      1  O   UNL     1       2.341   8.668  17.393  0.00  0.00    +0.000 OA
ATOM      2  C   UNL     1       2.198   8.132  18.489  0.00  0.00    +0.000 C 
ATOM      3  N   UNL     1       2.636   6.859  18.783  0.00  0.00    +0.000 N 
ATOM      4  H   UNL     1       2.597   6.520  19.734  0.00  0.00    +0.000 HD
ENDROOT
BRANCH   2   5
ATOM      5  C   UNL     1       1.534   8.884  19.590  0.00  0.00    +0.000 A 
ATOM      6  C   UNL     1       1.385   8.251  20.830  0.00  0.00    +0.000 A 
ATOM      7  C   UNL     1       0.802   8.927  21.902  0.00  0.00    +0.000 A 
ATOM      8  C   UNL     1       0.384  10.251  21.751  0.00  0.00    +0.000 A 
ATOM      9  C   UNL     1       0.547  10.912  20.526  0.00  0.00    +0.000 A 
ATOM     10  C   UNL     1       1.118  10.213  19.444  0.00  0.00    +0.000 A 
BRANCH   9  11
ATOM     11  C   UNL     1       0.186  12.374  20.380  0.00  0.00    +0.000 C 
BRANCH  11  12
ATOM     12  N   UNL     1      -1.226  12.621  20.615  0.00  0.00    +0.000 N 
ATOM     13  C   UNL     1      -2.263  12.147  19.735  0.00  0.00    +0.000 C 
ATOM     14  C   UNL     1      -3.522  12.753  20.329  0.00  0.00    +0.000 C 
ATOM     15  C   UNL     1      -3.225  12.800  21.820  0.00  0.00    +0.000 C 
ATOM     16  C   UNL     1      -1.731  12.990  21.853  0.00  0.00    +0.000 C 
ATOM     17  O   UNL     1      -1.082  13.350  22.824  0.00  0.00    +0.000 OA
ENDBRANCH  11  12
ENDBRANCH   9  11
ENDBRANCH   2   5
BRANCH   3  18
ATOM     18  C   UNL     1       3.266   5.989  17.784  0.00  0.00    +0.000 C 
BRANCH  18  19
ATOM     19  C   UNL     1       4.792   5.973  17.955  0.00  0.00    +0.000 A 
ATOM     20  C   UNL     1       5.660   6.635  17.071  0.00  0.00    +0.000 A 
ATOM     21  C   UNL     1       7.033   6.730  17.331  0.00  0.00    +0.000 A 
ATOM     22  C   UNL     1       7.568   6.171  18.487  0.00  0.00    +0.000 A 
ATOM     23  C   UNL     1       6.735   5.500  19.374  0.00  0.00    +0.000 A 
ATOM     24  C   UNL     1       5.365   5.406  19.113  0.00  0.00    +0.000 A 
ENDBRANCH  18  19
BRANCH  18  25
ATOM     25  C   UNL     1       2.532   4.603  17.746  0.00  0.00    +0.000 C 
ATOM     26  C   UNL     1       1.731   4.373  19.050  0.00  0.00    +0.000 C 
ATOM     27  C   UNL     1       1.107   2.982  19.140  0.00  0.00    +0.000 C 
ATOM     28  C   UNL     1       2.157   1.899  18.938  0.00  0.00    +0.000 C 
ATOM     29  C   UNL     1       2.828   2.062  17.582  0.00  0.00    +0.000 C 
ATOM     30  C   UNL     1       3.494   3.430  17.454  0.00  0.00    +0.000 C 
ENDBRANCH  18  25
ENDBRANCH   3  18
TORSDOF 6
ENDMDL
MODEL 8
REMARK VINA RESULT:      -8.8      2.040      2.954
REMARK  Name = 
REMARK  6 active torsions:
REMARK  status: ('A' for Active; 'I' for Inactive)
REMARK    1  A    between atoms: C_2  and  C_17
REMARK    2  A    between atoms: N_3  and  C_4
REMARK    3  A    between atoms: C_4  and  C_5
REMARK    4  A    between atoms: C_4  and  C_11
REMARK    5  A    between atoms: C_21  and  C_22
REMARK    6  A    between atoms: C_22  and  N_23
REMARK                            x       y       z     vdW  Elec       q    Type
REMARK                         _______ _______ _______ _____ _____    ______ ____
ROOT
ATOM      1  O   UNL     1       2.030   8.680  17.594  0.00  0.00    +0.000 OA
ATOM      2  C   UNL     1       1.985   8.139  18.695  0.00  0.00    +0.000 C 
ATOM      3  N   UNL     1       2.484   6.879  18.950  0.00  0.00    +0.000 N 
ATOM      4  H   UNL     1       2.526   6.538  19.900  0.00  0.00    +0.000 HD
ENDROOT
BRANCH   2   5
ATOM      5  C   UNL     1       1.382   8.867  19.845  0.00  0.00    +0.000 A 
ATOM      6  C   UNL     1       1.396   8.251  21.102  0.00  0.00    +0.000 A 
ATOM      7  C   UNL     1       0.874   8.909  22.217  0.00  0.00    +0.000 A 
ATOM      8  C   UNL     1       0.356  10.200  22.088  0.00  0.00    +0.000 A 
ATOM      9  C   UNL     1       0.356  10.845  20.844  0.00  0.00    +0.000 A 
ATOM     10  C   UNL     1       0.866  10.163  19.722  0.00  0.00    +0.000 A 
BRANCH   9  11
ATOM     11  C   UNL     1      -0.113  12.277  20.715  0.00  0.00    +0.000 C 
BRANCH  11  12
ATOM     12  N   UNL     1       0.879  13.129  20.080  0.00  0.00    +0.000 N 
ATOM     13  C   UNL     1       2.206  13.313  20.607  0.00  0.00    +0.000 C 
ATOM     14  C   UNL     1       2.801  14.361  19.682  0.00  0.00    +0.000 C 
ATOM     15  C   UNL     1       2.133  14.075  18.345  0.00  0.00    +0.000 C 
ATOM     16  C   UNL     1       0.789  13.533  18.757  0.00  0.00    +0.000 C 
ATOM     17  O   UNL     1      -0.184  13.419  18.027  0.00  0.00    +0.000 OA
ENDBRANCH  11  12
ENDBRANCH   9  11
ENDBRANCH   2   5
BRANCH   3  18
ATOM     18  C   UNL     1       3.065   6.030  17.904  0.00  0.00    +0.000 C 
BRANCH  18  19
ATOM     19  C   UNL     1       4.597   6.008  18.005  0.00  0.00    +0.000 A 
ATOM     20  C   UNL     1       5.425   6.692  17.100  0.00  0.00    +0.000 A 
ATOM     21  C   UNL     1       6.809   6.777  17.300  0.00  0.00    +0.000 A 
ATOM     22  C   UNL     1       7.395   6.187  18.414  0.00  0.00    +0.000 A 
ATOM     23  C   UNL     1       6.602   5.494  19.321  0.00  0.00    +0.000 A 
ATOM     24  C   UNL     1       5.220   5.409  19.120  0.00  0.00    +0.000 A 
ENDBRANCH  18  19
BRANCH  18  25
ATOM     25  C   UNL     1       2.326   4.647  17.869  0.00  0.00    +0.000 C 
ATOM     26  C   UNL     1       1.627   4.366  19.222  0.00  0.00    +0.000 C 
ATOM     27  C   UNL     1       1.008   2.973  19.304  0.00  0.00    +0.000 C 
ATOM     28  C   UNL     1       2.035   1.898  18.979  0.00  0.00    +0.000 C 
ATOM     29  C   UNL     1       2.599   2.115  17.583  0.00  0.00    +0.000 C 
ATOM     30  C   UNL     1       3.258   3.487  17.457  0.00  0.00    +0.000 C 
ENDBRANCH  18  25
ENDBRANCH   3  18
TORSDOF 6
ENDMDL
MODEL 9
REMARK VINA RESULT:      -8.7      1.830      2.796
REMARK  Name = 
REMARK  6 active torsions:
REMARK  status: ('A' for Active; 'I' for Inactive)
REMARK    1  A    between atoms: C_2  and  C_17
REMARK    2  A    between atoms: N_3  and  C_4
REMARK    3  A    between atoms: C_4  and  C_5
REMARK    4  A    between atoms: C_4  and  C_11
REMARK    5  A    between atoms: C_21  and  C_22
REMARK    6  A    between atoms: C_22  and  N_23
REMARK                            x       y       z     vdW  Elec       q    Type
REMARK                         _______ _______ _______ _____ _____    ______ ____
ROOT
ATOM      1  O   UNL     1       2.748   8.508  17.224  0.00  0.00    +0.000 OA
ATOM      2  C   UNL     1       2.432   7.920  18.254  0.00  0.00    +0.000 C 
ATOM      3  N   UNL     1       2.793   6.620  18.536  0.00  0.00    +0.000 N 
ATOM      4  H   UNL     1       2.606   6.233  19.451  0.00  0.00    +0.000 HD
ENDROOT
BRANCH   2   5
ATOM      5  C   UNL     1       1.630   8.632  19.287  0.00  0.00    +0.000 A 
ATOM      6  C   UNL     1       1.583   8.094  20.579  0.00  0.00    +0.000 A 
ATOM      7  C   UNL     1       0.873   8.745  21.589  0.00  0.00    +0.000 A 
ATOM      8  C   UNL     1       0.224   9.952  21.323  0.00  0.00    +0.000 A 
ATOM      9  C   UNL     1       0.279  10.521  20.043  0.00  0.00    +0.000 A 
ATOM     10  C   UNL     1       0.981   9.846  19.026  0.00  0.00    +0.000 A 
BRANCH   9  11
ATOM     11  C   UNL     1      -0.339  11.875  19.770  0.00  0.00    +0.000 C 
BRANCH  11  12
ATOM     12  N   UNL     1       0.652  12.938  19.737  0.00  0.00    +0.000 N 
ATOM     13  C   UNL     1       1.118  13.537  18.513  0.00  0.00    +0.000 C 
ATOM     14  C   UNL     1       2.208  14.483  18.986  0.00  0.00    +0.000 C 
ATOM     15  C   UNL     1       1.725  14.922  20.360  0.00  0.00    +0.000 C 
ATOM     16  C   UNL     1       0.957  13.718  20.841  0.00  0.00    +0.000 C 
ATOM     17  O   UNL     1       0.618  13.508  21.996  0.00  0.00    +0.000 OA
ENDBRANCH  11  12
ENDBRANCH   9  11
ENDBRANCH   2   5
BRANCH   3  18
ATOM     18  C   UNL     1       3.544   5.785  17.593  0.00  0.00    +0.000 C 
BRANCH  18  19
ATOM     19  C   UNL     1       5.053   5.873  17.864  0.00  0.00    +0.000 A 
ATOM     20  C   UNL     1       5.939   6.543  17.005  0.00  0.00    +0.000 A 
ATOM     21  C   UNL     1       7.283   6.735  17.349  0.00  0.00    +0.000 A 
ATOM     22  C   UNL     1       7.770   6.268  18.566  0.00  0.00    +0.000 A 
ATOM     23  C   UNL     1       6.919   5.592  19.431  0.00  0.00    +0.000 A 
ATOM     24  C   UNL     1       5.577   5.400  19.086  0.00  0.00    +0.000 A 
ENDBRANCH  18  19
BRANCH  18  25
ATOM     25  C   UNL     1       2.908   4.353  17.526  0.00  0.00    +0.000 C 
ATOM     26  C   UNL     1       1.694   4.249  18.481  0.00  0.00    +0.000 C 
ATOM     27  C   UNL     1       1.114   2.839  18.570  0.00  0.00    +0.000 C 
ATOM     28  C   UNL     1       2.192   1.827  18.933  0.00  0.00    +0.000 C 
ATOM     29  C   UNL     1       3.304   1.847  17.895  0.00  0.00    +0.000 C 
ATOM     30  C   UNL     1       3.938   3.233  17.788  0.00  0.00    +0.000 C 
ENDBRANCH  18  25
ENDBRANCH   3  18
TORSDOF 6
ENDMDL
