MODEL 1
REMARK VINA RESULT:      -9.5      0.000      0.000
REMARK  Name = 
REMARK  7 active torsions:
REMARK  status: ('A' for Active; 'I' for Inactive)
REMARK    1  A    between atoms: C_2  and  C_3
REMARK    2  A    between atoms: C_3  and  N_4
REMARK    3  A    between atoms: C_6  and  S_7
REMARK    4  A    between atoms: S_7  and  N_10
REMARK    5  A    between atoms: N_19  and  C_20
REMARK    6  A    between atoms: C_20  and  C_21
REMARK    7  A    between atoms: C_21  and  C_22
REMARK                            x       y       z     vdW  Elec       q    Type
REMARK                         _______ _______ _______ _____ _____    ______ ____
ROOT
ATOM      1  O   UNL     1       7.174   7.867  16.954  0.00  0.00    +0.000 OA
ATOM      2  C   UNL     1       7.772   7.453  17.944  0.00  0.00    +0.000 C 
ATOM      3  N   UNL     1       8.547   8.260  18.754  0.00  0.00    +0.000 N 
ATOM      4  H   UNL     1       8.899   7.880  19.623  0.00  0.00    +0.000 HD
ENDROOT
BRANCH   2   5
ATOM      5  C   UNL     1       7.696   5.986  18.403  0.00  0.00    +0.000 C 
BRANCH   5   6
ATOM      6  N   UNL     1       6.550   5.284  17.805  0.00  0.00    +0.000 N 
ATOM      7  C   UNL     1       5.290   5.363  18.399  0.00  0.00    +0.000 A 
ATOM      8  C   UNL     1       4.231   4.751  17.853  0.00  0.00    +0.000 A 
ATOM      9  C   UNL     1       4.409   3.978  16.632  0.00  0.00    +0.000 A 
ATOM     10  C   UNL     1       5.608   3.899  16.040  0.00  0.00    +0.000 A 
ATOM     11  C   UNL     1       6.783   4.602  16.620  0.00  0.00    +0.000 A 
ATOM     12  O   UNL     1       7.867   4.531  16.050  0.00  0.00    +0.000 OA
BRANCH   8  13
ATOM     13  S   UNL     1       2.653   4.868  18.621  0.00  0.00    +0.000 S 
ATOM     14  O   UNL     1       2.734   5.898  19.638  0.00  0.00    +0.000 OA
ATOM     15  O   UNL     1       1.641   4.966  17.588  0.00  0.00    +0.000 OA
BRANCH  13  16
ATOM     16  N   UNL     1       2.379   3.426  19.459  0.00  0.00    +0.000 NA
ATOM     17  C   UNL     1       1.042   3.175  20.027  0.00  0.00    +0.000 C 
ATOM     18  C   UNL     1       1.308   3.046  21.519  0.00  0.00    +0.000 C 
ATOM     19  C   UNL     1       2.637   2.321  21.555  0.00  0.00    +0.000 C 
ATOM     20  C   UNL     1       3.411   2.915  20.387  0.00  0.00    +0.000 C 
ENDBRANCH  13  16
ENDBRANCH   8  13
ENDBRANCH   5   6
ENDBRANCH   2   5
BRANCH   3  21
ATOM     21  C   UNL     1       8.716   9.689  18.517  0.00  0.00    +0.000 C 
BRANCH  21  22
ATOM     22  C   UNL     1       9.570  10.335  19.611  0.00  0.00    +0.000 C 
BRANCH  22  23
ATOM     23  C   UNL     1       9.676  11.823  19.516  0.00  0.00    +0.000 A 
ATOM     24  C   UNL     1       8.996  12.719  20.320  0.00  0.00    +0.000 A 
ATOM     25  N   UNL     1       9.481  13.967  20.050  0.00  0.00    +0.000 N 
ATOM     26  C   UNL     1      10.133  13.944  18.842  0.00  0.00    +0.000 A 
ATOM     27  C   UNL     1      10.493  14.992  17.990  0.00  0.00    +0.000 A 
ATOM     28  C   UNL     1      11.244  14.665  16.860  0.00  0.00    +0.000 A 
ATOM     29  C   UNL     1      11.699  13.362  16.659  0.00  0.00    +0.000 A 
ATOM     30  C   UNL     1      11.316  12.323  17.520  0.00  0.00    +0.000 A 
ATOM     31  C   UNL     1      10.438  12.607  18.586  0.00  0.00    +0.000 A 
ATOM     32  H   UNL     1       9.342  14.791  20.618  0.00  0.00    +0.000 HD
ENDBRANCH  22  23
ENDBRANCH  21  22
ENDBRANCH   3  21
TORSDOF 7
ENDMDL
MODEL 2
REMARK VINA RESULT:      -9.0      1.131      1.894
REMARK  Name = 
REMARK  7 active torsions:
REMARK  status: ('A' for Active; 'I' for Inactive)
REMARK    1  A    between atoms: C_2  and  C_3
REMARK    2  A    between atoms: C_3  and  N_4
REMARK    3  A    between atoms: C_6  and  S_7
REMARK    4  A    between atoms: S_7  and  N_10
REMARK    5  A    between atoms: N_19  and  C_20
REMARK    6  A    between atoms: C_20  and  C_21
REMARK    7  A    between atoms: C_21  and  C_22
REMARK                            x       y       z     vdW  Elec       q    Type
REMARK                         _______ _______ _______ _____ _____    ______ ____
ROOT
ATOM      1  O   UNL     1       7.079   7.986  16.962  0.00  0.00    +0.000 OA
ATOM      2  C   UNL     1       7.749   7.532  17.885  0.00  0.00    +0.000 C 
ATOM      3  N   UNL     1       8.584   8.306  18.667  0.00  0.00    +0.000 N 
ATOM      4  H   UNL     1       9.000   7.890  19.490  0.00  0.00    +0.000 HD
ENDROOT
BRANCH   2   5
ATOM      5  C   UNL     1       7.704   6.047  18.288  0.00  0.00    +0.000 C 
BRANCH   5   6
ATOM      6  N   UNL     1       6.552   5.352  17.693  0.00  0.00    +0.000 N 
ATOM      7  C   UNL     1       5.299   5.422  18.304  0.00  0.00    +0.000 A 
ATOM      8  C   UNL     1       4.234   4.817  17.761  0.00  0.00    +0.000 A 
ATOM      9  C   UNL     1       4.398   4.062  16.527  0.00  0.00    +0.000 A 
ATOM     10  C   UNL     1       5.590   3.993  15.919  0.00  0.00    +0.000 A 
ATOM     11  C   UNL     1       6.771   4.689  16.496  0.00  0.00    +0.000 A 
ATOM     12  O   UNL     1       7.848   4.627  15.911  0.00  0.00    +0.000 OA
BRANCH   8  13
ATOM     13  S   UNL     1       2.665   4.921  18.549  0.00  0.00    +0.000 S 
ATOM     14  O   UNL     1       2.556   6.241  19.140  0.00  0.00    +0.000 OA
ATOM     15  O   UNL     1       1.649   4.472  17.620  0.00  0.00    +0.000 OA
BRANCH  13  16
ATOM     16  N   UNL     1       2.670   3.843  19.851  0.00  0.00    +0.000 NA
ATOM     17  C   UNL     1       2.276   2.442  19.618  0.00  0.00    +0.000 C 
ATOM     18  C   UNL     1       1.063   2.259  20.518  0.00  0.00    +0.000 C 
ATOM     19  C   UNL     1       1.434   3.075  21.739  0.00  0.00    +0.000 C 
ATOM     20  C   UNL     1       2.156   4.286  21.166  0.00  0.00    +0.000 C 
ENDBRANCH  13  16
ENDBRANCH   8  13
ENDBRANCH   5   6
ENDBRANCH   2   5
BRANCH   3  21
ATOM     21  C   UNL     1       8.738   9.743  18.477  0.00  0.00    +0.000 C 
BRANCH  21  22
ATOM     22  C   UNL     1       9.392  10.396  19.698  0.00  0.00    +0.000 C 
BRANCH  22  23
ATOM     23  C   UNL     1      10.115  11.671  19.404  0.00  0.00    +0.000 A 
ATOM     24  C   UNL     1      10.999  11.857  18.357  0.00  0.00    +0.000 A 
ATOM     25  N   UNL     1      11.316  13.185  18.315  0.00  0.00    +0.000 N 
ATOM     26  C   UNL     1      10.997  13.762  19.519  0.00  0.00    +0.000 A 
ATOM     27  C   UNL     1      11.421  14.968  20.084  0.00  0.00    +0.000 A 
ATOM     28  C   UNL     1      10.844  15.341  21.299  0.00  0.00    +0.000 A 
ATOM     29  C   UNL     1       9.814  14.587  21.860  0.00  0.00    +0.000 A 
ATOM     30  C   UNL     1       9.412  13.373  21.283  0.00  0.00    +0.000 A 
ATOM     31  C   UNL     1      10.083  12.906  20.134  0.00  0.00    +0.000 A 
ATOM     32  H   UNL     1      11.761  13.663  17.544  0.00  0.00    +0.000 HD
ENDBRANCH  22  23
ENDBRANCH  21  22
ENDBRANCH   3  21
TORSDOF 7
ENDMDL
MODEL 3
REMARK VINA RESULT:      -9.0      0.678      1.034
REMARK  Name = 
REMARK  7 active torsions:
REMARK  status: ('A' for Active; 'I' for Inactive)
REMARK    1  A    between atoms: C_2  and  C_3
REMARK    2  A    between atoms: C_3  and  N_4
REMARK    3  A    between atoms: C_6  and  S_7
REMARK    4  A    between atoms: S_7  and  N_10
REMARK    5  A    between atoms: N_19  and  C_20
REMARK    6  A    between atoms: C_20  and  C_21
REMARK    7  A    between atoms: C_21  and  C_22
REMARK                            x       y       z     vdW  Elec       q    Type
REMARK                         _______ _______ _______ _____ _____    ______ ____
ROOT
ATOM      1  O   UNL     1       7.378   8.004  17.028  0.00  0.00    +0.000 OA
ATOM      2  C   UNL     1       7.922   7.598  18.052  0.00  0.00    +0.000 C 
ATOM      3  N   UNL     1       8.702   8.399  18.863  0.00  0.00    +0.000 N 
ATOM      4  H   UNL     1       9.006   8.033  19.756  0.00  0.00    +0.000 HD
ENDROOT
BRANCH   2   5
ATOM      5  C   UNL     1       7.766   6.152  18.554  0.00  0.00    +0.000 C 
BRANCH   5   6
ATOM      6  N   UNL     1       6.574   5.501  17.990  0.00  0.00    +0.000 N 
ATOM      7  C   UNL     1       5.311   5.766  18.522  0.00  0.00    +0.000 A 
ATOM      8  C   UNL     1       4.212   5.202  18.003  0.00  0.00    +0.000 A 
ATOM      9  C   UNL     1       4.348   4.286  16.879  0.00  0.00    +0.000 A 
ATOM     10  C   UNL     1       5.550   4.028  16.345  0.00  0.00    +0.000 A 
ATOM     11  C   UNL     1       6.771   4.676  16.894  0.00  0.00    +0.000 A 
ATOM     12  O   UNL     1       7.859   4.439  16.377  0.00  0.00    +0.000 OA
BRANCH   8  13
ATOM     13  S   UNL     1       2.633   5.552  18.692  0.00  0.00    +0.000 S 
ATOM     14  O   UNL     1       2.827   6.480  19.789  0.00  0.00    +0.000 OA
ATOM     15  O   UNL     1       1.726   5.900  17.617  0.00  0.00    +0.000 OA
BRANCH  13  16
ATOM     16  N   UNL     1       2.053   4.131  19.401  0.00  0.00    +0.000 NA
ATOM     17  C   UNL     1       2.975   3.307  20.204  0.00  0.00    +0.000 C 
ATOM     18  C   UNL     1       2.992   1.975  19.470  0.00  0.00    +0.000 C 
ATOM     19  C   UNL     1       1.554   1.833  19.014  0.00  0.00    +0.000 C 
ATOM     20  C   UNL     1       1.148   3.249  18.632  0.00  0.00    +0.000 C 
ENDBRANCH  13  16
ENDBRANCH   8  13
ENDBRANCH   5   6
ENDBRANCH   2   5
BRANCH   3  21
ATOM     21  C   UNL     1       8.941   9.811  18.587  0.00  0.00    +0.000 C 
BRANCH  21  22
ATOM     22  C   UNL     1       9.470  10.536  19.827  0.00  0.00    +0.000 C 
BRANCH  22  23
ATOM     23  C   UNL     1       9.622  12.013  19.662  0.00  0.00    +0.000 A 
ATOM     24  C   UNL     1       8.985  12.968  20.434  0.00  0.00    +0.000 A 
ATOM     25  N   UNL     1       9.506  14.185  20.099  0.00  0.00    +0.000 N 
ATOM     26  C   UNL     1      10.136  14.086  18.884  0.00  0.00    +0.000 A 
ATOM     27  C   UNL     1      10.516  15.081  17.979  0.00  0.00    +0.000 A 
ATOM     28  C   UNL     1      11.237  14.678  16.854  0.00  0.00    +0.000 A 
ATOM     29  C   UNL     1      11.646  13.353  16.706  0.00  0.00    +0.000 A 
ATOM     30  C   UNL     1      11.244  12.368  17.620  0.00  0.00    +0.000 A 
ATOM     31  C   UNL     1      10.394  12.729  18.685  0.00  0.00    +0.000 A 
ATOM     32  H   UNL     1       9.402  15.038  20.630  0.00  0.00    +0.000 HD
ENDBRANCH  22  23
ENDBRANCH  21  22
ENDBRANCH   3  21
TORSDOF 7
ENDMDL
MODEL 4
REMARK VINA RESULT:      -8.9      1.521      2.037
REMARK  Name = 
REMARK  7 active torsions:
REMARK  status: ('A' for Active; 'I' for Inactive)
REMARK    1  A    between atoms: C_2  and  C_3
REMARK    2  A    between atoms: C_3  and  N_4
REMARK    3  A    between atoms: C_6  and  S_7
REMARK    4  A    between atoms: S_7  and  N_10
REMARK    5  A    between atoms: N_19  and  C_20
REMARK    6  A    between atoms: C_20  and  C_21
REMARK    7  A    between atoms: C_21  and  C_22
REMARK                            x       y       z     vdW  Elec       q    Type
REMARK                         _______ _______ _______ _____ _____    ______ ____
ROOT
ATOM      1  O   UNL     1       6.258   7.821  17.105  0.00  0.00    +0.000 OA
ATOM      2  C   UNL     1       7.293   7.397  17.614  0.00  0.00    +0.000 C 
ATOM      3  N   UNL     1       8.275   8.220  18.129  0.00  0.00    +0.000 N 
ATOM      4  H   UNL     1       9.034   7.800  18.651  0.00  0.00    +0.000 HD
ENDROOT
BRANCH   2   5
ATOM      5  C   UNL     1       7.589   5.894  17.757  0.00  0.00    +0.000 C 
BRANCH   5   6
ATOM      6  N   UNL     1       6.635   5.072  16.997  0.00  0.00    +0.000 N 
ATOM      7  C   UNL     1       5.549   4.479  17.642  0.00  0.00    +0.000 A 
ATOM      8  C   UNL     1       4.656   3.749  16.960  0.00  0.00    +0.000 A 
ATOM      9  C   UNL     1       4.839   3.561  15.527  0.00  0.00    +0.000 A 
ATOM     10  C   UNL     1       5.868   4.133  14.887  0.00  0.00    +0.000 A 
ATOM     11  C   UNL     1       6.846   4.972  15.630  0.00  0.00    +0.000 A 
ATOM     12  O   UNL     1       7.769   5.500  15.018  0.00  0.00    +0.000 OA
BRANCH   8  13
ATOM     13  S   UNL     1       3.296   3.013  17.797  0.00  0.00    +0.000 S 
ATOM     14  O   UNL     1       2.100   3.298  17.028  0.00  0.00    +0.000 OA
ATOM     15  O   UNL     1       3.632   1.639  18.107  0.00  0.00    +0.000 OA
BRANCH  13  16
ATOM     16  N   UNL     1       3.092   3.826  19.265  0.00  0.00    +0.000 NA
ATOM     17  C   UNL     1       2.927   3.038  20.499  0.00  0.00    +0.000 C 
ATOM     18  C   UNL     1       1.555   3.454  21.007  0.00  0.00    +0.000 C 
ATOM     19  C   UNL     1       1.514   4.931  20.668  0.00  0.00    +0.000 C 
ATOM     20  C   UNL     1       2.218   5.019  19.323  0.00  0.00    +0.000 C 
ENDBRANCH  13  16
ENDBRANCH   8  13
ENDBRANCH   5   6
ENDBRANCH   2   5
BRANCH   3  21
ATOM     21  C   UNL     1       8.169   9.674  18.131  0.00  0.00    +0.000 C 
BRANCH  21  22
ATOM     22  C   UNL     1       9.543  10.329  18.298  0.00  0.00    +0.000 C 
BRANCH  22  23
ATOM     23  C   UNL     1       9.677  11.178  19.521  0.00  0.00    +0.000 A 
ATOM     24  C   UNL     1       9.178  10.854  20.770  0.00  0.00    +0.000 A 
ATOM     25  N   UNL     1       9.648  11.781  21.656  0.00  0.00    +0.000 N 
ATOM     26  C   UNL     1      10.075  12.888  20.965  0.00  0.00    +0.000 A 
ATOM     27  C   UNL     1      10.312  14.193  21.405  0.00  0.00    +0.000 A 
ATOM     28  C   UNL     1      10.842  15.092  20.478  0.00  0.00    +0.000 A 
ATOM     29  C   UNL     1      11.213  14.666  19.203  0.00  0.00    +0.000 A 
ATOM     30  C   UNL     1      10.955  13.354  18.777  0.00  0.00    +0.000 A 
ATOM     31  C   UNL     1      10.288  12.471  19.650  0.00  0.00    +0.000 A 
ATOM     32  H   UNL     1       9.636  11.696  22.662  0.00  0.00    +0.000 HD
ENDBRANCH  22  23
ENDBRANCH  21  22
ENDBRANCH   3  21
TORSDOF 7
ENDMDL
MODEL 5
REMARK VINA RESULT:      -8.9      1.686      2.280
REMARK  Name = 
REMARK  7 active torsions:
REMARK  status: ('A' for Active; 'I' for Inactive)
REMARK    1  A    between atoms: C_2  and  C_3
REMARK    2  A    between atoms: C_3  and  N_4
REMARK    3  A    between atoms: C_6  and  S_7
REMARK    4  A    between atoms: S_7  and  N_10
REMARK    5  A    between atoms: N_19  and  C_20
REMARK    6  A    between atoms: C_20  and  C_21
REMARK    7  A    between atoms: C_21  and  C_22
REMARK                            x       y       z     vdW  Elec       q    Type
REMARK                         _______ _______ _______ _____ _____    ______ ____
ROOT
ATOM      1  O   UNL     1       6.414   7.828  17.358  0.00  0.00    +0.000 OA
ATOM      2  C   UNL     1       7.452   7.422  17.875  0.00  0.00    +0.000 C 
ATOM      3  N   UNL     1       8.465   8.260  18.298  0.00  0.00    +0.000 N 
ATOM      4  H   UNL     1       9.228   7.866  18.833  0.00  0.00    +0.000 HD
ENDROOT
BRANCH   2   5
ATOM      5  C   UNL     1       7.719   5.929  18.133  0.00  0.00    +0.000 C 
BRANCH   5   6
ATOM      6  N   UNL     1       6.695   5.074  17.512  0.00  0.00    +0.000 N 
ATOM      7  C   UNL     1       5.679   4.519  18.291  0.00  0.00    +0.000 A 
ATOM      8  C   UNL     1       4.724   3.759  17.737  0.00  0.00    +0.000 A 
ATOM      9  C   UNL     1       4.765   3.499  16.305  0.00  0.00    +0.000 A 
ATOM     10  C   UNL     1       5.726   4.033  15.538  0.00  0.00    +0.000 A 
ATOM     11  C   UNL     1       6.770   4.904  16.138  0.00  0.00    +0.000 A 
ATOM     12  O   UNL     1       7.629   5.397  15.413  0.00  0.00    +0.000 OA
BRANCH   8  13
ATOM     13  S   UNL     1       3.453   3.071  18.740  0.00  0.00    +0.000 S 
ATOM     14  O   UNL     1       2.734   2.103  17.935  0.00  0.00    +0.000 OA
ATOM     15  O   UNL     1       4.032   2.658  20.002  0.00  0.00    +0.000 OA
BRANCH  13  16
ATOM     16  N   UNL     1       2.338   4.297  19.073  0.00  0.00    +0.000 NA
ATOM     17  C   UNL     1       2.288   5.475  18.187  0.00  0.00    +0.000 C 
ATOM     18  C   UNL     1       2.617   6.633  19.117  0.00  0.00    +0.000 C 
ATOM     19  C   UNL     1       1.921   6.232  20.401  0.00  0.00    +0.000 C 
ATOM     20  C   UNL     1       2.121   4.725  20.472  0.00  0.00    +0.000 C 
ENDBRANCH  13  16
ENDBRANCH   8  13
ENDBRANCH   5   6
ENDBRANCH   2   5
BRANCH   3  21
ATOM     21  C   UNL     1       8.391   9.712  18.183  0.00  0.00    +0.000 C 
BRANCH  21  22
ATOM     22  C   UNL     1       9.374  10.394  19.138  0.00  0.00    +0.000 C 
BRANCH  22  23
ATOM     23  C   UNL     1      10.252  11.419  18.495  0.00  0.00    +0.000 A 
ATOM     24  C   UNL     1      11.583  11.232  18.171  0.00  0.00    +0.000 A 
ATOM     25  N   UNL     1      11.989  12.318  17.449  0.00  0.00    +0.000 N 
ATOM     26  C   UNL     1      11.106  13.349  17.651  0.00  0.00    +0.000 A 
ATOM     27  C   UNL     1      11.250  14.721  17.424  0.00  0.00    +0.000 A 
ATOM     28  C   UNL     1      10.128  15.523  17.638  0.00  0.00    +0.000 A 
ATOM     29  C   UNL     1       8.896  14.955  17.962  0.00  0.00    +0.000 A 
ATOM     30  C   UNL     1       8.776  13.577  18.198  0.00  0.00    +0.000 A 
ATOM     31  C   UNL     1       9.929  12.769  18.128  0.00  0.00    +0.000 A 
ATOM     32  H   UNL     1      12.832  12.378  16.895  0.00  0.00    +0.000 HD
ENDBRANCH  22  23
ENDBRANCH  21  22
ENDBRANCH   3  21
TORSDOF 7
ENDMDL
MODEL 6
REMARK VINA RESULT:      -8.5      1.449      1.908
REMARK  Name = 
REMARK  7 active torsions:
REMARK  status: ('A' for Active; 'I' for Inactive)
REMARK    1  A    between atoms: C_2  and  C_3
REMARK    2  A    between atoms: C_3  and  N_4
REMARK    3  A    between atoms: C_6  and  S_7
REMARK    4  A    between atoms: S_7  and  N_10
REMARK    5  A    between atoms: N_19  and  C_20
REMARK    6  A    between atoms: C_20  and  C_21
REMARK    7  A    between atoms: C_21  and  C_22
REMARK                            x       y       z     vdW  Elec       q    Type
REMARK                         _______ _______ _______ _____ _____    ______ ____
ROOT
ATOM      1  O   UNL     1       7.944   6.842  18.579  0.00  0.00    +0.000 OA
ATOM      2  C   UNL     1       7.661   7.757  17.809  0.00  0.00    +0.000 C 
ATOM      3  N   UNL     1       8.149   9.041  17.947  0.00  0.00    +0.000 N 
ATOM      4  H   UNL     1       7.981   9.706  17.203  0.00  0.00    +0.000 HD
ENDROOT
BRANCH   2   5
ATOM      5  C   UNL     1       6.751   7.556  16.585  0.00  0.00    +0.000 C 
BRANCH   5   6
ATOM      6  N   UNL     1       6.052   6.262  16.628  0.00  0.00    +0.000 N 
ATOM      7  C   UNL     1       4.827   6.148  17.288  0.00  0.00    +0.000 A 
ATOM      8  C   UNL     1       4.164   4.984  17.314  0.00  0.00    +0.000 A 
ATOM      9  C   UNL     1       4.746   3.821  16.658  0.00  0.00    +0.000 A 
ATOM     10  C   UNL     1       5.915   3.913  16.009  0.00  0.00    +0.000 A 
ATOM     11  C   UNL     1       6.641   5.209  15.946  0.00  0.00    +0.000 A 
ATOM     12  O   UNL     1       7.700   5.273  15.329  0.00  0.00    +0.000 OA
BRANCH   8  13
ATOM     13  S   UNL     1       2.623   4.866  18.152  0.00  0.00    +0.000 S 
ATOM     14  O   UNL     1       2.227   6.207  18.536  0.00  0.00    +0.000 OA
ATOM     15  O   UNL     1       1.722   4.060  17.353  0.00  0.00    +0.000 OA
BRANCH  13  16
ATOM     16  N   UNL     1       2.886   4.041  19.603  0.00  0.00    +0.000 NA
ATOM     17  C   UNL     1       2.721   2.576  19.629  0.00  0.00    +0.000 C 
ATOM     18  C   UNL     1       1.612   2.361  20.648  0.00  0.00    +0.000 C 
ATOM     19  C   UNL     1       1.911   3.422  21.688  0.00  0.00    +0.000 C 
ATOM     20  C   UNL     1       2.383   4.615  20.870  0.00  0.00    +0.000 C 
ENDBRANCH  13  16
ENDBRANCH   8  13
ENDBRANCH   5   6
ENDBRANCH   2   5
BRANCH   3  21
ATOM     21  C   UNL     1       9.061   9.431  19.017  0.00  0.00    +0.000 C 
BRANCH  21  22
ATOM     22  C   UNL     1       9.607  10.843  18.791  0.00  0.00    +0.000 C 
BRANCH  22  23
ATOM     23  C   UNL     1       9.652  11.692  20.021  0.00  0.00    +0.000 A 
ATOM     24  C   UNL     1       9.065  11.367  21.230  0.00  0.00    +0.000 A 
ATOM     25  N   UNL     1       9.467  12.296  22.147  0.00  0.00    +0.000 N 
ATOM     26  C   UNL     1       9.942  13.403  21.488  0.00  0.00    +0.000 A 
ATOM     27  C   UNL     1      10.144  14.709  21.945  0.00  0.00    +0.000 A 
ATOM     28  C   UNL     1      10.738  15.608  21.058  0.00  0.00    +0.000 A 
ATOM     29  C   UNL     1      11.201  15.183  19.813  0.00  0.00    +0.000 A 
ATOM     30  C   UNL     1      10.976  13.871  19.370  0.00  0.00    +0.000 A 
ATOM     31  C   UNL     1      10.250  12.986  20.193  0.00  0.00    +0.000 A 
ATOM     32  H   UNL     1       9.383  12.211  23.150  0.00  0.00    +0.000 HD
ENDBRANCH  22  23
ENDBRANCH  21  22
ENDBRANCH   3  21
TORSDOF 7
ENDMDL
MODEL 7
REMARK VINA RESULT:      -8.4      1.267      1.821
REMARK  Name = 
REMARK  7 active torsions:
REMARK  status: ('A' for Active; 'I' for Inactive)
REMARK    1  A    between atoms: C_2  and  C_3
REMARK    2  A    between atoms: C_3  and  N_4
REMARK    3  A    between atoms: C_6  and  S_7
REMARK    4  A    between atoms: S_7  and  N_10
REMARK    5  A    between atoms: N_19  and  C_20
REMARK    6  A    between atoms: C_20  and  C_21
REMARK    7  A    between atoms: C_21  and  C_22
REMARK                            x       y       z     vdW  Elec       q    Type
REMARK                         _______ _______ _______ _____ _____    ______ ____
ROOT
ATOM      1  O   UNL     1       6.971   8.349  16.938  0.00  0.00    +0.000 OA
ATOM      2  C   UNL     1       7.711   7.864  17.791  0.00  0.00    +0.000 C 
ATOM      3  N   UNL     1       8.586   8.616  18.550  0.00  0.00    +0.000 N 
ATOM      4  H   UNL     1       9.064   8.170  19.322  0.00  0.00    +0.000 HD
ENDROOT
BRANCH   2   5
ATOM      5  C   UNL     1       7.718   6.362  18.123  0.00  0.00    +0.000 C 
BRANCH   5   6
ATOM      6  N   UNL     1       6.563   5.665  17.537  0.00  0.00    +0.000 N 
ATOM      7  C   UNL     1       5.376   5.541  18.261  0.00  0.00    +0.000 A 
ATOM      8  C   UNL     1       4.306   4.932  17.732  0.00  0.00    +0.000 A 
ATOM      9  C   UNL     1       4.396   4.379  16.388  0.00  0.00    +0.000 A 
ATOM     10  C   UNL     1       5.523   4.499  15.671  0.00  0.00    +0.000 A 
ATOM     11  C   UNL     1       6.705   5.202  16.238  0.00  0.00    +0.000 A 
ATOM     12  O   UNL     1       7.719   5.316  15.556  0.00  0.00    +0.000 OA
BRANCH   8  13
ATOM     13  S   UNL     1       2.823   4.789  18.665  0.00  0.00    +0.000 S 
ATOM     14  O   UNL     1       2.949   5.648  19.826  0.00  0.00    +0.000 OA
ATOM     15  O   UNL     1       1.695   4.961  17.771  0.00  0.00    +0.000 OA
BRANCH  13  16
ATOM     16  N   UNL     1       2.747   3.215  19.275  0.00  0.00    +0.000 NA
ATOM     17  C   UNL     1       3.494   2.890  20.504  0.00  0.00    +0.000 C 
ATOM     18  C   UNL     1       4.460   1.804  20.056  0.00  0.00    +0.000 C 
ATOM     19  C   UNL     1       3.629   1.010  19.070  0.00  0.00    +0.000 C 
ATOM     20  C   UNL     1       2.812   2.067  18.343  0.00  0.00    +0.000 C 
ENDBRANCH  13  16
ENDBRANCH   8  13
ENDBRANCH   5   6
ENDBRANCH   2   5
BRANCH   3  21
ATOM     21  C   UNL     1       8.703  10.064  18.420  0.00  0.00    +0.000 C 
BRANCH  21  22
ATOM     22  C   UNL     1       9.898  10.596  19.215  0.00  0.00    +0.000 C 
BRANCH  22  23
ATOM     23  C   UNL     1      10.696  11.643  18.507  0.00  0.00    +0.000 A 
ATOM     24  C   UNL     1      12.012  11.502  18.108  0.00  0.00    +0.000 A 
ATOM     25  N   UNL     1      12.333  12.591  17.348  0.00  0.00    +0.000 N 
ATOM     26  C   UNL     1      11.423  13.590  17.587  0.00  0.00    +0.000 A 
ATOM     27  C   UNL     1      11.499  14.963  17.332  0.00  0.00    +0.000 A 
ATOM     28  C   UNL     1      10.361  15.725  17.601  0.00  0.00    +0.000 A 
ATOM     29  C   UNL     1       9.173  15.116  18.005  0.00  0.00    +0.000 A 
ATOM     30  C   UNL     1       9.122  13.739  18.267  0.00  0.00    +0.000 A 
ATOM     31  C   UNL     1      10.300  12.974  18.141  0.00  0.00    +0.000 A 
ATOM     32  H   UNL     1      13.138  12.674  16.744  0.00  0.00    +0.000 HD
ENDBRANCH  22  23
ENDBRANCH  21  22
ENDBRANCH   3  21
TORSDOF 7
ENDMDL
MODEL 8
REMARK VINA RESULT:      -8.3      5.727      7.999
REMARK  Name = 
REMARK  7 active torsions:
REMARK  status: ('A' for Active; 'I' for Inactive)
REMARK    1  A    between atoms: C_2  and  C_3
REMARK    2  A    between atoms: C_3  and  N_4
REMARK    3  A    between atoms: C_6  and  S_7
REMARK    4  A    between atoms: S_7  and  N_10
REMARK    5  A    between atoms: N_19  and  C_20
REMARK    6  A    between atoms: C_20  and  C_21
REMARK    7  A    between atoms: C_21  and  C_22
REMARK                            x       y       z     vdW  Elec       q    Type
REMARK                         _______ _______ _______ _____ _____    ______ ____
ROOT
ATOM      1  O   UNL     1       2.444   7.257  19.431  0.00  0.00    +0.000 OA
ATOM      2  C   UNL     1       2.566   7.858  18.367  0.00  0.00    +0.000 C 
ATOM      3  N   UNL     1       1.930   9.053  18.094  0.00  0.00    +0.000 N 
ATOM      4  H   UNL     1       2.182   9.555  17.252  0.00  0.00    +0.000 HD
ENDROOT
BRANCH   2   5
ATOM      5  C   UNL     1       3.472   7.352  17.230  0.00  0.00    +0.000 C 
BRANCH   5   6
ATOM      6  N   UNL     1       4.128   6.082  17.577  0.00  0.00    +0.000 N 
ATOM      7  C   UNL     1       3.376   4.912  17.695  0.00  0.00    +0.000 A 
ATOM      8  C   UNL     1       3.962   3.742  17.984  0.00  0.00    +0.000 A 
ATOM      9  C   UNL     1       5.403   3.702  18.195  0.00  0.00    +0.000 A 
ATOM     10  C   UNL     1       6.144   4.812  18.073  0.00  0.00    +0.000 A 
ATOM     11  C   UNL     1       5.507   6.108  17.720  0.00  0.00    +0.000 A 
ATOM     12  O   UNL     1       6.209   7.107  17.596  0.00  0.00    +0.000 OA
BRANCH   8  13
ATOM     13  S   UNL     1       2.992   2.282  18.127  0.00  0.00    +0.000 S 
ATOM     14  O   UNL     1       1.947   2.349  17.124  0.00  0.00    +0.000 OA
ATOM     15  O   UNL     1       3.880   1.137  18.156  0.00  0.00    +0.000 OA
BRANCH  13  16
ATOM     16  N   UNL     1       2.192   2.338  19.615  0.00  0.00    +0.000 NA
ATOM     17  C   UNL     1       0.840   2.922  19.676  0.00  0.00    +0.000 C 
ATOM     18  C   UNL     1       1.000   4.092  20.635  0.00  0.00    +0.000 C 
ATOM     19  C   UNL     1       1.976   3.548  21.658  0.00  0.00    +0.000 C 
ATOM     20  C   UNL     1       2.944   2.712  20.834  0.00  0.00    +0.000 C 
ENDBRANCH  13  16
ENDBRANCH   8  13
ENDBRANCH   5   6
ENDBRANCH   2   5
BRANCH   3  21
ATOM     21  C   UNL     1       1.060   9.723  19.053  0.00  0.00    +0.000 C 
BRANCH  21  22
ATOM     22  C   UNL     1       0.849  11.192  18.677  0.00  0.00    +0.000 C 
BRANCH  22  23
ATOM     23  C   UNL     1      -0.557  11.674  18.832  0.00  0.00    +0.000 A 
ATOM     24  C   UNL     1      -0.978  12.603  19.767  0.00  0.00    +0.000 A 
ATOM     25  N   UNL     1      -2.279  12.912  19.485  0.00  0.00    +0.000 N 
ATOM     26  C   UNL     1      -2.810  11.933  18.682  0.00  0.00    +0.000 A 
ATOM     27  C   UNL     1      -4.143  11.615  18.406  0.00  0.00    +0.000 A 
ATOM     28  C   UNL     1      -4.377  10.615  17.461  0.00  0.00    +0.000 A 
ATOM     29  C   UNL     1      -3.321  10.041  16.754  0.00  0.00    +0.000 A 
ATOM     30  C   UNL     1      -1.990  10.366  17.055  0.00  0.00    +0.000 A 
ATOM     31  C   UNL     1      -1.727  11.267  18.106  0.00  0.00    +0.000 A 
ATOM     32  H   UNL     1      -2.790  13.704  19.848  0.00  0.00    +0.000 HD
ENDBRANCH  22  23
ENDBRANCH  21  22
ENDBRANCH   3  21
TORSDOF 7
ENDMDL
MODEL 9
REMARK VINA RESULT:      -8.3      1.250      1.593
REMARK  Name = 
REMARK  7 active torsions:
REMARK  status: ('A' for Active; 'I' for Inactive)
REMARK    1  A    between atoms: C_2  and  C_3
REMARK    2  A    between atoms: C_3  and  N_4
REMARK    3  A    between atoms: C_6  and  S_7
REMARK    4  A    between atoms: S_7  and  N_10
REMARK    5  A    between atoms: N_19  and  C_20
REMARK    6  A    between atoms: C_20  and  C_21
REMARK    7  A    between atoms: C_21  and  C_22
REMARK                            x       y       z     vdW  Elec       q    Type
REMARK                         _______ _______ _______ _____ _____    ______ ____
ROOT
ATOM      1  O   UNL     1       7.825   7.752  16.735  0.00  0.00    +0.000 OA
ATOM      2  C   UNL     1       7.974   7.536  17.936  0.00  0.00    +0.000 C 
ATOM      3  N   UNL     1       8.335   8.514  18.842  0.00  0.00    +0.000 N 
ATOM      4  H   UNL     1       8.308   8.294  19.829  0.00  0.00    +0.000 HD
ENDROOT
BRANCH   2   5
ATOM      5  C   UNL     1       7.744   6.150  18.562  0.00  0.00    +0.000 C 
BRANCH   5   6
ATOM      6  N   UNL     1       6.601   5.455  17.950  0.00  0.00    +0.000 N 
ATOM      7  C   UNL     1       5.308   5.672  18.431  0.00  0.00    +0.000 A 
ATOM      8  C   UNL     1       4.253   5.067  17.868  0.00  0.00    +0.000 A 
ATOM      9  C   UNL     1       4.468   4.158  16.751  0.00  0.00    +0.000 A 
ATOM     10  C   UNL     1       5.700   3.946  16.267  0.00  0.00    +0.000 A 
ATOM     11  C   UNL     1       6.873   4.638  16.864  0.00  0.00    +0.000 A 
ATOM     12  O   UNL     1       7.989   4.443  16.391  0.00  0.00    +0.000 OA
BRANCH   8  13
ATOM     13  S   UNL     1       2.635   5.357  18.492  0.00  0.00    +0.000 S 
ATOM     14  O   UNL     1       2.533   6.769  18.809  0.00  0.00    +0.000 OA
ATOM     15  O   UNL     1       1.675   4.760  17.586  0.00  0.00    +0.000 OA
BRANCH  13  16
ATOM     16  N   UNL     1       2.501   4.552  19.972  0.00  0.00    +0.000 NA
ATOM     17  C   UNL     1       3.290   3.326  20.190  0.00  0.00    +0.000 C 
ATOM     18  C   UNL     1       2.233   2.261  20.436  0.00  0.00    +0.000 C 
ATOM     19  C   UNL     1       1.186   3.014  21.232  0.00  0.00    +0.000 C 
ATOM     20  C   UNL     1       1.170   4.398  20.600  0.00  0.00    +0.000 C 
ENDBRANCH  13  16
ENDBRANCH   8  13
ENDBRANCH   5   6
ENDBRANCH   2   5
BRANCH   3  21
ATOM     21  C   UNL     1       8.560   9.903  18.459  0.00  0.00    +0.000 C 
BRANCH  21  22
ATOM     22  C   UNL     1       9.959  10.371  18.868  0.00  0.00    +0.000 C 
BRANCH  22  23
ATOM     23  C   UNL     1       9.995  11.714  19.524  0.00  0.00    +0.000 A 
ATOM     24  C   UNL     1      10.557  11.977  20.760  0.00  0.00    +0.000 A 
ATOM     25  N   UNL     1      10.550  13.332  20.937  0.00  0.00    +0.000 N 
ATOM     26  C   UNL     1       9.653  13.895  20.063  0.00  0.00    +0.000 A 
ATOM     27  C   UNL     1       9.047  15.154  20.077  0.00  0.00    +0.000 A 
ATOM     28  C   UNL     1       8.240  15.485  18.987  0.00  0.00    +0.000 A 
ATOM     29  C   UNL     1       8.137  14.630  17.890  0.00  0.00    +0.000 A 
ATOM     30  C   UNL     1       8.744  13.365  17.902  0.00  0.00    +0.000 A 
ATOM     31  C   UNL     1       9.444  12.953  19.054  0.00  0.00    +0.000 A 
ATOM     32  H   UNL     1      11.078  13.840  21.632  0.00  0.00    +0.000 HD
ENDBRANCH  22  23
ENDBRANCH  21  22
ENDBRANCH   3  21
TORSDOF 7
ENDMDL
