MODEL 1
REMARK VINA RESULT:      -8.9      0.000      0.000
REMARK  Name = 
REMARK  6 active torsions:
REMARK  status: ('A' for Active; 'I' for Inactive)
REMARK    1  A    between atoms: C_1  and  C_2
REMARK    2  A    between atoms: C_2  and  C_3
REMARK    3  A    between atoms: N_5  and  C_6
REMARK    4  A    between atoms: C_6  and  C_7
REMARK    5  A    between atoms: N_11  and  C_12
REMARK    6  A    between atoms: C_22  and  C_24
REMARK                            x       y       z     vdW  Elec       q    Type
REMARK                         _______ _______ _______ _____ _____    ______ ____
ROOT
ATOM      1  C   UNL     1       2.081   4.446  20.301  0.00  0.00    +0.000 C 
ATOM      2  O   UNL     1       0.997   4.398  20.888  0.00  0.00    +0.000 OA
ATOM      3  N   UNL     1       2.699   5.649  20.059  0.00  0.00    +0.000 N 
ATOM      4  H   UNL     1       3.625   5.660  19.649  0.00  0.00    +0.000 HD
ENDROOT
BRANCH   1   6
ATOM      5  C   UNL     1       3.682   2.645  20.960  0.00  0.00    +0.000 C 
ATOM      6  C   UNL     1       2.816   3.164  19.802  0.00  0.00    +0.000 C 
ATOM      7  C   UNL     1       1.749   2.080  19.491  0.00  0.00    +0.000 C 
ATOM      8  C   UNL     1       1.584   2.029  17.982  0.00  0.00    +0.000 C 
ATOM      9  C   UNL     1       2.564   3.031  17.423  0.00  0.00    +0.000 C 
ATOM     10  N   UNL     1       3.486   3.376  18.494  0.00  0.00    +0.000 N 
ATOM     11  C   UNL     1       4.730   3.987  18.327  0.00  0.00    +0.000 C 
ATOM     12  O   UNL     1       5.488   4.220  19.277  0.00  0.00    +0.000 OA
BRANCH  11  13
ATOM     13  C   UNL     1       5.185   4.400  16.953  0.00  0.00    +0.000 A 
ATOM     14  C   UNL     1       5.811   3.505  16.076  0.00  0.00    +0.000 A 
ATOM     15  C   UNL     1       6.343   3.931  14.859  0.00  0.00    +0.000 A 
ATOM     16  C   UNL     1       6.148   5.241  14.443  0.00  0.00    +0.000 A 
ATOM     17  C   UNL     1       5.415   6.116  15.245  0.00  0.00    +0.000 A 
ATOM     18  C   UNL     1       4.945   5.707  16.501  0.00  0.00    +0.000 A 
ENDBRANCH  11  13
ENDBRANCH   1   6
BRANCH   3  19
ATOM     19  C   UNL     1       2.147   6.881  20.571  0.00  0.00    +0.000 C 
BRANCH  19  20
ATOM     20  C   UNL     1       2.071   7.905  19.503  0.00  0.00    +0.000 A 
ATOM     21  N   UNL     1       2.583   7.820  18.287  0.00  0.00    +0.000 NA
ATOM     22  N   UNL     1       2.021   8.835  17.564  0.00  0.00    +0.000 NA
ATOM     23  N   UNL     1       1.161   9.524  18.299  0.00  0.00    +0.000 NA
ATOM     24  N   UNL     1       1.264   9.033  19.556  0.00  0.00    +0.000 N 
BRANCH  24  25
ATOM     25  C   UNL     1       0.593   9.643  20.643  0.00  0.00    +0.000 A 
ATOM     26  C   UNL     1       0.457  11.040  20.674  0.00  0.00    +0.000 A 
ATOM     27  C   UNL     1      -0.228  11.651  21.729  0.00  0.00    +0.000 A 
ATOM     28  C   UNL     1      -0.744  10.881  22.770  0.00  0.00    +0.000 A 
ATOM     29  C   UNL     1      -0.574   9.499  22.764  0.00  0.00    +0.000 A 
ATOM     30  C   UNL     1       0.092   8.879  21.704  0.00  0.00    +0.000 A 
ENDBRANCH  24  25
ENDBRANCH  19  20
ENDBRANCH   3  19
TORSDOF 5
ENDMDL
MODEL 2
REMARK VINA RESULT:      -8.9      0.319      1.304
REMARK  Name = 
REMARK  6 active torsions:
REMARK  status: ('A' for Active; 'I' for Inactive)
REMARK    1  A    between atoms: C_1  and  C_2
REMARK    2  A    between atoms: C_2  and  C_3
REMARK    3  A    between atoms: N_5  and  C_6
REMARK    4  A    between atoms: C_6  and  C_7
REMARK    5  A    between atoms: N_11  and  C_12
REMARK    6  A    between atoms: C_22  and  C_24
REMARK                            x       y       z     vdW  Elec       q    Type
REMARK                         _______ _______ _______ _____ _____    ______ ____
ROOT
ATOM      1  C   UNL     1       2.457   4.341  20.542  0.00  0.00    +0.000 C 
ATOM      2  O   UNL     1       1.984   4.317  21.681  0.00  0.00    +0.000 OA
ATOM      3  N   UNL     1       2.504   5.510  19.821  0.00  0.00    +0.000 N 
ATOM      4  H   UNL     1       2.970   5.522  18.922  0.00  0.00    +0.000 HD
ENDROOT
BRANCH   1   6
ATOM      5  C   UNL     1       3.936   2.354  20.867  0.00  0.00    +0.000 C 
ATOM      6  C   UNL     1       3.030   3.065  19.851  0.00  0.00    +0.000 C 
ATOM      7  C   UNL     1       1.847   2.113  19.528  0.00  0.00    +0.000 C 
ATOM      8  C   UNL     1       1.556   2.241  18.043  0.00  0.00    +0.000 C 
ATOM      9  C   UNL     1       2.575   3.214  17.503  0.00  0.00    +0.000 C 
ATOM     10  N   UNL     1       3.608   3.363  18.516  0.00  0.00    +0.000 N 
ATOM     11  C   UNL     1       4.885   3.884  18.301  0.00  0.00    +0.000 C 
ATOM     12  O   UNL     1       5.736   3.948  19.197  0.00  0.00    +0.000 OA
BRANCH  11  13
ATOM     13  C   UNL     1       5.264   4.405  16.941  0.00  0.00    +0.000 A 
ATOM     14  C   UNL     1       5.097   5.750  16.585  0.00  0.00    +0.000 A 
ATOM     15  C   UNL     1       5.330   6.192  15.282  0.00  0.00    +0.000 A 
ATOM     16  C   UNL     1       5.854   5.317  14.341  0.00  0.00    +0.000 A 
ATOM     17  C   UNL     1       6.149   4.005  14.710  0.00  0.00    +0.000 A 
ATOM     18  C   UNL     1       5.845   3.542  15.998  0.00  0.00    +0.000 A 
ENDBRANCH  11  13
ENDBRANCH   1   6
BRANCH   3  19
ATOM     19  C   UNL     1       2.092   6.761  20.412  0.00  0.00    +0.000 C 
BRANCH  19  20
ATOM     20  C   UNL     1       2.084   7.842  19.399  0.00  0.00    +0.000 A 
ATOM     21  N   UNL     1       2.630   7.803  18.196  0.00  0.00    +0.000 NA
ATOM     22  N   UNL     1       2.127   8.875  17.513  0.00  0.00    +0.000 NA
ATOM     23  N   UNL     1       1.270   9.555  18.259  0.00  0.00    +0.000 NA
ATOM     24  N   UNL     1       1.316   8.995  19.490  0.00  0.00    +0.000 N 
BRANCH  24  25
ATOM     25  C   UNL     1       0.635   9.570  20.589  0.00  0.00    +0.000 A 
ATOM     26  C   UNL     1       0.130   8.738  21.602  0.00  0.00    +0.000 A 
ATOM     27  C   UNL     1      -0.521   9.298  22.705  0.00  0.00    +0.000 A 
ATOM     28  C   UNL     1      -0.705  10.677  22.786  0.00  0.00    +0.000 A 
ATOM     29  C   UNL     1      -0.244  11.501  21.763  0.00  0.00    +0.000 A 
ATOM     30  C   UNL     1       0.425  10.953  20.666  0.00  0.00    +0.000 A 
ENDBRANCH  24  25
ENDBRANCH  19  20
ENDBRANCH   3  19
TORSDOF 5
ENDMDL
MODEL 3
REMARK VINA RESULT:      -8.1      3.870      8.623
REMARK  Name = 
REMARK  6 active torsions:
REMARK  status: ('A' for Active; 'I' for Inactive)
REMARK    1  A    between atoms: C_1  and  C_2
REMARK    2  A    between atoms: C_2  and  C_3
REMARK    3  A    between atoms: N_5  and  C_6
REMARK    4  A    between atoms: C_6  and  C_7
REMARK    5  A    between atoms: N_11  and  C_12
REMARK    6  A    between atoms: C_22  and  C_24
REMARK                            x       y       z     vdW  Elec       q    Type
REMARK                         _______ _______ _______ _____ _____    ______ ____
ROOT
ATOM      1  C   UNL     1       6.954   4.815  17.246  0.00  0.00    +0.000 C 
ATOM      2  O   UNL     1       8.112   4.392  17.278  0.00  0.00    +0.000 OA
ATOM      3  N   UNL     1       6.149   4.585  16.156  0.00  0.00    +0.000 N 
ATOM      4  H   UNL     1       5.177   4.871  16.185  0.00  0.00    +0.000 HD
ENDROOT
BRANCH   1   6
ATOM      5  C   UNL     1       7.314   5.570  19.600  0.00  0.00    +0.000 C 
ATOM      6  C   UNL     1       6.330   5.626  18.423  0.00  0.00    +0.000 C 
ATOM      7  C   UNL     1       6.209   7.110  17.981  0.00  0.00    +0.000 C 
ATOM      8  C   UNL     1       4.753   7.360  17.629  0.00  0.00    +0.000 C 
ATOM      9  C   UNL     1       4.032   6.062  17.899  0.00  0.00    +0.000 C 
ATOM     10  N   UNL     1       4.924   5.231  18.692  0.00  0.00    +0.000 N 
ATOM     11  C   UNL     1       4.541   4.117  19.441  0.00  0.00    +0.000 C 
ATOM     12  O   UNL     1       5.342   3.472  20.129  0.00  0.00    +0.000 OA
BRANCH  11  13
ATOM     13  C   UNL     1       3.109   3.653  19.419  0.00  0.00    +0.000 A 
ATOM     14  C   UNL     1       2.135   4.205  20.260  0.00  0.00    +0.000 A 
ATOM     15  C   UNL     1       0.844   3.680  20.322  0.00  0.00    +0.000 A 
ATOM     16  C   UNL     1       0.470   2.668  19.449  0.00  0.00    +0.000 A 
ATOM     17  C   UNL     1       1.389   2.191  18.514  0.00  0.00    +0.000 A 
ATOM     18  C   UNL     1       2.707   2.668  18.503  0.00  0.00    +0.000 A 
ENDBRANCH  11  13
ENDBRANCH   1   6
BRANCH   3  19
ATOM     19  C   UNL     1       6.602   3.759  15.062  0.00  0.00    +0.000 C 
BRANCH  19  20
ATOM     20  C   UNL     1       7.108   4.594  13.949  0.00  0.00    +0.000 A 
ATOM     21  N   UNL     1       7.944   5.613  14.041  0.00  0.00    +0.000 NA
ATOM     22  N   UNL     1       8.361   5.882  12.766  0.00  0.00    +0.000 NA
ATOM     23  N   UNL     1       7.820   5.039  11.901  0.00  0.00    +0.000 NA
ATOM     24  N   UNL     1       6.934   4.296  12.604  0.00  0.00    +0.000 N 
BRANCH  24  25
ATOM     25  C   UNL     1       6.057   3.389  11.962  0.00  0.00    +0.000 A 
ATOM     26  C   UNL     1       4.725   3.765  11.728  0.00  0.00    +0.000 A 
ATOM     27  C   UNL     1       3.858   2.889  11.069  0.00  0.00    +0.000 A 
ATOM     28  C   UNL     1       4.300   1.627  10.677  0.00  0.00    +0.000 A 
ATOM     29  C   UNL     1       5.609   1.234  10.946  0.00  0.00    +0.000 A 
ATOM     30  C   UNL     1       6.488   2.110  11.586  0.00  0.00    +0.000 A 
ENDBRANCH  24  25
ENDBRANCH  19  20
ENDBRANCH   3  19
TORSDOF 5
ENDMDL
MODEL 4
REMARK VINA RESULT:      -8.1      2.672      4.526
REMARK  Name = 
REMARK  6 active torsions:
REMARK  status: ('A' for Active; 'I' for Inactive)
REMARK    1  A    between atoms: C_1  and  C_2
REMARK    2  A    between atoms: C_2  and  C_3
REMARK    3  A    between atoms: N_5  and  C_6
REMARK    4  A    between atoms: C_6  and  C_7
REMARK    5  A    between atoms: N_11  and  C_12
REMARK    6  A    between atoms: C_22  and  C_24
REMARK                            x       y       z     vdW  Elec       q    Type
REMARK                         _______ _______ _______ _____ _____    ______ ____
ROOT
ATOM      1  C   UNL     1       4.726   6.393  17.924  0.00  0.00    +0.000 C 
ATOM      2  O   UNL     1       5.068   7.475  17.443  0.00  0.00    +0.000 OA
ATOM      3  N   UNL     1       3.481   6.229  18.481  0.00  0.00    +0.000 N 
ATOM      4  H   UNL     1       3.192   5.311  18.797  0.00  0.00    +0.000 HD
ENDROOT
BRANCH   1   6
ATOM      5  C   UNL     1       6.925   5.526  18.733  0.00  0.00    +0.000 C 
ATOM      6  C   UNL     1       5.669   5.150  17.934  0.00  0.00    +0.000 C 
ATOM      7  C   UNL     1       4.954   4.002  18.696  0.00  0.00    +0.000 C 
ATOM      8  C   UNL     1       4.424   3.030  17.655  0.00  0.00    +0.000 C 
ATOM      9  C   UNL     1       4.857   3.578  16.317  0.00  0.00    +0.000 C 
ATOM     10  N   UNL     1       5.871   4.589  16.574  0.00  0.00    +0.000 N 
ATOM     11  C   UNL     1       6.771   5.092  15.632  0.00  0.00    +0.000 C 
ATOM     12  O   UNL     1       7.639   5.925  15.922  0.00  0.00    +0.000 OA
BRANCH  11  13
ATOM     13  C   UNL     1       6.697   4.629  14.202  0.00  0.00    +0.000 A 
ATOM     14  C   UNL     1       5.691   3.766  13.749  0.00  0.00    +0.000 A 
ATOM     15  C   UNL     1       5.709   3.243  12.456  0.00  0.00    +0.000 A 
ATOM     16  C   UNL     1       6.669   3.674  11.552  0.00  0.00    +0.000 A 
ATOM     17  C   UNL     1       7.605   4.632  11.945  0.00  0.00    +0.000 A 
ATOM     18  C   UNL     1       7.631   5.101  13.266  0.00  0.00    +0.000 A 
ENDBRANCH  11  13
ENDBRANCH   1   6
BRANCH   3  19
ATOM     19  C   UNL     1       2.502   7.289  18.429  0.00  0.00    +0.000 C 
BRANCH  19  20
ATOM     20  C   UNL     1       1.958   7.568  19.779  0.00  0.00    +0.000 A 
ATOM     21  N   UNL     1       1.696   8.755  20.297  0.00  0.00    +0.000 NA
ATOM     22  N   UNL     1       0.942   8.526  21.415  0.00  0.00    +0.000 NA
ATOM     23  N   UNL     1       0.718   7.232  21.581  0.00  0.00    +0.000 NA
ATOM     24  N   UNL     1       1.447   6.599  20.632  0.00  0.00    +0.000 N 
BRANCH  24  25
ATOM     25  C   UNL     1       1.566   5.189  20.611  0.00  0.00    +0.000 A 
ATOM     26  C   UNL     1       0.764   4.442  19.732  0.00  0.00    +0.000 A 
ATOM     27  C   UNL     1       0.892   3.051  19.684  0.00  0.00    +0.000 A 
ATOM     28  C   UNL     1       1.786   2.398  20.530  0.00  0.00    +0.000 A 
ATOM     29  C   UNL     1       2.552   3.132  21.432  0.00  0.00    +0.000 A 
ATOM     30  C   UNL     1       2.445   4.524  21.475  0.00  0.00    +0.000 A 
ENDBRANCH  24  25
ENDBRANCH  19  20
ENDBRANCH   3  19
TORSDOF 5
ENDMDL
MODEL 5
REMARK VINA RESULT:      -8.0      2.420      7.354
REMARK  Name = 
REMARK  6 active torsions:
REMARK  status: ('A' for Active; 'I' for Inactive)
REMARK    1  A    between atoms: C_1  and  C_2
REMARK    2  A    between atoms: C_2  and  C_3
REMARK    3  A    between atoms: N_5  and  C_6
REMARK    4  A    between atoms: C_6  and  C_7
REMARK    5  A    between atoms: N_11  and  C_12
REMARK    6  A    between atoms: C_22  and  C_24
REMARK                            x       y       z     vdW  Elec       q    Type
REMARK                         _______ _______ _______ _____ _____    ______ ____
ROOT
ATOM      1  C   UNL     1       4.362   3.263  19.124  0.00  0.00    +0.000 C 
ATOM      2  O   UNL     1       5.124   2.716  19.924  0.00  0.00    +0.000 OA
ATOM      3  N   UNL     1       4.851   3.916  18.017  0.00  0.00    +0.000 N 
ATOM      4  H   UNL     1       4.204   4.287  17.332  0.00  0.00    +0.000 HD
ENDROOT
BRANCH   1   6
ATOM      5  C   UNL     1       2.203   2.607  18.053  0.00  0.00    +0.000 C 
ATOM      6  C   UNL     1       2.813   3.251  19.306  0.00  0.00    +0.000 C 
ATOM      7  C   UNL     1       2.472   2.340  20.516  0.00  0.00    +0.000 C 
ATOM      8  C   UNL     1       2.154   3.248  21.691  0.00  0.00    +0.000 C 
ATOM      9  C   UNL     1       2.265   4.659  21.166  0.00  0.00    +0.000 C 
ATOM     10  N   UNL     1       2.287   4.578  19.714  0.00  0.00    +0.000 N 
ATOM     11  C   UNL     1       2.037   5.637  18.839  0.00  0.00    +0.000 C 
ATOM     12  O   UNL     1       2.031   5.496  17.610  0.00  0.00    +0.000 OA
BRANCH  11  13
ATOM     13  C   UNL     1       1.773   7.015  19.385  0.00  0.00    +0.000 A 
ATOM     14  C   UNL     1       1.503   7.241  20.741  0.00  0.00    +0.000 A 
ATOM     15  C   UNL     1       1.134   8.501  21.210  0.00  0.00    +0.000 A 
ATOM     16  C   UNL     1       1.148   9.588  20.347  0.00  0.00    +0.000 A 
ATOM     17  C   UNL     1       1.538   9.409  19.020  0.00  0.00    +0.000 A 
ATOM     18  C   UNL     1       1.838   8.129  18.532  0.00  0.00    +0.000 A 
ENDBRANCH  11  13
ENDBRANCH   1   6
BRANCH   3  19
ATOM     19  C   UNL     1       6.261   3.895  17.708  0.00  0.00    +0.000 C 
BRANCH  19  20
ATOM     20  C   UNL     1       6.723   5.235  17.278  0.00  0.00    +0.000 A 
ATOM     21  N   UNL     1       7.099   6.231  18.061  0.00  0.00    +0.000 NA
ATOM     22  N   UNL     1       7.720   7.141  17.250  0.00  0.00    +0.000 NA
ATOM     23  N   UNL     1       7.754   6.716  15.997  0.00  0.00    +0.000 NA
ATOM     24  N   UNL     1       7.028   5.575  15.967  0.00  0.00    +0.000 N 
BRANCH  24  25
ATOM     25  C   UNL     1       6.723   4.926  14.747  0.00  0.00    +0.000 A 
ATOM     26  C   UNL     1       5.503   4.243  14.613  0.00  0.00    +0.000 A 
ATOM     27  C   UNL     1       5.180   3.622  13.403  0.00  0.00    +0.000 A 
ATOM     28  C   UNL     1       6.081   3.646  12.340  0.00  0.00    +0.000 A 
ATOM     29  C   UNL     1       7.309   4.285  12.483  0.00  0.00    +0.000 A 
ATOM     30  C   UNL     1       7.632   4.925  13.682  0.00  0.00    +0.000 A 
ENDBRANCH  24  25
ENDBRANCH  19  20
ENDBRANCH   3  19
TORSDOF 5
ENDMDL
MODEL 6
REMARK VINA RESULT:      -7.9      3.236      9.357
REMARK  Name = 
REMARK  6 active torsions:
REMARK  status: ('A' for Active; 'I' for Inactive)
REMARK    1  A    between atoms: C_1  and  C_2
REMARK    2  A    between atoms: C_2  and  C_3
REMARK    3  A    between atoms: N_5  and  C_6
REMARK    4  A    between atoms: C_6  and  C_7
REMARK    5  A    between atoms: N_11  and  C_12
REMARK    6  A    between atoms: C_22  and  C_24
REMARK                            x       y       z     vdW  Elec       q    Type
REMARK                         _______ _______ _______ _____ _____    ______ ____
ROOT
ATOM      1  C   UNL     1       0.311  10.002  20.091  0.00  0.00    +0.000 C 
ATOM      2  O   UNL     1      -0.373   9.448  20.955  0.00  0.00    +0.000 OA
ATOM      3  N   UNL     1       1.384   9.359  19.521  0.00  0.00    +0.000 N 
ATOM      4  H   UNL     1       1.881   9.801  18.757  0.00  0.00    +0.000 HD
ENDROOT
BRANCH   1   6
ATOM      5  C   UNL     1       1.351  12.187  19.472  0.00  0.00    +0.000 C 
ATOM      6  C   UNL     1       0.010  11.448  19.590  0.00  0.00    +0.000 C 
ATOM      7  C   UNL     1      -0.602  11.352  18.166  0.00  0.00    +0.000 C 
ATOM      8  C   UNL     1      -2.099  11.570  18.301  0.00  0.00    +0.000 C 
ATOM      9  C   UNL     1      -2.350  11.829  19.767  0.00  0.00    +0.000 C 
ATOM     10  N   UNL     1      -1.061  12.104  20.382  0.00  0.00    +0.000 N 
ATOM     11  C   UNL     1      -0.869  12.722  21.620  0.00  0.00    +0.000 C 
ATOM     12  O   UNL     1       0.256  12.965  22.073  0.00  0.00    +0.000 OA
BRANCH  11  13
ATOM     13  C   UNL     1      -2.058  13.105  22.459  0.00  0.00    +0.000 A 
ATOM     14  C   UNL     1      -2.608  14.393  22.428  0.00  0.00    +0.000 A 
ATOM     15  C   UNL     1      -3.625  14.772  23.304  0.00  0.00    +0.000 A 
ATOM     16  C   UNL     1      -4.196  13.828  24.145  0.00  0.00    +0.000 A 
ATOM     17  C   UNL     1      -3.750  12.507  24.101  0.00  0.00    +0.000 A 
ATOM     18  C   UNL     1      -2.678  12.144  23.274  0.00  0.00    +0.000 A 
ENDBRANCH  11  13
ENDBRANCH   1   6
BRANCH   3  19
ATOM     19  C   UNL     1       1.680   7.984  19.846  0.00  0.00    +0.000 C 
BRANCH  19  20
ATOM     20  C   UNL     1       2.495   7.358  18.779  0.00  0.00    +0.000 A 
ATOM     21  N   UNL     1       3.184   7.983  17.840  0.00  0.00    +0.000 NA
ATOM     22  N   UNL     1       4.006   7.044  17.280  0.00  0.00    +0.000 NA
ATOM     23  N   UNL     1       3.855   5.867  17.868  0.00  0.00    +0.000 NA
ATOM     24  N   UNL     1       2.823   6.010  18.734  0.00  0.00    +0.000 N 
BRANCH  24  25
ATOM     25  C   UNL     1       2.284   4.900  19.427  0.00  0.00    +0.000 A 
ATOM     26  C   UNL     1       1.443   4.004  18.748  0.00  0.00    +0.000 A 
ATOM     27  C   UNL     1       0.927   2.890  19.416  0.00  0.00    +0.000 A 
ATOM     28  C   UNL     1       1.213   2.685  20.764  0.00  0.00    +0.000 A 
ATOM     29  C   UNL     1       2.012   3.595  21.452  0.00  0.00    +0.000 A 
ATOM     30  C   UNL     1       2.548   4.700  20.788  0.00  0.00    +0.000 A 
ENDBRANCH  24  25
ENDBRANCH  19  20
ENDBRANCH   3  19
TORSDOF 5
ENDMDL
MODEL 7
REMARK VINA RESULT:      -7.9      3.283      9.381
REMARK  Name = 
REMARK  6 active torsions:
REMARK  status: ('A' for Active; 'I' for Inactive)
REMARK    1  A    between atoms: C_1  and  C_2
REMARK    2  A    between atoms: C_2  and  C_3
REMARK    3  A    between atoms: N_5  and  C_6
REMARK    4  A    between atoms: C_6  and  C_7
REMARK    5  A    between atoms: N_11  and  C_12
REMARK    6  A    between atoms: C_22  and  C_24
REMARK                            x       y       z     vdW  Elec       q    Type
REMARK                         _______ _______ _______ _____ _____    ______ ____
ROOT
ATOM      1  C   UNL     1       0.294  10.091  20.210  0.00  0.00    +0.000 C 
ATOM      2  O   UNL     1      -0.354   9.551  21.110  0.00  0.00    +0.000 OA
ATOM      3  N   UNL     1       1.317   9.425  19.580  0.00  0.00    +0.000 N 
ATOM      4  H   UNL     1       1.782   9.858  18.790  0.00  0.00    +0.000 HD
ENDROOT
BRANCH   1   6
ATOM      5  C   UNL     1       1.339  12.298  19.681  0.00  0.00    +0.000 C 
ATOM      6  C   UNL     1       0.001  11.546  19.730  0.00  0.00    +0.000 C 
ATOM      7  C   UNL     1      -0.554  11.479  18.282  0.00  0.00    +0.000 C 
ATOM      8  C   UNL     1      -2.057  11.682  18.363  0.00  0.00    +0.000 C 
ATOM      9  C   UNL     1      -2.367  11.905  19.823  0.00  0.00    +0.000 C 
ATOM     10  N   UNL     1      -1.106  12.176  20.495  0.00  0.00    +0.000 N 
ATOM     11  C   UNL     1      -0.967  12.767  21.752  0.00  0.00    +0.000 C 
ATOM     12  O   UNL     1       0.137  13.008  22.255  0.00  0.00    +0.000 OA
BRANCH  11  13
ATOM     13  C   UNL     1      -2.191  13.122  22.553  0.00  0.00    +0.000 A 
ATOM     14  C   UNL     1      -2.770  12.231  23.465  0.00  0.00    +0.000 A 
ATOM     15  C   UNL     1      -3.975  12.523  24.104  0.00  0.00    +0.000 A 
ATOM     16  C   UNL     1      -4.560  13.770  23.933  0.00  0.00    +0.000 A 
ATOM     17  C   UNL     1      -3.932  14.721  23.129  0.00  0.00    +0.000 A 
ATOM     18  C   UNL     1      -2.760  14.400  22.430  0.00  0.00    +0.000 A 
ENDBRANCH  11  13
ENDBRANCH   1   6
BRANCH   3  19
ATOM     19  C   UNL     1       1.598   8.042  19.883  0.00  0.00    +0.000 C 
BRANCH  19  20
ATOM     20  C   UNL     1       2.406   7.423  18.807  0.00  0.00    +0.000 A 
ATOM     21  N   UNL     1       3.074   8.054  17.856  0.00  0.00    +0.000 NA
ATOM     22  N   UNL     1       3.900   7.123  17.288  0.00  0.00    +0.000 NA
ATOM     23  N   UNL     1       3.773   5.947  17.883  0.00  0.00    +0.000 NA
ATOM     24  N   UNL     1       2.752   6.079  18.762  0.00  0.00    +0.000 N 
BRANCH  24  25
ATOM     25  C   UNL     1       2.238   4.966  19.468  0.00  0.00    +0.000 A 
ATOM     26  C   UNL     1       2.603   4.770  20.810  0.00  0.00    +0.000 A 
ATOM     27  C   UNL     1       2.079   3.688  21.524  0.00  0.00    +0.000 A 
ATOM     28  C   UNL     1       1.225   2.782  20.899  0.00  0.00    +0.000 A 
ATOM     29  C   UNL     1       0.895   2.949  19.557  0.00  0.00    +0.000 A 
ATOM     30  C   UNL     1       1.398   4.037  18.840  0.00  0.00    +0.000 A 
ENDBRANCH  24  25
ENDBRANCH  19  20
ENDBRANCH   3  19
TORSDOF 5
ENDMDL
MODEL 8
REMARK VINA RESULT:      -7.8      2.451      6.974
REMARK  Name = 
REMARK  6 active torsions:
REMARK  status: ('A' for Active; 'I' for Inactive)
REMARK    1  A    between atoms: C_1  and  C_2
REMARK    2  A    between atoms: C_2  and  C_3
REMARK    3  A    between atoms: N_5  and  C_6
REMARK    4  A    between atoms: C_6  and  C_7
REMARK    5  A    between atoms: N_11  and  C_12
REMARK    6  A    between atoms: C_22  and  C_24
REMARK                            x       y       z     vdW  Elec       q    Type
REMARK                         _______ _______ _______ _____ _____    ______ ____
ROOT
ATOM      1  C   UNL     1       4.503   3.285  19.421  0.00  0.00    +0.000 C 
ATOM      2  O   UNL     1       5.168   2.443  20.030  0.00  0.00    +0.000 OA
ATOM      3  N   UNL     1       5.115   4.311  18.742  0.00  0.00    +0.000 N 
ATOM      4  H   UNL     1       4.554   4.943  18.183  0.00  0.00    +0.000 HD
ENDROOT
BRANCH   1   6
ATOM      5  C   UNL     1       2.535   2.588  18.048  0.00  0.00    +0.000 C 
ATOM      6  C   UNL     1       2.944   3.243  19.375  0.00  0.00    +0.000 C 
ATOM      7  C   UNL     1       2.448   2.324  20.525  0.00  0.00    +0.000 C 
ATOM      8  C   UNL     1       1.945   3.225  21.639  0.00  0.00    +0.000 C 
ATOM      9  C   UNL     1       2.104   4.638  21.133  0.00  0.00    +0.000 C 
ATOM     10  N   UNL     1       2.338   4.559  19.700  0.00  0.00    +0.000 N 
ATOM     11  C   UNL     1       2.198   5.614  18.796  0.00  0.00    +0.000 C 
ATOM     12  O   UNL     1       2.374   5.474  17.580  0.00  0.00    +0.000 OA
BRANCH  11  13
ATOM     13  C   UNL     1       1.831   6.986  19.295  0.00  0.00    +0.000 A 
ATOM     14  C   UNL     1       1.785   8.099  18.446  0.00  0.00    +0.000 A 
ATOM     15  C   UNL     1       1.570   9.385  18.944  0.00  0.00    +0.000 A 
ATOM     16  C   UNL     1       1.274   9.562  20.288  0.00  0.00    +0.000 A 
ATOM     17  C   UNL     1       1.189   8.451  21.127  0.00  0.00    +0.000 A 
ATOM     18  C   UNL     1       1.477   7.168  20.641  0.00  0.00    +0.000 A 
ENDBRANCH  11  13
ENDBRANCH   1   6
BRANCH   3  19
ATOM     19  C   UNL     1       6.553   4.378  18.641  0.00  0.00    +0.000 C 
BRANCH  19  20
ATOM     20  C   UNL     1       6.981   5.689  18.101  0.00  0.00    +0.000 A 
ATOM     21  N   UNL     1       7.473   6.706  18.788  0.00  0.00    +0.000 NA
ATOM     22  N   UNL     1       8.000   7.569  17.868  0.00  0.00    +0.000 NA
ATOM     23  N   UNL     1       7.865   7.096  16.639  0.00  0.00    +0.000 NA
ATOM     24  N   UNL     1       7.120   5.971  16.749  0.00  0.00    +0.000 N 
BRANCH  24  25
ATOM     25  C   UNL     1       6.650   5.284  15.605  0.00  0.00    +0.000 A 
ATOM     26  C   UNL     1       7.520   5.063  14.525  0.00  0.00    +0.000 A 
ATOM     27  C   UNL     1       7.074   4.361  13.402  0.00  0.00    +0.000 A 
ATOM     28  C   UNL     1       5.757   3.911  13.333  0.00  0.00    +0.000 A 
ATOM     29  C   UNL     1       4.879   4.165  14.383  0.00  0.00    +0.000 A 
ATOM     30  C   UNL     1       5.322   4.848  15.518  0.00  0.00    +0.000 A 
ENDBRANCH  24  25
ENDBRANCH  19  20
ENDBRANCH   3  19
TORSDOF 5
ENDMDL
MODEL 9
REMARK VINA RESULT:      -7.8      2.732      8.659
REMARK  Name = 
REMARK  6 active torsions:
REMARK  status: ('A' for Active; 'I' for Inactive)
REMARK    1  A    between atoms: C_1  and  C_2
REMARK    2  A    between atoms: C_2  and  C_3
REMARK    3  A    between atoms: N_5  and  C_6
REMARK    4  A    between atoms: C_6  and  C_7
REMARK    5  A    between atoms: N_11  and  C_12
REMARK    6  A    between atoms: C_22  and  C_24
REMARK                            x       y       z     vdW  Elec       q    Type
REMARK                         _______ _______ _______ _____ _____    ______ ____
ROOT
ATOM      1  C   UNL     1       1.423   8.800  19.633  0.00  0.00    +0.000 C 
ATOM      2  O   UNL     1       1.115   8.741  20.826  0.00  0.00    +0.000 OA
ATOM      3  N   UNL     1       2.133   7.785  19.038  0.00  0.00    +0.000 N 
ATOM      4  H   UNL     1       2.305   7.816  18.040  0.00  0.00    +0.000 HD
ENDROOT
BRANCH   1   6
ATOM      5  C   UNL     1       2.323  10.561  18.108  0.00  0.00    +0.000 C 
ATOM      6  C   UNL     1       1.032  10.009  18.730  0.00  0.00    +0.000 C 
ATOM      7  C   UNL     1       0.140   9.484  17.572  0.00  0.00    +0.000 C 
ATOM      8  C   UNL     1      -1.297   9.846  17.907  0.00  0.00    +0.000 C 
ATOM      9  C   UNL     1      -1.240  10.604  19.212  0.00  0.00    +0.000 C 
ATOM     10  N   UNL     1       0.149  10.973  19.435  0.00  0.00    +0.000 N 
ATOM     11  C   UNL     1       0.594  11.957  20.320  0.00  0.00    +0.000 C 
ATOM     12  O   UNL     1       1.790  12.254  20.437  0.00  0.00    +0.000 OA
BRANCH  11  13
ATOM     13  C   UNL     1      -0.395  12.690  21.186  0.00  0.00    +0.000 A 
ATOM     14  C   UNL     1      -0.972  13.904  20.793  0.00  0.00    +0.000 A 
ATOM     15  C   UNL     1      -1.786  14.637  21.657  0.00  0.00    +0.000 A 
ATOM     16  C   UNL     1      -2.136  14.104  22.890  0.00  0.00    +0.000 A 
ATOM     17  C   UNL     1      -1.675  12.838  23.249  0.00  0.00    +0.000 A 
ATOM     18  C   UNL     1      -0.798  12.135  22.411  0.00  0.00    +0.000 A 
ENDBRANCH  11  13
ENDBRANCH   1   6
BRANCH   3  19
ATOM     19  C   UNL     1       2.453   6.580  19.765  0.00  0.00    +0.000 C 
BRANCH  19  20
ATOM     20  C   UNL     1       2.556   5.424  18.844  0.00  0.00    +0.000 A 
ATOM     21  N   UNL     1       1.580   4.610  18.483  0.00  0.00    +0.000 NA
ATOM     22  N   UNL     1       2.050   3.900  17.413  0.00  0.00    +0.000 NA
ATOM     23  N   UNL     1       3.279   4.275  17.095  0.00  0.00    +0.000 NA
ATOM     24  N   UNL     1       3.665   5.148  18.055  0.00  0.00    +0.000 N 
BRANCH  24  25
ATOM     25  C   UNL     1       4.992   5.638  18.117  0.00  0.00    +0.000 A 
ATOM     26  C   UNL     1       5.850   5.181  19.131  0.00  0.00    +0.000 A 
ATOM     27  C   UNL     1       7.170   5.637  19.185  0.00  0.00    +0.000 A 
ATOM     28  C   UNL     1       7.628   6.572  18.258  0.00  0.00    +0.000 A 
ATOM     29  C   UNL     1       6.768   7.059  17.278  0.00  0.00    +0.000 A 
ATOM     30  C   UNL     1       5.453   6.595  17.204  0.00  0.00    +0.000 A 
ENDBRANCH  24  25
ENDBRANCH  19  20
ENDBRANCH   3  19
TORSDOF 5
ENDMDL
