MODEL 1
REMARK VINA RESULT:      -9.2      0.000      0.000
REMARK  Name = 
REMARK  5 active torsions:
REMARK  status: ('A' for Active; 'I' for Inactive)
REMARK    1  A    between atoms: C_1  and  C_2
REMARK    2  A    between atoms: C_4  and  C_5
REMARK    3  A    between atoms: C_9  and  N_10
REMARK    4  A    between atoms: N_13  and  C_14
REMARK    5  A    between atoms: C_22  and  O_23
REMARK                            x       y       z     vdW  Elec       q    Type
REMARK                         _______ _______ _______ _____ _____    ______ ____
ROOT
ATOM      1  N   UNL     1       1.443   8.627  19.251  0.00  0.00    +0.000 N 
ATOM      2  C   UNL     1       2.271   8.357  18.213  0.00  0.00    +0.000 C 
ATOM      3  O   UNL     1       2.375   9.013  17.176  0.00  0.00    +0.000 OA
ATOM      4  N   UNL     1       3.090   7.299  18.297  0.00  0.00    +0.000 N 
ATOM      5  H   UNL     1       1.531   8.024  20.054  0.00  0.00    +0.000 HD
ATOM      6  H   UNL     1       3.742   7.360  17.521  0.00  0.00    +0.000 HD
ENDROOT
BRANCH   4   7
ATOM      7  C   UNL     1       3.485   6.232  19.233  0.00  0.00    +0.000 C 
ATOM      8  C   UNL     1       2.499   5.121  19.452  0.00  0.00    +0.000 A 
ATOM      9  C   UNL     1       1.823   4.752  20.604  0.00  0.00    +0.000 A 
ATOM     10  C   UNL     1       0.993   3.624  20.556  0.00  0.00    +0.000 A 
ATOM     11  C   UNL     1       0.806   2.922  19.355  0.00  0.00    +0.000 A 
ATOM     12  C   UNL     1       1.575   3.228  18.236  0.00  0.00    +0.000 A 
ATOM     13  C   UNL     1       2.492   4.257  18.350  0.00  0.00    +0.000 A 
ATOM     14  C   UNL     1       3.698   4.506  17.494  0.00  0.00    +0.000 C 
ATOM     15  C   UNL     1       4.549   5.395  18.449  0.00  0.00    +0.000 C 
BRANCH  15  16
ATOM     16  O   UNL     1       5.472   6.232  17.749  0.00  0.00    +0.000 OA
ATOM     17  H   UNL     1       5.098   6.438  16.874  0.00  0.00    +0.000 HD
ENDBRANCH  15  16
ENDBRANCH   4   7
BRANCH   1  22
ATOM     18  C   UNL     1      -1.375  10.896  18.384  0.00  0.00    +0.000 A 
ATOM     19  C   UNL     1      -1.334  11.818  19.429  0.00  0.00    +0.000 A 
ATOM     20  C   UNL     1      -0.359  11.713  20.419  0.00  0.00    +0.000 A 
ATOM     21  C   UNL     1       0.577  10.673  20.376  0.00  0.00    +0.000 A 
ATOM     22  C   UNL     1       0.557   9.732  19.344  0.00  0.00    +0.000 A 
ATOM     23  C   UNL     1      -0.411   9.871  18.341  0.00  0.00    +0.000 A 
BRANCH  18  27
ATOM     24  C   UNL     1      -3.886  10.163  14.220  0.00  0.00    +0.000 C 
ATOM     25  C   UNL     1      -3.405  10.577  15.547  0.00  0.00    +0.000 A 
ATOM     26  N   UNL     1      -2.276  10.295  16.150  0.00  0.00    +0.000 NA
ATOM     27  C   UNL     1      -2.407  10.955  17.355  0.00  0.00    +0.000 A 
ATOM     28  N   UNL     1      -3.567  11.621  17.485  0.00  0.00    +0.000 NA
ATOM     29  O   UNL     1      -4.230  11.370  16.283  0.00  0.00    +0.000 OA
ENDBRANCH  18  27
ENDBRANCH   1  22
TORSDOF 4
ENDMDL
MODEL 2
REMARK VINA RESULT:      -8.9      1.043      1.273
REMARK  Name = 
REMARK  5 active torsions:
REMARK  status: ('A' for Active; 'I' for Inactive)
REMARK    1  A    between atoms: C_1  and  C_2
REMARK    2  A    between atoms: C_4  and  C_5
REMARK    3  A    between atoms: C_9  and  N_10
REMARK    4  A    between atoms: N_13  and  C_14
REMARK    5  A    between atoms: C_22  and  O_23
REMARK                            x       y       z     vdW  Elec       q    Type
REMARK                         _______ _______ _______ _____ _____    ______ ____
ROOT
ATOM      1  N   UNL     1       1.399   8.886  19.428  0.00  0.00    +0.000 N 
ATOM      2  C   UNL     1       2.038   8.516  18.292  0.00  0.00    +0.000 C 
ATOM      3  O   UNL     1       2.036   9.127  17.223  0.00  0.00    +0.000 OA
ATOM      4  N   UNL     1       2.776   7.396  18.302  0.00  0.00    +0.000 N 
ATOM      5  H   UNL     1       1.559   8.305  20.235  0.00  0.00    +0.000 HD
ATOM      6  H   UNL     1       3.307   7.378  17.436  0.00  0.00    +0.000 HD
ENDROOT
BRANCH   4   7
ATOM      7  C   UNL     1       3.224   6.331  19.215  0.00  0.00    +0.000 C 
ATOM      8  C   UNL     1       2.300   5.161  19.398  0.00  0.00    +0.000 A 
ATOM      9  C   UNL     1       1.637   4.726  20.534  0.00  0.00    +0.000 A 
ATOM     10  C   UNL     1       0.873   3.555  20.452  0.00  0.00    +0.000 A 
ATOM     11  C   UNL     1       0.735   2.872  19.232  0.00  0.00    +0.000 A 
ATOM     12  C   UNL     1       1.495   3.249  18.128  0.00  0.00    +0.000 A 
ATOM     13  C   UNL     1       2.351   4.325  18.276  0.00  0.00    +0.000 A 
ATOM     14  C   UNL     1       3.548   4.663  17.437  0.00  0.00    +0.000 C 
ATOM     15  C   UNL     1       4.339   5.575  18.422  0.00  0.00    +0.000 C 
BRANCH  15  16
ATOM     16  O   UNL     1       5.219   6.479  17.751  0.00  0.00    +0.000 OA
ATOM     17  H   UNL     1       4.975   6.504  16.809  0.00  0.00    +0.000 HD
ENDBRANCH  15  16
ENDBRANCH   4   7
BRANCH   1  22
ATOM     18  C   UNL     1      -1.374  11.319  18.938  0.00  0.00    +0.000 A 
ATOM     19  C   UNL     1      -1.067  12.299  19.881  0.00  0.00    +0.000 A 
ATOM     20  C   UNL     1       0.073  12.177  20.674  0.00  0.00    +0.000 A 
ATOM     21  C   UNL     1       0.910  11.064  20.534  0.00  0.00    +0.000 A 
ATOM     22  C   UNL     1       0.625  10.064  19.601  0.00  0.00    +0.000 A 
ATOM     23  C   UNL     1      -0.508  10.218  18.792  0.00  0.00    +0.000 A 
BRANCH  18  27
ATOM     24  C   UNL     1      -6.038  11.973  17.522  0.00  0.00    +0.000 C 
ATOM     25  C   UNL     1      -4.594  11.705  17.614  0.00  0.00    +0.000 A 
ATOM     26  N   UNL     1      -3.809  11.711  18.664  0.00  0.00    +0.000 NA
ATOM     27  C   UNL     1      -2.580  11.397  18.122  0.00  0.00    +0.000 A 
ATOM     28  N   UNL     1      -2.608  11.201  16.793  0.00  0.00    +0.000 NA
ATOM     29  O   UNL     1      -3.947  11.405  16.455  0.00  0.00    +0.000 OA
ENDBRANCH  18  27
ENDBRANCH   1  22
TORSDOF 4
ENDMDL
MODEL 3
REMARK VINA RESULT:      -8.8      3.237      4.228
REMARK  Name = 
REMARK  5 active torsions:
REMARK  status: ('A' for Active; 'I' for Inactive)
REMARK    1  A    between atoms: C_1  and  C_2
REMARK    2  A    between atoms: C_4  and  C_5
REMARK    3  A    between atoms: C_9  and  N_10
REMARK    4  A    between atoms: N_13  and  C_14
REMARK    5  A    between atoms: C_22  and  O_23
REMARK                            x       y       z     vdW  Elec       q    Type
REMARK                         _______ _______ _______ _____ _____    ______ ____
ROOT
ATOM      1  N   UNL     1       3.001   6.570  18.719  0.00  0.00    +0.000 N 
ATOM      2  C   UNL     1       4.164   6.309  18.075  0.00  0.00    +0.000 C 
ATOM      3  O   UNL     1       4.805   7.099  17.381  0.00  0.00    +0.000 OA
ATOM      4  N   UNL     1       4.715   5.094  18.203  0.00  0.00    +0.000 N 
ATOM      5  H   UNL     1       2.641   5.829  19.300  0.00  0.00    +0.000 HD
ATOM      6  H   UNL     1       5.647   5.142  17.804  0.00  0.00    +0.000 HD
ENDROOT
BRANCH   4   7
ATOM      7  C   UNL     1       4.508   3.813  18.902  0.00  0.00    +0.000 C 
ATOM      8  C   UNL     1       3.181   3.614  19.576  0.00  0.00    +0.000 A 
ATOM      9  C   UNL     1       2.887   3.455  20.921  0.00  0.00    +0.000 A 
ATOM     10  C   UNL     1       1.555   3.221  21.287  0.00  0.00    +0.000 A 
ATOM     11  C   UNL     1       0.537   3.207  20.321  0.00  0.00    +0.000 A 
ATOM     12  C   UNL     1       0.855   3.252  18.966  0.00  0.00    +0.000 A 
ATOM     13  C   UNL     1       2.193   3.340  18.624  0.00  0.00    +0.000 A 
ATOM     14  C   UNL     1       2.826   2.983  17.313  0.00  0.00    +0.000 C 
ATOM     15  C   UNL     1       4.303   2.768  17.758  0.00  0.00    +0.000 C 
BRANCH  15  16
ATOM     16  O   UNL     1       5.235   2.959  16.691  0.00  0.00    +0.000 OA
ATOM     17  H   UNL     1       5.283   3.911  16.491  0.00  0.00    +0.000 HD
ENDBRANCH  15  16
ENDBRANCH   4   7
BRANCH   1  22
ATOM     18  C   UNL     1       1.055   9.447  20.056  0.00  0.00    +0.000 A 
ATOM     19  C   UNL     1       0.995  10.292  18.949  0.00  0.00    +0.000 A 
ATOM     20  C   UNL     1       1.577   9.910  17.742  0.00  0.00    +0.000 A 
ATOM     21  C   UNL     1       2.235   8.680  17.638  0.00  0.00    +0.000 A 
ATOM     22  C   UNL     1       2.316   7.815  18.731  0.00  0.00    +0.000 A 
ATOM     23  C   UNL     1       1.700   8.200  19.928  0.00  0.00    +0.000 A 
BRANCH  18  27
ATOM     24  C   UNL     1      -1.829  11.462  23.491  0.00  0.00    +0.000 C 
ATOM     25  C   UNL     1      -0.800  10.733  22.735  0.00  0.00    +0.000 A 
ATOM     26  N   UNL     1      -0.606  10.665  21.440  0.00  0.00    +0.000 NA
ATOM     27  C   UNL     1       0.491   9.835  21.344  0.00  0.00    +0.000 A 
ATOM     28  N   UNL     1       0.958   9.412  22.531  0.00  0.00    +0.000 NA
ATOM     29  O   UNL     1       0.100  10.010  23.456  0.00  0.00    +0.000 OA
ENDBRANCH  18  27
ENDBRANCH   1  22
TORSDOF 4
ENDMDL
MODEL 4
REMARK VINA RESULT:      -8.5      1.879      3.233
REMARK  Name = 
REMARK  5 active torsions:
REMARK  status: ('A' for Active; 'I' for Inactive)
REMARK    1  A    between atoms: C_1  and  C_2
REMARK    2  A    between atoms: C_4  and  C_5
REMARK    3  A    between atoms: C_9  and  N_10
REMARK    4  A    between atoms: N_13  and  C_14
REMARK    5  A    between atoms: C_22  and  O_23
REMARK                            x       y       z     vdW  Elec       q    Type
REMARK                         _______ _______ _______ _____ _____    ______ ____
ROOT
ATOM      1  N   UNL     1       1.873   8.324  18.765  0.00  0.00    +0.000 N 
ATOM      2  C   UNL     1       2.110   7.266  19.578  0.00  0.00    +0.000 C 
ATOM      3  O   UNL     1       1.604   7.070  20.683  0.00  0.00    +0.000 OA
ATOM      4  N   UNL     1       2.949   6.306  19.161  0.00  0.00    +0.000 N 
ATOM      5  H   UNL     1       2.322   8.297  17.863  0.00  0.00    +0.000 HD
ATOM      6  H   UNL     1       2.865   5.530  19.810  0.00  0.00    +0.000 HD
ENDROOT
BRANCH   4   7
ATOM      7  C   UNL     1       3.762   5.927  17.992  0.00  0.00    +0.000 C 
ATOM      8  C   UNL     1       5.220   6.284  18.035  0.00  0.00    +0.000 A 
ATOM      9  C   UNL     1       5.944   7.147  17.229  0.00  0.00    +0.000 A 
ATOM     10  C   UNL     1       7.324   7.258  17.442  0.00  0.00    +0.000 A 
ATOM     11  C   UNL     1       7.947   6.556  18.487  0.00  0.00    +0.000 A 
ATOM     12  C   UNL     1       7.235   5.606  19.215  0.00  0.00    +0.000 A 
ATOM     13  C   UNL     1       5.905   5.412  18.890  0.00  0.00    +0.000 A 
ATOM     14  C   UNL     1       5.055   4.215  19.192  0.00  0.00    +0.000 C 
ATOM     15  C   UNL     1       3.937   4.379  18.119  0.00  0.00    +0.000 C 
BRANCH  15  16
ATOM     16  O   UNL     1       2.717   3.735  18.491  0.00  0.00    +0.000 OA
ATOM     17  H   UNL     1       2.874   2.775  18.533  0.00  0.00    +0.000 HD
ENDBRANCH  15  16
ENDBRANCH   4   7
BRANCH   1  22
ATOM     18  C   UNL     1      -1.022  10.618  18.313  0.00  0.00    +0.000 A 
ATOM     19  C   UNL     1      -0.935  11.418  19.452  0.00  0.00    +0.000 A 
ATOM     20  C   UNL     1       0.096  11.223  20.369  0.00  0.00    +0.000 A 
ATOM     21  C   UNL     1       1.043  10.214  20.158  0.00  0.00    +0.000 A 
ATOM     22  C   UNL     1       0.978   9.394  19.030  0.00  0.00    +0.000 A 
ATOM     23  C   UNL     1      -0.046   9.623  18.103  0.00  0.00    +0.000 A 
BRANCH  18  27
ATOM     24  C   UNL     1      -3.859  10.119  14.328  0.00  0.00    +0.000 C 
ATOM     25  C   UNL     1      -3.256  10.486  15.619  0.00  0.00    +0.000 A 
ATOM     26  N   UNL     1      -2.118  10.105  16.147  0.00  0.00    +0.000 NA
ATOM     27  C   UNL     1      -2.111  10.770  17.355  0.00  0.00    +0.000 A 
ATOM     28  N   UNL     1      -3.197  11.534  17.561  0.00  0.00    +0.000 NA
ATOM     29  O   UNL     1      -3.958  11.345  16.407  0.00  0.00    +0.000 OA
ENDBRANCH  18  27
ENDBRANCH   1  22
TORSDOF 4
ENDMDL
MODEL 5
REMARK VINA RESULT:      -8.5      2.971      3.872
REMARK  Name = 
REMARK  5 active torsions:
REMARK  status: ('A' for Active; 'I' for Inactive)
REMARK    1  A    between atoms: C_1  and  C_2
REMARK    2  A    between atoms: C_4  and  C_5
REMARK    3  A    between atoms: C_9  and  N_10
REMARK    4  A    between atoms: N_13  and  C_14
REMARK    5  A    between atoms: C_22  and  O_23
REMARK                            x       y       z     vdW  Elec       q    Type
REMARK                         _______ _______ _______ _____ _____    ______ ____
ROOT
ATOM      1  N   UNL     1       2.578   7.233  19.127  0.00  0.00    +0.000 N 
ATOM      2  C   UNL     1       3.629   6.877  18.348  0.00  0.00    +0.000 C 
ATOM      3  O   UNL     1       4.098   7.530  17.416  0.00  0.00    +0.000 OA
ATOM      4  N   UNL     1       4.261   5.723  18.605  0.00  0.00    +0.000 N 
ATOM      5  H   UNL     1       2.364   6.611  19.891  0.00  0.00    +0.000 HD
ATOM      6  H   UNL     1       5.109   5.713  18.046  0.00  0.00    +0.000 HD
ENDROOT
BRANCH   4   7
ATOM      7  C   UNL     1       4.248   4.600  19.558  0.00  0.00    +0.000 C 
ATOM      8  C   UNL     1       2.939   3.892  19.755  0.00  0.00    +0.000 A 
ATOM      9  C   UNL     1       2.149   3.791  20.889  0.00  0.00    +0.000 A 
ATOM     10  C   UNL     1       0.988   3.010  20.824  0.00  0.00    +0.000 A 
ATOM     11  C   UNL     1       0.604   2.393  19.623  0.00  0.00    +0.000 A 
ATOM     12  C   UNL     1       1.460   2.404  18.524  0.00  0.00    +0.000 A 
ATOM     13  C   UNL     1       2.668   3.064  18.659  0.00  0.00    +0.000 A 
ATOM     14  C   UNL     1       3.908   2.877  17.837  0.00  0.00    +0.000 C 
ATOM     15  C   UNL     1       4.985   3.440  18.812  0.00  0.00    +0.000 C 
BRANCH  15  16
ATOM     16  O   UNL     1       6.155   3.905  18.133  0.00  0.00    +0.000 OA
ATOM     17  H   UNL     1       6.495   3.182  17.576  0.00  0.00    +0.000 HD
ENDBRANCH  15  16
ENDBRANCH   4   7
BRANCH   1  22
ATOM     18  C   UNL     1       0.481  10.117  20.190  0.00  0.00    +0.000 A 
ATOM     19  C   UNL     1       0.398  10.861  19.014  0.00  0.00    +0.000 A 
ATOM     20  C   UNL     1       1.016  10.405  17.850  0.00  0.00    +0.000 A 
ATOM     21  C   UNL     1       1.732   9.203  17.860  0.00  0.00    +0.000 A 
ATOM     22  C   UNL     1       1.837   8.440  19.024  0.00  0.00    +0.000 A 
ATOM     23  C   UNL     1       1.185   8.897  20.177  0.00  0.00    +0.000 A 
BRANCH  18  27
ATOM     24  C   UNL     1      -2.537  12.291  23.406  0.00  0.00    +0.000 C 
ATOM     25  C   UNL     1      -1.468  11.543  22.727  0.00  0.00    +0.000 A 
ATOM     26  N   UNL     1      -1.250  11.377  21.445  0.00  0.00    +0.000 NA
ATOM     27  C   UNL     1      -0.119  10.586  21.433  0.00  0.00    +0.000 A 
ATOM     28  N   UNL     1       0.343  10.281  22.657  0.00  0.00    +0.000 NA
ATOM     29  O   UNL     1      -0.553  10.918  23.518  0.00  0.00    +0.000 OA
ENDBRANCH  18  27
ENDBRANCH   1  22
TORSDOF 4
ENDMDL
MODEL 6
REMARK VINA RESULT:      -8.4      2.563      4.188
REMARK  Name = 
REMARK  5 active torsions:
REMARK  status: ('A' for Active; 'I' for Inactive)
REMARK    1  A    between atoms: C_1  and  C_2
REMARK    2  A    between atoms: C_4  and  C_5
REMARK    3  A    between atoms: C_9  and  N_10
REMARK    4  A    between atoms: N_13  and  C_14
REMARK    5  A    between atoms: C_22  and  O_23
REMARK                            x       y       z     vdW  Elec       q    Type
REMARK                         _______ _______ _______ _____ _____    ______ ____
ROOT
ATOM      1  N   UNL     1       1.391   8.783  19.263  0.00  0.00    +0.000 N 
ATOM      2  C   UNL     1       2.154   8.446  18.195  0.00  0.00    +0.000 C 
ATOM      3  O   UNL     1       2.233   9.063  17.132  0.00  0.00    +0.000 OA
ATOM      4  N   UNL     1       2.933   7.357  18.275  0.00  0.00    +0.000 N 
ATOM      5  H   UNL     1       1.494   8.202  20.080  0.00  0.00    +0.000 HD
ATOM      6  H   UNL     1       3.548   7.366  17.466  0.00  0.00    +0.000 HD
ENDROOT
BRANCH   4   7
ATOM      7  C   UNL     1       3.332   6.305  19.225  0.00  0.00    +0.000 C 
ATOM      8  C   UNL     1       2.372   5.166  19.419  0.00  0.00    +0.000 A 
ATOM      9  C   UNL     1       1.674   4.780  20.552  0.00  0.00    +0.000 A 
ATOM     10  C   UNL     1       0.879   3.629  20.483  0.00  0.00    +0.000 A 
ATOM     11  C   UNL     1       0.748   2.918  19.279  0.00  0.00    +0.000 A 
ATOM     12  C   UNL     1       1.541   3.244  18.182  0.00  0.00    +0.000 A 
ATOM     13  C   UNL     1       2.424   4.300  18.321  0.00  0.00    +0.000 A 
ATOM     14  C   UNL     1       3.646   4.582  17.500  0.00  0.00    +0.000 C 
ATOM     15  C   UNL     1       4.442   5.498  18.477  0.00  0.00    +0.000 C 
BRANCH  15  16
ATOM     16  O   UNL     1       5.361   6.359  17.801  0.00  0.00    +0.000 OA
ATOM     17  H   UNL     1       5.107   7.282  17.980  0.00  0.00    +0.000 HD
ENDBRANCH  15  16
ENDBRANCH   4   7
BRANCH   1  22
ATOM     18  C   UNL     1       0.276  12.188  20.265  0.00  0.00    +0.000 A 
ATOM     19  C   UNL     1      -0.940  12.302  19.592  0.00  0.00    +0.000 A 
ATOM     20  C   UNL     1      -1.415  11.245  18.819  0.00  0.00    +0.000 A 
ATOM     21  C   UNL     1      -0.668  10.067  18.704  0.00  0.00    +0.000 A 
ATOM     22  C   UNL     1       0.556   9.927  19.361  0.00  0.00    +0.000 A 
ATOM     23  C   UNL     1       1.004  10.987  20.159  0.00  0.00    +0.000 A 
BRANCH  18  27
ATOM     24  C   UNL     1       0.658  16.328  22.892  0.00  0.00    +0.000 C 
ATOM     25  C   UNL     1       0.881  15.069  22.163  0.00  0.00    +0.000 A 
ATOM     26  N   UNL     1       0.031  14.332  21.491  0.00  0.00    +0.000 NA
ATOM     27  C   UNL     1       0.821  13.291  21.049  0.00  0.00    +0.000 A 
ATOM     28  N   UNL     1       2.106  13.386  21.429  0.00  0.00    +0.000 NA
ATOM     29  O   UNL     1       2.146  14.569  22.169  0.00  0.00    +0.000 OA
ENDBRANCH  18  27
ENDBRANCH   1  22
TORSDOF 4
ENDMDL
MODEL 7
REMARK VINA RESULT:      -8.4      2.768      3.670
REMARK  Name = 
REMARK  5 active torsions:
REMARK  status: ('A' for Active; 'I' for Inactive)
REMARK    1  A    between atoms: C_1  and  C_2
REMARK    2  A    between atoms: C_4  and  C_5
REMARK    3  A    between atoms: C_9  and  N_10
REMARK    4  A    between atoms: N_13  and  C_14
REMARK    5  A    between atoms: C_22  and  O_23
REMARK                            x       y       z     vdW  Elec       q    Type
REMARK                         _______ _______ _______ _____ _____    ______ ____
ROOT
ATOM      1  N   UNL     1       1.479   8.860  19.287  0.00  0.00    +0.000 N 
ATOM      2  C   UNL     1       2.138   8.435  18.182  0.00  0.00    +0.000 C 
ATOM      3  O   UNL     1       2.166   9.000  17.089  0.00  0.00    +0.000 OA
ATOM      4  N   UNL     1       2.862   7.309  18.256  0.00  0.00    +0.000 N 
ATOM      5  H   UNL     1       1.614   8.311  20.122  0.00  0.00    +0.000 HD
ATOM      6  H   UNL     1       3.412   7.248  17.404  0.00  0.00    +0.000 HD
ENDROOT
BRANCH   4   7
ATOM      7  C   UNL     1       3.277   6.278  19.223  0.00  0.00    +0.000 C 
ATOM      8  C   UNL     1       2.352   5.109  19.408  0.00  0.00    +0.000 A 
ATOM      9  C   UNL     1       1.645   4.710  20.531  0.00  0.00    +0.000 A 
ATOM     10  C   UNL     1       0.890   3.532  20.458  0.00  0.00    +0.000 A 
ATOM     11  C   UNL     1       0.805   2.807  19.258  0.00  0.00    +0.000 A 
ATOM     12  C   UNL     1       1.608   3.151  18.173  0.00  0.00    +0.000 A 
ATOM     13  C   UNL     1       2.453   4.236  18.319  0.00  0.00    +0.000 A 
ATOM     14  C   UNL     1       3.681   4.552  17.518  0.00  0.00    +0.000 C 
ATOM     15  C   UNL     1       4.427   5.502  18.502  0.00  0.00    +0.000 C 
BRANCH  15  16
ATOM     16  O   UNL     1       5.330   6.388  17.836  0.00  0.00    +0.000 OA
ATOM     17  H   UNL     1       5.584   5.987  16.987  0.00  0.00    +0.000 HD
ENDBRANCH  15  16
ENDBRANCH   4   7
BRANCH   1  22
ATOM     18  C   UNL     1       0.685  12.494  19.172  0.00  0.00    +0.000 A 
ATOM     19  C   UNL     1      -0.675  12.501  19.477  0.00  0.00    +0.000 A 
ATOM     20  C   UNL     1      -1.340  11.306  19.748  0.00  0.00    +0.000 A 
ATOM     21  C   UNL     1      -0.646  10.091  19.703  0.00  0.00    +0.000 A 
ATOM     22  C   UNL     1       0.715  10.053  19.394  0.00  0.00    +0.000 A 
ATOM     23  C   UNL     1       1.374  11.265  19.155  0.00  0.00    +0.000 A 
BRANCH  18  27
ATOM     24  C   UNL     1       4.098  15.635  17.539  0.00  0.00    +0.000 C 
ATOM     25  C   UNL     1       2.911  14.982  18.113  0.00  0.00    +0.000 A 
ATOM     26  N   UNL     1       2.651  13.707  18.263  0.00  0.00    +0.000 NA
ATOM     27  C   UNL     1       1.400  13.723  18.844  0.00  0.00    +0.000 A 
ATOM     28  N   UNL     1       0.912  14.958  19.049  0.00  0.00    +0.000 NA
ATOM     29  O   UNL     1       1.917  15.796  18.563  0.00  0.00    +0.000 OA
ENDBRANCH  18  27
ENDBRANCH   1  22
TORSDOF 4
ENDMDL
MODEL 8
REMARK VINA RESULT:      -8.3      1.980      3.291
REMARK  Name = 
REMARK  5 active torsions:
REMARK  status: ('A' for Active; 'I' for Inactive)
REMARK    1  A    between atoms: C_1  and  C_2
REMARK    2  A    between atoms: C_4  and  C_5
REMARK    3  A    between atoms: C_9  and  N_10
REMARK    4  A    between atoms: N_13  and  C_14
REMARK    5  A    between atoms: C_22  and  O_23
REMARK                            x       y       z     vdW  Elec       q    Type
REMARK                         _______ _______ _______ _____ _____    ______ ____
ROOT
ATOM      1  N   UNL     1       1.701   8.999  18.373  0.00  0.00    +0.000 N 
ATOM      2  C   UNL     1       1.909   8.094  19.360  0.00  0.00    +0.000 C 
ATOM      3  O   UNL     1       1.484   8.165  20.513  0.00  0.00    +0.000 OA
ATOM      4  N   UNL     1       2.619   6.990  19.085  0.00  0.00    +0.000 N 
ATOM      5  H   UNL     1       2.066   8.755  17.465  0.00  0.00    +0.000 HD
ATOM      6  H   UNL     1       2.520   6.364  19.879  0.00  0.00    +0.000 HD
ENDROOT
BRANCH   4   7
ATOM      7  C   UNL     1       3.291   6.314  17.963  0.00  0.00    +0.000 C 
ATOM      8  C   UNL     1       4.793   6.330  17.961  0.00  0.00    +0.000 A 
ATOM      9  C   UNL     1       5.671   6.914  17.063  0.00  0.00    +0.000 A 
ATOM     10  C   UNL     1       7.045   6.727  17.259  0.00  0.00    +0.000 A 
ATOM     11  C   UNL     1       7.522   6.016  18.372  0.00  0.00    +0.000 A 
ATOM     12  C   UNL     1       6.634   5.337  19.202  0.00  0.00    +0.000 A 
ATOM     13  C   UNL     1       5.286   5.420  18.904  0.00  0.00    +0.000 A 
ATOM     14  C   UNL     1       4.195   4.487  19.338  0.00  0.00    +0.000 C 
ATOM     15  C   UNL     1       3.114   4.788  18.258  0.00  0.00    +0.000 C 
BRANCH  15  16
ATOM     16  O   UNL     1       1.790   4.484  18.702  0.00  0.00    +0.000 OA
ATOM     17  H   UNL     1       1.629   4.955  19.539  0.00  0.00    +0.000 HD
ENDBRANCH  15  16
ENDBRANCH   4   7
BRANCH   1  22
ATOM     18  C   UNL     1      -1.231  11.272  18.088  0.00  0.00    +0.000 A 
ATOM     19  C   UNL     1      -0.754  12.433  18.696  0.00  0.00    +0.000 A 
ATOM     20  C   UNL     1       0.550  12.484  19.185  0.00  0.00    +0.000 A 
ATOM     21  C   UNL     1       1.384  11.366  19.080  0.00  0.00    +0.000 A 
ATOM     22  C   UNL     1       0.932  10.188  18.481  0.00  0.00    +0.000 A 
ATOM     23  C   UNL     1      -0.371  10.163  17.967  0.00  0.00    +0.000 A 
BRANCH  18  27
ATOM     24  C   UNL     1      -6.141  11.417  17.858  0.00  0.00    +0.000 C 
ATOM     25  C   UNL     1      -4.699  11.272  17.601  0.00  0.00    +0.000 A 
ATOM     26  N   UNL     1      -3.686  11.446  18.413  0.00  0.00    +0.000 NA
ATOM     27  C   UNL     1      -2.603  11.173  17.602  0.00  0.00    +0.000 A 
ATOM     28  N   UNL     1      -2.936  10.840  16.344  0.00  0.00    +0.000 NA
ATOM     29  O   UNL     1      -4.331  10.905  16.343  0.00  0.00    +0.000 OA
ENDBRANCH  18  27
ENDBRANCH   1  22
TORSDOF 4
ENDMDL
MODEL 9
REMARK VINA RESULT:      -8.2      1.147      1.344
REMARK  Name = 
REMARK  5 active torsions:
REMARK  status: ('A' for Active; 'I' for Inactive)
REMARK    1  A    between atoms: C_1  and  C_2
REMARK    2  A    between atoms: C_4  and  C_5
REMARK    3  A    between atoms: C_9  and  N_10
REMARK    4  A    between atoms: N_13  and  C_14
REMARK    5  A    between atoms: C_22  and  O_23
REMARK                            x       y       z     vdW  Elec       q    Type
REMARK                         _______ _______ _______ _____ _____    ______ ____
ROOT
ATOM      1  N   UNL     1       1.959   7.588  19.919  0.00  0.00    +0.000 N 
ATOM      2  C   UNL     1       2.789   7.544  18.848  0.00  0.00    +0.000 C 
ATOM      3  O   UNL     1       2.946   8.435  18.012  0.00  0.00    +0.000 OA
ATOM      4  N   UNL     1       3.549   6.455  18.664  0.00  0.00    +0.000 N 
ATOM      5  H   UNL     1       2.001   6.797  20.543  0.00  0.00    +0.000 HD
ATOM      6  H   UNL     1       4.217   6.674  17.931  0.00  0.00    +0.000 HD
ENDROOT
BRANCH   4   7
ATOM      7  C   UNL     1       3.870   5.165  19.298  0.00  0.00    +0.000 C 
ATOM      8  C   UNL     1       2.717   4.253  19.605  0.00  0.00    +0.000 A 
ATOM      9  C   UNL     1       2.246   3.803  20.828  0.00  0.00    +0.000 A 
ATOM     10  C   UNL     1       1.177   2.898  20.836  0.00  0.00    +0.000 A 
ATOM     11  C   UNL     1       0.562   2.502  19.638  0.00  0.00    +0.000 A 
ATOM     12  C   UNL     1       1.114   2.866  18.413  0.00  0.00    +0.000 A 
ATOM     13  C   UNL     1       2.256   3.647  18.431  0.00  0.00    +0.000 A 
ATOM     14  C   UNL     1       3.265   3.816  17.334  0.00  0.00    +0.000 C 
ATOM     15  C   UNL     1       4.497   4.307  18.151  0.00  0.00    +0.000 C 
BRANCH  15  16
ATOM     16  O   UNL     1       5.416   5.065  17.362  0.00  0.00    +0.000 OA
ATOM     17  H   UNL     1       4.911   5.704  16.829  0.00  0.00    +0.000 HD
ENDBRANCH  15  16
ENDBRANCH   4   7
BRANCH   1  22
ATOM     18  C   UNL     1      -0.619  10.251  19.594  0.00  0.00    +0.000 A 
ATOM     19  C   UNL     1      -0.636  10.793  20.879  0.00  0.00    +0.000 A 
ATOM     20  C   UNL     1       0.221  10.298  21.860  0.00  0.00    +0.000 A 
ATOM     21  C   UNL     1       1.096   9.247  21.563  0.00  0.00    +0.000 A 
ATOM     22  C   UNL     1       1.132   8.682  20.287  0.00  0.00    +0.000 A 
ATOM     23  C   UNL     1       0.285   9.211  19.305  0.00  0.00    +0.000 A 
BRANCH  18  27
ATOM     24  C   UNL     1      -3.257  10.530  15.453  0.00  0.00    +0.000 C 
ATOM     25  C   UNL     1      -2.621  10.745  16.762  0.00  0.00    +0.000 A 
ATOM     26  N   UNL     1      -1.728  10.016  17.386  0.00  0.00    +0.000 NA
ATOM     27  C   UNL     1      -1.531  10.719  18.557  0.00  0.00    +0.000 A 
ATOM     28  N   UNL     1      -2.269  11.838  18.648  0.00  0.00    +0.000 NA
ATOM     29  O   UNL     1      -2.993  11.856  17.455  0.00  0.00    +0.000 OA
ENDBRANCH  18  27
ENDBRANCH   1  22
TORSDOF 4
ENDMDL
