MODEL 1
REMARK VINA RESULT:      -7.7      0.000      0.000
REMARK  Name = 
REMARK  7 active torsions:
REMARK  status: ('A' for Active; 'I' for Inactive)
REMARK    1  A    between atoms: C_1  and  C_2
REMARK    2  A    between atoms: C_4  and  S_5
REMARK    3  A    between atoms: S_5  and  C_6
REMARK    4  A    between atoms: C_6  and  C_7
REMARK    5  A    between atoms: N_9  and  C_10
REMARK    6  A    between atoms: C_15  and  N_16
REMARK    7  A    between atoms: C_22  and  C_23
REMARK                            x       y       z     vdW  Elec       q    Type
REMARK                         _______ _______ _______ _____ _____    ______ ____
ROOT
ATOM      1  C   UNL     1      -1.995  11.321  17.375  0.00  0.00    +0.000 C 
ATOM      2  C   UNL     1      -1.249  11.872  18.565  0.00  0.00    +0.000 A 
ATOM      3  C   UNL     1      -1.172  11.011  19.780  0.00  0.00    +0.000 A 
ATOM      4  C   UNL     1      -0.503  11.515  20.826  0.00  0.00    +0.000 A 
ATOM      5  N   UNL     1       0.082  12.793  20.722  0.00  0.00    +0.000 N 
ATOM      6  N   UNL     1       0.780  13.479  21.675  0.00  0.00    +0.000 NA
ATOM      7  C   UNL     1       1.105  14.626  21.082  0.00  0.00    +0.000 A 
ATOM      8  C   UNL     1       0.613  14.742  19.768  0.00  0.00    +0.000 A 
ATOM      9  C   UNL     1      -0.046  13.541  19.542  0.00  0.00    +0.000 A 
ATOM     10  N   UNL     1      -0.720  13.053  18.454  0.00  0.00    +0.000 NA
ENDROOT
BRANCH   8  11
ATOM     11  C   UNL     1       0.735  15.857  18.842  0.00  0.00    +0.000 A 
ATOM     12  C   UNL     1       1.999  16.224  18.355  0.00  0.00    +0.000 A 
ATOM     13  C   UNL     1       2.148  17.334  17.518  0.00  0.00    +0.000 A 
ATOM     14  C   UNL     1       1.035  18.090  17.159  0.00  0.00    +0.000 A 
ATOM     15  C   UNL     1      -0.226  17.732  17.627  0.00  0.00    +0.000 A 
ATOM     16  C   UNL     1      -0.377  16.621  18.464  0.00  0.00    +0.000 A 
ENDBRANCH   8  11
BRANCH   4  17
ATOM     17  S   UNL     1      -0.312  10.543  22.261  0.00  0.00    +0.000 S 
BRANCH  17  18
ATOM     18  C   UNL     1       1.220   9.625  21.931  0.00  0.00    +0.000 C 
BRANCH  18  19
ATOM     19  C   UNL     1       0.933   8.289  21.272  0.00  0.00    +0.000 C 
ATOM     20  O   UNL     1      -0.204   7.822  21.218  0.00  0.00    +0.000 OA
ATOM     21  N   UNL     1       2.061   7.643  20.784  0.00  0.00    +0.000 N 
ATOM     22  H   UNL     1       2.957   7.891  21.208  0.00  0.00    +0.000 HD
BRANCH  21  23
ATOM     23  C   UNL     1       1.990   6.416  20.077  0.00  0.00    +0.000 A 
ATOM     24  C   UNL     1       1.587   5.248  20.736  0.00  0.00    +0.000 A 
ATOM     25  C   UNL     1       1.482   4.034  20.047  0.00  0.00    +0.000 A 
ATOM     26  C   UNL     1       1.801   3.962  18.691  0.00  0.00    +0.000 A 
ATOM     27  C   UNL     1       2.219   5.106  18.016  0.00  0.00    +0.000 A 
ATOM     28  C   UNL     1       2.292   6.324  18.709  0.00  0.00    +0.000 A 
BRANCH  28  29
ATOM     29  N   UNL     1       2.811   7.479  18.003  0.00  0.00    +0.000 N 
ATOM     30  O   UNL     1       3.943   7.374  17.509  0.00  0.00    +0.000 OA
ATOM     31  O   UNL     1       2.076   8.472  17.917  0.00  0.00    +0.000 OA
ENDBRANCH  28  29
ENDBRANCH  21  23
ENDBRANCH  18  19
ENDBRANCH  17  18
ENDBRANCH   4  17
TORSDOF 6
ENDMDL
MODEL 2
REMARK VINA RESULT:      -7.7      3.525      4.957
REMARK  Name = 
REMARK  7 active torsions:
REMARK  status: ('A' for Active; 'I' for Inactive)
REMARK    1  A    between atoms: C_1  and  C_2
REMARK    2  A    between atoms: C_4  and  S_5
REMARK    3  A    between atoms: S_5  and  C_6
REMARK    4  A    between atoms: C_6  and  C_7
REMARK    5  A    between atoms: N_9  and  C_10
REMARK    6  A    between atoms: C_15  and  N_16
REMARK    7  A    between atoms: C_22  and  C_23
REMARK                            x       y       z     vdW  Elec       q    Type
REMARK                         _______ _______ _______ _____ _____    ______ ____
ROOT
ATOM      1  C   UNL     1      -3.187   9.850  16.059  0.00  0.00    +0.000 C 
ATOM      2  C   UNL     1      -2.680  10.538  17.301  0.00  0.00    +0.000 A 
ATOM      3  C   UNL     1      -1.230  10.393  17.618  0.00  0.00    +0.000 A 
ATOM      4  C   UNL     1      -0.796  11.013  18.724  0.00  0.00    +0.000 A 
ATOM      5  N   UNL     1      -1.707  11.755  19.503  0.00  0.00    +0.000 N 
ATOM      6  N   UNL     1      -1.463  12.435  20.662  0.00  0.00    +0.000 NA
ATOM      7  C   UNL     1      -2.644  12.952  20.995  0.00  0.00    +0.000 A 
ATOM      8  C   UNL     1      -3.681  12.607  20.106  0.00  0.00    +0.000 A 
ATOM      9  C   UNL     1      -3.059  11.834  19.137  0.00  0.00    +0.000 A 
ATOM     10  N   UNL     1      -3.533  11.214  18.011  0.00  0.00    +0.000 NA
ENDROOT
BRANCH   8  11
ATOM     11  C   UNL     1      -5.093  12.951  20.173  0.00  0.00    +0.000 A 
ATOM     12  C   UNL     1      -5.486  14.297  20.107  0.00  0.00    +0.000 A 
ATOM     13  C   UNL     1      -6.831  14.657  20.237  0.00  0.00    +0.000 A 
ATOM     14  C   UNL     1      -7.799  13.674  20.435  0.00  0.00    +0.000 A 
ATOM     15  C   UNL     1      -7.424  12.335  20.492  0.00  0.00    +0.000 A 
ATOM     16  C   UNL     1      -6.078  11.974  20.362  0.00  0.00    +0.000 A 
ENDBRANCH   8  11
BRANCH   4  17
ATOM     17  S   UNL     1       0.899  10.945  19.127  0.00  0.00    +0.000 S 
BRANCH  17  18
ATOM     18  C   UNL     1       1.151   9.195  19.540  0.00  0.00    +0.000 C 
BRANCH  18  19
ATOM     19  C   UNL     1       1.952   8.483  18.466  0.00  0.00    +0.000 C 
ATOM     20  O   UNL     1       2.061   8.937  17.329  0.00  0.00    +0.000 OA
ATOM     21  N   UNL     1       2.501   7.275  18.876  0.00  0.00    +0.000 N 
ATOM     22  H   UNL     1       2.049   6.801  19.660  0.00  0.00    +0.000 HD
BRANCH  21  23
ATOM     23  C   UNL     1       3.337   6.495  18.036  0.00  0.00    +0.000 A 
ATOM     24  C   UNL     1       4.487   7.060  17.469  0.00  0.00    +0.000 A 
ATOM     25  C   UNL     1       5.339   6.296  16.664  0.00  0.00    +0.000 A 
ATOM     26  C   UNL     1       5.044   4.959  16.391  0.00  0.00    +0.000 A 
ATOM     27  C   UNL     1       3.899   4.379  16.930  0.00  0.00    +0.000 A 
ATOM     28  C   UNL     1       3.067   5.145  17.761  0.00  0.00    +0.000 A 
BRANCH  28  29
ATOM     29  N   UNL     1       1.839   4.540  18.238  0.00  0.00    +0.000 N 
ATOM     30  O   UNL     1       1.099   4.023  17.389  0.00  0.00    +0.000 OA
ATOM     31  O   UNL     1       1.634   4.555  19.460  0.00  0.00    +0.000 OA
ENDBRANCH  28  29
ENDBRANCH  21  23
ENDBRANCH  18  19
ENDBRANCH  17  18
ENDBRANCH   4  17
TORSDOF 6
ENDMDL
MODEL 3
REMARK VINA RESULT:      -7.6      3.783      5.069
REMARK  Name = 
REMARK  7 active torsions:
REMARK  status: ('A' for Active; 'I' for Inactive)
REMARK    1  A    between atoms: C_1  and  C_2
REMARK    2  A    between atoms: C_4  and  S_5
REMARK    3  A    between atoms: S_5  and  C_6
REMARK    4  A    between atoms: C_6  and  C_7
REMARK    5  A    between atoms: N_9  and  C_10
REMARK    6  A    between atoms: C_15  and  N_16
REMARK    7  A    between atoms: C_22  and  C_23
REMARK                            x       y       z     vdW  Elec       q    Type
REMARK                         _______ _______ _______ _____ _____    ______ ____
ROOT
ATOM      1  C   UNL     1      -2.631  10.081  16.581  0.00  0.00    +0.000 C 
ATOM      2  C   UNL     1      -1.590  10.210  17.665  0.00  0.00    +0.000 A 
ATOM      3  C   UNL     1      -0.249   9.613  17.399  0.00  0.00    +0.000 A 
ATOM      4  C   UNL     1       0.664   9.739  18.372  0.00  0.00    +0.000 A 
ATOM      5  N   UNL     1       0.320  10.418  19.559  0.00  0.00    +0.000 N 
ATOM      6  N   UNL     1       1.098  10.631  20.661  0.00  0.00    +0.000 NA
ATOM      7  C   UNL     1       0.309  11.305  21.495  0.00  0.00    +0.000 A 
ATOM      8  C   UNL     1      -0.989  11.519  20.994  0.00  0.00    +0.000 A 
ATOM      9  C   UNL     1      -0.969  10.943  19.732  0.00  0.00    +0.000 A 
ATOM     10  N   UNL     1      -1.924  10.834  18.755  0.00  0.00    +0.000 NA
ENDROOT
BRANCH   8  11
ATOM     11  C   UNL     1      -2.119  12.175  21.635  0.00  0.00    +0.000 A 
ATOM     12  C   UNL     1      -2.332  12.009  23.012  0.00  0.00    +0.000 A 
ATOM     13  C   UNL     1      -3.448  12.573  23.637  0.00  0.00    +0.000 A 
ATOM     14  C   UNL     1      -4.366  13.309  22.891  0.00  0.00    +0.000 A 
ATOM     15  C   UNL     1      -4.162  13.490  21.525  0.00  0.00    +0.000 A 
ATOM     16  C   UNL     1      -3.045  12.926  20.899  0.00  0.00    +0.000 A 
ENDBRANCH   8  11
BRANCH   4  17
ATOM     17  S   UNL     1       2.274   9.125  18.111  0.00  0.00    +0.000 S 
BRANCH  17  18
ATOM     18  C   UNL     1       2.231   7.503  18.928  0.00  0.00    +0.000 C 
BRANCH  18  19
ATOM     19  C   UNL     1       3.046   6.477  18.164  0.00  0.00    +0.000 C 
ATOM     20  O   UNL     1       2.590   5.374  17.870  0.00  0.00    +0.000 OA
ATOM     21  N   UNL     1       4.341   6.884  17.875  0.00  0.00    +0.000 N 
ATOM     22  H   UNL     1       4.747   7.604  18.475  0.00  0.00    +0.000 HD
BRANCH  21  23
ATOM     23  C   UNL     1       5.236   6.091  17.111  0.00  0.00    +0.000 A 
ATOM     24  C   UNL     1       5.114   6.041  15.716  0.00  0.00    +0.000 A 
ATOM     25  C   UNL     1       6.007   5.289  14.944  0.00  0.00    +0.000 A 
ATOM     26  C   UNL     1       7.024   4.554  15.555  0.00  0.00    +0.000 A 
ATOM     27  C   UNL     1       7.157   4.574  16.941  0.00  0.00    +0.000 A 
ATOM     28  C   UNL     1       6.275   5.356  17.703  0.00  0.00    +0.000 A 
BRANCH  28  29
ATOM     29  N   UNL     1       6.383   5.292  19.148  0.00  0.00    +0.000 N 
ATOM     30  O   UNL     1       7.500   5.510  19.638  0.00  0.00    +0.000 OA
ATOM     31  O   UNL     1       5.349   5.056  19.787  0.00  0.00    +0.000 OA
ENDBRANCH  28  29
ENDBRANCH  21  23
ENDBRANCH  18  19
ENDBRANCH  17  18
ENDBRANCH   4  17
TORSDOF 6
ENDMDL
MODEL 4
REMARK VINA RESULT:      -7.5      3.175      5.021
REMARK  Name = 
REMARK  7 active torsions:
REMARK  status: ('A' for Active; 'I' for Inactive)
REMARK    1  A    between atoms: C_1  and  C_2
REMARK    2  A    between atoms: C_4  and  S_5
REMARK    3  A    between atoms: S_5  and  C_6
REMARK    4  A    between atoms: C_6  and  C_7
REMARK    5  A    between atoms: N_9  and  C_10
REMARK    6  A    between atoms: C_15  and  N_16
REMARK    7  A    between atoms: C_22  and  C_23
REMARK                            x       y       z     vdW  Elec       q    Type
REMARK                         _______ _______ _______ _____ _____    ______ ____
ROOT
ATOM      1  C   UNL     1      -0.433  12.989  21.298  0.00  0.00    +0.000 C 
ATOM      2  C   UNL     1      -0.774  12.066  20.155  0.00  0.00    +0.000 A 
ATOM      3  C   UNL     1       0.311  11.177  19.648  0.00  0.00    +0.000 A 
ATOM      4  C   UNL     1      -0.011  10.362  18.634  0.00  0.00    +0.000 A 
ATOM      5  N   UNL     1      -1.324  10.381  18.121  0.00  0.00    +0.000 N 
ATOM      6  N   UNL     1      -1.835   9.647  17.089  0.00  0.00    +0.000 NA
ATOM      7  C   UNL     1      -3.103  10.042  17.001  0.00  0.00    +0.000 A 
ATOM      8  C   UNL     1      -3.446  11.047  17.925  0.00  0.00    +0.000 A 
ATOM      9  C   UNL     1      -2.284  11.256  18.652  0.00  0.00    +0.000 A 
ATOM     10  N   UNL     1      -1.987  12.099  19.690  0.00  0.00    +0.000 NA
ENDROOT
BRANCH   8  11
ATOM     11  C   UNL     1      -4.715  11.740  18.091  0.00  0.00    +0.000 A 
ATOM     12  C   UNL     1      -5.244  11.927  19.377  0.00  0.00    +0.000 A 
ATOM     13  C   UNL     1      -6.493  12.530  19.557  0.00  0.00    +0.000 A 
ATOM     14  C   UNL     1      -7.228  12.952  18.451  0.00  0.00    +0.000 A 
ATOM     15  C   UNL     1      -6.711  12.781  17.170  0.00  0.00    +0.000 A 
ATOM     16  C   UNL     1      -5.461  12.179  16.989  0.00  0.00    +0.000 A 
ENDBRANCH   8  11
BRANCH   4  17
ATOM     17  S   UNL     1       1.184   9.247  18.029  0.00  0.00    +0.000 S 
BRANCH  17  18
ATOM     18  C   UNL     1       2.003   8.664  19.542  0.00  0.00    +0.000 C 
BRANCH  18  19
ATOM     19  C   UNL     1       2.133   7.152  19.553  0.00  0.00    +0.000 C 
ATOM     20  O   UNL     1       1.733   6.473  20.497  0.00  0.00    +0.000 OA
ATOM     21  N   UNL     1       2.771   6.630  18.436  0.00  0.00    +0.000 N 
ATOM     22  H   UNL     1       3.399   7.254  17.926  0.00  0.00    +0.000 HD
BRANCH  21  23
ATOM     23  C   UNL     1       2.929   5.235  18.232  0.00  0.00    +0.000 A 
ATOM     24  C   UNL     1       1.809   4.430  17.989  0.00  0.00    +0.000 A 
ATOM     25  C   UNL     1       1.950   3.057  17.754  0.00  0.00    +0.000 A 
ATOM     26  C   UNL     1       3.211   2.461  17.783  0.00  0.00    +0.000 A 
ATOM     27  C   UNL     1       4.339   3.237  18.039  0.00  0.00    +0.000 A 
ATOM     28  C   UNL     1       4.190   4.617  18.242  0.00  0.00    +0.000 A 
BRANCH  28  29
ATOM     29  N   UNL     1       5.370   5.385  18.589  0.00  0.00    +0.000 N 
ATOM     30  O   UNL     1       5.970   5.057  19.623  0.00  0.00    +0.000 OA
ATOM     31  O   UNL     1       5.710   6.289  17.814  0.00  0.00    +0.000 OA
ENDBRANCH  28  29
ENDBRANCH  21  23
ENDBRANCH  18  19
ENDBRANCH  17  18
ENDBRANCH   4  17
TORSDOF 6
ENDMDL
MODEL 5
REMARK VINA RESULT:      -7.5      3.438      8.952
REMARK  Name = 
REMARK  7 active torsions:
REMARK  status: ('A' for Active; 'I' for Inactive)
REMARK    1  A    between atoms: C_1  and  C_2
REMARK    2  A    between atoms: C_4  and  S_5
REMARK    3  A    between atoms: S_5  and  C_6
REMARK    4  A    between atoms: C_6  and  C_7
REMARK    5  A    between atoms: N_9  and  C_10
REMARK    6  A    between atoms: C_15  and  N_16
REMARK    7  A    between atoms: C_22  and  C_23
REMARK                            x       y       z     vdW  Elec       q    Type
REMARK                         _______ _______ _______ _____ _____    ______ ____
ROOT
ATOM      1  C   UNL     1       0.152   9.443  23.294  0.00  0.00    +0.000 C 
ATOM      2  C   UNL     1       0.582   9.481  21.849  0.00  0.00    +0.000 A 
ATOM      3  C   UNL     1       0.339  10.747  21.098  0.00  0.00    +0.000 A 
ATOM      4  C   UNL     1       0.729  10.764  19.816  0.00  0.00    +0.000 A 
ATOM      5  N   UNL     1       1.339   9.620  19.264  0.00  0.00    +0.000 N 
ATOM      6  N   UNL     1       1.784   9.438  17.985  0.00  0.00    +0.000 NA
ATOM      7  C   UNL     1       2.263   8.196  17.977  0.00  0.00    +0.000 A 
ATOM      8  C   UNL     1       2.119   7.528  19.208  0.00  0.00    +0.000 A 
ATOM      9  C   UNL     1       1.523   8.465  20.040  0.00  0.00    +0.000 A 
ATOM     10  N   UNL     1       1.138   8.417  21.353  0.00  0.00    +0.000 NA
ENDROOT
BRANCH   8  11
ATOM     11  C   UNL     1       2.486   6.163  19.555  0.00  0.00    +0.000 A 
ATOM     12  C   UNL     1       1.696   5.439  20.462  0.00  0.00    +0.000 A 
ATOM     13  C   UNL     1       2.066   4.151  20.862  0.00  0.00    +0.000 A 
ATOM     14  C   UNL     1       3.230   3.573  20.361  0.00  0.00    +0.000 A 
ATOM     15  C   UNL     1       4.017   4.277  19.453  0.00  0.00    +0.000 A 
ATOM     16  C   UNL     1       3.648   5.565  19.052  0.00  0.00    +0.000 A 
ENDBRANCH   8  11
BRANCH   4  17
ATOM     17  S   UNL     1       0.540  12.228  18.890  0.00  0.00    +0.000 S 
BRANCH  17  18
ATOM     18  C   UNL     1      -0.906  13.015  19.660  0.00  0.00    +0.000 C 
BRANCH  18  19
ATOM     19  C   UNL     1      -2.190  12.302  19.281  0.00  0.00    +0.000 C 
ATOM     20  O   UNL     1      -2.189  11.287  18.587  0.00  0.00    +0.000 OA
ATOM     21  N   UNL     1      -3.341  12.922  19.749  0.00  0.00    +0.000 N 
ATOM     22  H   UNL     1      -3.281  13.921  19.954  0.00  0.00    +0.000 HD
BRANCH  21  23
ATOM     23  C   UNL     1      -4.635  12.373  19.554  0.00  0.00    +0.000 A 
ATOM     24  C   UNL     1      -5.022  11.921  18.287  0.00  0.00    +0.000 A 
ATOM     25  C   UNL     1      -6.283  11.348  18.083  0.00  0.00    +0.000 A 
ATOM     26  C   UNL     1      -7.188  11.239  19.139  0.00  0.00    +0.000 A 
ATOM     27  C   UNL     1      -6.833  11.696  20.406  0.00  0.00    +0.000 A 
ATOM     28  C   UNL     1      -5.555  12.241  20.606  0.00  0.00    +0.000 A 
BRANCH  28  29
ATOM     29  N   UNL     1      -5.244  12.784  21.913  0.00  0.00    +0.000 N 
ATOM     30  O   UNL     1      -5.991  13.674  22.345  0.00  0.00    +0.000 OA
ATOM     31  O   UNL     1      -4.277  12.299  22.517  0.00  0.00    +0.000 OA
ENDBRANCH  28  29
ENDBRANCH  21  23
ENDBRANCH  18  19
ENDBRANCH  17  18
ENDBRANCH   4  17
TORSDOF 6
ENDMDL
MODEL 6
REMARK VINA RESULT:      -7.4      1.644      2.250
REMARK  Name = 
REMARK  7 active torsions:
REMARK  status: ('A' for Active; 'I' for Inactive)
REMARK    1  A    between atoms: C_1  and  C_2
REMARK    2  A    between atoms: C_4  and  S_5
REMARK    3  A    between atoms: S_5  and  C_6
REMARK    4  A    between atoms: C_6  and  C_7
REMARK    5  A    between atoms: N_9  and  C_10
REMARK    6  A    between atoms: C_15  and  N_16
REMARK    7  A    between atoms: C_22  and  C_23
REMARK                            x       y       z     vdW  Elec       q    Type
REMARK                         _______ _______ _______ _____ _____    ______ ____
ROOT
ATOM      1  C   UNL     1      -2.760  11.428  17.430  0.00  0.00    +0.000 C 
ATOM      2  C   UNL     1      -1.547  11.578  18.315  0.00  0.00    +0.000 A 
ATOM      3  C   UNL     1      -1.088  10.368  19.055  0.00  0.00    +0.000 A 
ATOM      4  C   UNL     1      -0.008  10.519  19.834  0.00  0.00    +0.000 A 
ATOM      5  N   UNL     1       0.623  11.777  19.903  0.00  0.00    +0.000 N 
ATOM      6  N   UNL     1       1.713  12.131  20.647  0.00  0.00    +0.000 NA
ATOM      7  C   UNL     1       1.899  13.419  20.365  0.00  0.00    +0.000 A 
ATOM      8  C   UNL     1       0.942  13.946  19.477  0.00  0.00    +0.000 A 
ATOM      9  C   UNL     1       0.120  12.868  19.179  0.00  0.00    +0.000 A 
ATOM     10  N   UNL     1      -0.979  12.746  18.372  0.00  0.00    +0.000 NA
ENDROOT
BRANCH   8  11
ATOM     11  C   UNL     1       0.807  15.308  18.982  0.00  0.00    +0.000 A 
ATOM     12  C   UNL     1      -0.458  15.916  18.951  0.00  0.00    +0.000 A 
ATOM     13  C   UNL     1      -0.622  17.198  18.417  0.00  0.00    +0.000 A 
ATOM     14  C   UNL     1       0.477  17.886  17.907  0.00  0.00    +0.000 A 
ATOM     15  C   UNL     1       1.739  17.298  17.942  0.00  0.00    +0.000 A 
ATOM     16  C   UNL     1       1.904  16.016  18.476  0.00  0.00    +0.000 A 
ENDBRANCH   8  11
BRANCH   4  17
ATOM     17  S   UNL     1       0.629   9.135  20.681  0.00  0.00    +0.000 S 
BRANCH  17  18
ATOM     18  C   UNL     1       1.871   8.485  19.526  0.00  0.00    +0.000 C 
BRANCH  18  19
ATOM     19  C   UNL     1       2.049   6.987  19.690  0.00  0.00    +0.000 C 
ATOM     20  O   UNL     1       1.822   6.420  20.757  0.00  0.00    +0.000 OA
ATOM     21  N   UNL     1       2.522   6.345  18.554  0.00  0.00    +0.000 N 
ATOM     22  H   UNL     1       3.043   6.912  17.882  0.00  0.00    +0.000 HD
BRANCH  21  23
ATOM     23  C   UNL     1       2.691   4.938  18.488  0.00  0.00    +0.000 A 
ATOM     24  C   UNL     1       1.575   4.103  18.351  0.00  0.00    +0.000 A 
ATOM     25  C   UNL     1       1.725   2.715  18.254  0.00  0.00    +0.000 A 
ATOM     26  C   UNL     1       2.992   2.135  18.316  0.00  0.00    +0.000 A 
ATOM     27  C   UNL     1       4.117   2.942  18.469  0.00  0.00    +0.000 A 
ATOM     28  C   UNL     1       3.957   4.335  18.535  0.00  0.00    +0.000 A 
BRANCH  28  29
ATOM     29  N   UNL     1       5.136   5.144  18.778  0.00  0.00    +0.000 N 
ATOM     30  O   UNL     1       5.851   4.822  19.737  0.00  0.00    +0.000 OA
ATOM     31  O   UNL     1       5.360   6.075  17.993  0.00  0.00    +0.000 OA
ENDBRANCH  28  29
ENDBRANCH  21  23
ENDBRANCH  18  19
ENDBRANCH  17  18
ENDBRANCH   4  17
TORSDOF 6
ENDMDL
MODEL 7
REMARK VINA RESULT:      -7.4      4.462      8.967
REMARK  Name = 
REMARK  7 active torsions:
REMARK  status: ('A' for Active; 'I' for Inactive)
REMARK    1  A    between atoms: C_1  and  C_2
REMARK    2  A    between atoms: C_4  and  S_5
REMARK    3  A    between atoms: S_5  and  C_6
REMARK    4  A    between atoms: C_6  and  C_7
REMARK    5  A    between atoms: N_9  and  C_10
REMARK    6  A    between atoms: C_15  and  N_16
REMARK    7  A    between atoms: C_22  and  C_23
REMARK                            x       y       z     vdW  Elec       q    Type
REMARK                         _______ _______ _______ _____ _____    ______ ____
ROOT
ATOM      1  C   UNL     1      -1.959  10.806  17.362  0.00  0.00    +0.000 C 
ATOM      2  C   UNL     1      -1.261  10.730  18.696  0.00  0.00    +0.000 A 
ATOM      3  C   UNL     1      -1.589  11.784  19.700  0.00  0.00    +0.000 A 
ATOM      4  C   UNL     1      -0.961  11.699  20.881  0.00  0.00    +0.000 A 
ATOM      5  N   UNL     1      -0.056  10.642  21.108  0.00  0.00    +0.000 N 
ATOM      6  N   UNL     1       0.688  10.398  22.227  0.00  0.00    +0.000 NA
ATOM      7  C   UNL     1       1.377   9.298  21.931  0.00  0.00    +0.000 A 
ATOM      8  C   UNL     1       1.139   8.818  20.629  0.00  0.00    +0.000 A 
ATOM      9  C   UNL     1       0.202   9.696  20.105  0.00  0.00    +0.000 A 
ATOM     10  N   UNL     1      -0.426   9.753  18.889  0.00  0.00    +0.000 NA
ENDROOT
BRANCH   8  11
ATOM     11  C   UNL     1       1.737   7.676  19.954  0.00  0.00    +0.000 A 
ATOM     12  C   UNL     1       1.733   6.418  20.575  0.00  0.00    +0.000 A 
ATOM     13  C   UNL     1       2.361   5.321  19.976  0.00  0.00    +0.000 A 
ATOM     14  C   UNL     1       3.002   5.472  18.748  0.00  0.00    +0.000 A 
ATOM     15  C   UNL     1       3.005   6.712  18.115  0.00  0.00    +0.000 A 
ATOM     16  C   UNL     1       2.376   7.810  18.714  0.00  0.00    +0.000 A 
ENDBRANCH   8  11
BRANCH   4  17
ATOM     17  S   UNL     1      -1.339  12.855  22.129  0.00  0.00    +0.000 S 
BRANCH  17  18
ATOM     18  C   UNL     1      -2.224  11.854  23.359  0.00  0.00    +0.000 C 
BRANCH  18  19
ATOM     19  C   UNL     1      -3.638  12.362  23.573  0.00  0.00    +0.000 C 
ATOM     20  O   UNL     1      -4.364  11.909  24.455  0.00  0.00    +0.000 OA
ATOM     21  N   UNL     1      -4.032  13.337  22.666  0.00  0.00    +0.000 N 
ATOM     22  H   UNL     1      -3.545  13.361  21.768  0.00  0.00    +0.000 HD
BRANCH  21  23
ATOM     23  C   UNL     1      -5.293  13.982  22.743  0.00  0.00    +0.000 A 
ATOM     24  C   UNL     1      -5.444  15.138  23.518  0.00  0.00    +0.000 A 
ATOM     25  C   UNL     1      -6.673  15.806  23.580  0.00  0.00    +0.000 A 
ATOM     26  C   UNL     1      -7.779  15.315  22.886  0.00  0.00    +0.000 A 
ATOM     27  C   UNL     1      -7.659  14.158  22.120  0.00  0.00    +0.000 A 
ATOM     28  C   UNL     1      -6.415  13.514  22.040  0.00  0.00    +0.000 A 
BRANCH  28  29
ATOM     29  N   UNL     1      -6.340  12.267  21.304  0.00  0.00    +0.000 N 
ATOM     30  O   UNL     1      -7.075  11.345  21.685  0.00  0.00    +0.000 OA
ATOM     31  O   UNL     1      -5.573  12.224  20.332  0.00  0.00    +0.000 OA
ENDBRANCH  28  29
ENDBRANCH  21  23
ENDBRANCH  18  19
ENDBRANCH  17  18
ENDBRANCH   4  17
TORSDOF 6
ENDMDL
MODEL 8
REMARK VINA RESULT:      -7.4      2.132      2.798
REMARK  Name = 
REMARK  7 active torsions:
REMARK  status: ('A' for Active; 'I' for Inactive)
REMARK    1  A    between atoms: C_1  and  C_2
REMARK    2  A    between atoms: C_4  and  S_5
REMARK    3  A    between atoms: S_5  and  C_6
REMARK    4  A    between atoms: C_6  and  C_7
REMARK    5  A    between atoms: N_9  and  C_10
REMARK    6  A    between atoms: C_15  and  N_16
REMARK    7  A    between atoms: C_22  and  C_23
REMARK                            x       y       z     vdW  Elec       q    Type
REMARK                         _______ _______ _______ _____ _____    ______ ____
ROOT
ATOM      1  C   UNL     1      -3.228  10.456  17.642  0.00  0.00    +0.000 C 
ATOM      2  C   UNL     1      -1.820  10.860  17.999  0.00  0.00    +0.000 A 
ATOM      3  C   UNL     1      -0.765   9.809  17.915  0.00  0.00    +0.000 A 
ATOM      4  C   UNL     1       0.480  10.186  18.233  0.00  0.00    +0.000 A 
ATOM      5  N   UNL     1       0.722  11.523  18.612  0.00  0.00    +0.000 N 
ATOM      6  N   UNL     1       1.907  12.089  18.987  0.00  0.00    +0.000 NA
ATOM      7  C   UNL     1       1.597  13.357  19.250  0.00  0.00    +0.000 A 
ATOM      8  C   UNL     1       0.228  13.646  19.094  0.00  0.00    +0.000 A 
ATOM      9  C   UNL     1      -0.330  12.448  18.673  0.00  0.00    +0.000 A 
ATOM     10  N   UNL     1      -1.614  12.094  18.351  0.00  0.00    +0.000 NA
ENDROOT
BRANCH   8  11
ATOM     11  C   UNL     1      -0.473  14.899  19.329  0.00  0.00    +0.000 A 
ATOM     12  C   UNL     1      -0.218  16.006  18.505  0.00  0.00    +0.000 A 
ATOM     13  C   UNL     1      -0.829  17.239  18.754  0.00  0.00    +0.000 A 
ATOM     14  C   UNL     1      -1.702  17.379  19.831  0.00  0.00    +0.000 A 
ATOM     15  C   UNL     1      -1.971  16.287  20.651  0.00  0.00    +0.000 A 
ATOM     16  C   UNL     1      -1.361  15.052  20.402  0.00  0.00    +0.000 A 
ENDBRANCH   8  11
BRANCH   4  17
ATOM     17  S   UNL     1       1.779   9.032  18.096  0.00  0.00    +0.000 S 
BRANCH  17  18
ATOM     18  C   UNL     1       1.913   8.366  19.781  0.00  0.00    +0.000 C 
BRANCH  18  19
ATOM     19  C   UNL     1       2.088   6.859  19.768  0.00  0.00    +0.000 C 
ATOM     20  O   UNL     1       1.812   6.165  20.744  0.00  0.00    +0.000 OA
ATOM     21  N   UNL     1       2.620   6.361  18.586  0.00  0.00    +0.000 N 
ATOM     22  H   UNL     1       3.171   7.006  18.016  0.00  0.00    +0.000 HD
BRANCH  21  23
ATOM     23  C   UNL     1       2.797   4.973  18.356  0.00  0.00    +0.000 A 
ATOM     24  C   UNL     1       1.683   4.145  18.167  0.00  0.00    +0.000 A 
ATOM     25  C   UNL     1       1.841   2.778  17.908  0.00  0.00    +0.000 A 
ATOM     26  C   UNL     1       3.114   2.211  17.858  0.00  0.00    +0.000 A 
ATOM     27  C   UNL     1       4.237   3.009  18.059  0.00  0.00    +0.000 A 
ATOM     28  C   UNL     1       4.069   4.384  18.287  0.00  0.00    +0.000 A 
BRANCH  28  29
ATOM     29  N   UNL     1       5.250   5.175  18.576  0.00  0.00    +0.000 N 
ATOM     30  O   UNL     1       5.996   4.763  19.475  0.00  0.00    +0.000 OA
ATOM     31  O   UNL     1       5.444   6.183  17.883  0.00  0.00    +0.000 OA
ENDBRANCH  28  29
ENDBRANCH  21  23
ENDBRANCH  18  19
ENDBRANCH  17  18
ENDBRANCH   4  17
TORSDOF 6
ENDMDL
MODEL 9
REMARK VINA RESULT:      -7.3      2.967      4.871
REMARK  Name = 
REMARK  7 active torsions:
REMARK  status: ('A' for Active; 'I' for Inactive)
REMARK    1  A    between atoms: C_1  and  C_2
REMARK    2  A    between atoms: C_4  and  S_5
REMARK    3  A    between atoms: S_5  and  C_6
REMARK    4  A    between atoms: C_6  and  C_7
REMARK    5  A    between atoms: N_9  and  C_10
REMARK    6  A    between atoms: C_15  and  N_16
REMARK    7  A    between atoms: C_22  and  C_23
REMARK                            x       y       z     vdW  Elec       q    Type
REMARK                         _______ _______ _______ _____ _____    ______ ____
ROOT
ATOM      1  C   UNL     1       0.146  12.707  18.157  0.00  0.00    +0.000 C 
ATOM      2  C   UNL     1       0.087  11.786  19.350  0.00  0.00    +0.000 A 
ATOM      3  C   UNL     1       0.797  10.479  19.239  0.00  0.00    +0.000 A 
ATOM      4  C   UNL     1       0.736   9.674  20.309  0.00  0.00    +0.000 A 
ATOM      5  N   UNL     1       0.031  10.098  21.454  0.00  0.00    +0.000 N 
ATOM      6  N   UNL     1      -0.158   9.420  22.624  0.00  0.00    +0.000 NA
ATOM      7  C   UNL     1      -0.890  10.247  23.368  0.00  0.00    +0.000 A 
ATOM      8  C   UNL     1      -1.225  11.447  22.714  0.00  0.00    +0.000 A 
ATOM      9  C   UNL     1      -0.616  11.343  21.472  0.00  0.00    +0.000 A 
ATOM     10  N   UNL     1      -0.570  12.189  20.396  0.00  0.00    +0.000 NA
ENDROOT
BRANCH   8  11
ATOM     11  C   UNL     1      -2.038  12.554  23.196  0.00  0.00    +0.000 A 
ATOM     12  C   UNL     1      -1.434  13.788  23.485  0.00  0.00    +0.000 A 
ATOM     13  C   UNL     1      -2.182  14.844  24.013  0.00  0.00    +0.000 A 
ATOM     14  C   UNL     1      -3.543  14.679  24.259  0.00  0.00    +0.000 A 
ATOM     15  C   UNL     1      -4.157  13.463  23.968  0.00  0.00    +0.000 A 
ATOM     16  C   UNL     1      -3.409  12.405  23.439  0.00  0.00    +0.000 A 
ENDBRANCH   8  11
BRANCH   4  17
ATOM     17  S   UNL     1       1.594   8.157  20.281  0.00  0.00    +0.000 S 
BRANCH  17  18
ATOM     18  C   UNL     1       2.234   8.080  18.583  0.00  0.00    +0.000 C 
BRANCH  18  19
ATOM     19  C   UNL     1       2.907   6.748  18.305  0.00  0.00    +0.000 C 
ATOM     20  O   UNL     1       4.016   6.679  17.781  0.00  0.00    +0.000 OA
ATOM     21  N   UNL     1       2.143   5.644  18.656  0.00  0.00    +0.000 N 
ATOM     22  H   UNL     1       1.130   5.774  18.702  0.00  0.00    +0.000 HD
BRANCH  21  23
ATOM     23  C   UNL     1       2.625   4.315  18.535  0.00  0.00    +0.000 A 
ATOM     24  C   UNL     1       3.232   3.894  17.345  0.00  0.00    +0.000 A 
ATOM     25  C   UNL     1       3.741   2.597  17.219  0.00  0.00    +0.000 A 
ATOM     26  C   UNL     1       3.630   1.689  18.273  0.00  0.00    +0.000 A 
ATOM     27  C   UNL     1       3.016   2.077  19.461  0.00  0.00    +0.000 A 
ATOM     28  C   UNL     1       2.537   3.390  19.587  0.00  0.00    +0.000 A 
BRANCH  28  29
ATOM     29  N   UNL     1       1.828   3.741  20.803  0.00  0.00    +0.000 N 
ATOM     30  O   UNL     1       0.766   4.367  20.674  0.00  0.00    +0.000 OA
ATOM     31  O   UNL     1       2.316   3.363  21.877  0.00  0.00    +0.000 OA
ENDBRANCH  28  29
ENDBRANCH  21  23
ENDBRANCH  18  19
ENDBRANCH  17  18
ENDBRANCH   4  17
TORSDOF 6
ENDMDL
