MODEL 1
REMARK VINA RESULT:      -8.7      0.000      0.000
REMARK  Name = 
REMARK  7 active torsions:
REMARK  status: ('A' for Active; 'I' for Inactive)
REMARK    1  A    between atoms: C_1  and  N_2
REMARK    2  A    between atoms: C_6  and  C_7
REMARK    3  A    between atoms: C_7  and  C_8
REMARK    4  A    between atoms: C_8  and  C_11
REMARK    5  A    between atoms: C_15  and  N_16
REMARK    6  A    between atoms: C_23  and  C_24
REMARK    7  A    between atoms: C_24  and  C_25
REMARK                            x       y       z     vdW  Elec       q    Type
REMARK                         _______ _______ _______ _____ _____    ______ ____
ROOT
ATOM      1  C   UNL     1       1.348   8.847  19.707  0.00  0.00    +0.000 A 
ATOM      2  C   UNL     1       1.912   9.231  18.474  0.00  0.00    +0.000 A 
ATOM      3  C   UNL     1       2.521   8.307  17.629  0.00  0.00    +0.000 A 
ATOM      4  C   UNL     1       2.708   7.001  18.061  0.00  0.00    +0.000 A 
ATOM      5  C   UNL     1       2.422   6.684  19.389  0.00  0.00    +0.000 A 
ATOM      6  C   UNL     1       1.589   7.539  20.142  0.00  0.00    +0.000 A 
ENDROOT
BRANCH   5   7
ATOM      7  N   UNL     1       3.366   5.849  20.144  0.00  0.00    +0.000 N 
ATOM      8  C   UNL     1       4.537   5.517  19.292  0.00  0.00    +0.000 C 
ATOM      9  C   UNL     1       4.053   4.285  18.581  0.00  0.00    +0.000 A 
ATOM     10  C   UNL     1       3.161   3.641  19.447  0.00  0.00    +0.000 A 
ATOM     11  C   UNL     1       2.360   2.581  19.058  0.00  0.00    +0.000 A 
ATOM     12  C   UNL     1       2.438   2.184  17.727  0.00  0.00    +0.000 A 
ATOM     13  C   UNL     1       3.307   2.839  16.833  0.00  0.00    +0.000 A 
ATOM     14  C   UNL     1       4.143   3.900  17.245  0.00  0.00    +0.000 A 
ATOM     15  C   UNL     1       2.856   4.584  20.555  0.00  0.00    +0.000 C 
ATOM     16  O   UNL     1       2.118   4.328  21.487  0.00  0.00    +0.000 OA
BRANCH  14  17
ATOM     17  C   UNL     1       5.002   4.610  16.223  0.00  0.00    +0.000 C 
ATOM     18  C   UNL     1       6.474   4.440  16.560  0.00  0.00    +0.000 C 
ATOM     19  F   UNL     1       4.809   4.125  14.961  0.00  0.00    +0.000 F 
ATOM     20  F   UNL     1       4.750   5.946  16.127  0.00  0.00    +0.000 F 
ENDBRANCH  14  17
ENDBRANCH   5   7
BRANCH   1  21
ATOM     21  C   UNL     1       0.670   9.859  20.568  0.00  0.00    +0.000 C 
ATOM     22  C   UNL     1       0.283   9.486  21.799  0.00  0.00    +0.000 C 
ATOM     23  F   UNL     1      -0.449  10.296  22.588  0.00  0.00    +0.000 F 
BRANCH  21  24
ATOM     24  C   UNL     1       0.292  11.221  20.019  0.00  0.00    +0.000 C 
BRANCH  24  30
ATOM     25  C   UNL     1       2.469  12.690  18.214  0.00  0.00    +0.000 C 
ATOM     26  N   UNL     1       2.117  12.979  19.578  0.00  0.00    +0.000 N 
ATOM     27  C   UNL     1       2.759  13.891  20.362  0.00  0.00    +0.000 A 
ATOM     28  N   UNL     1       2.197  13.919  21.548  0.00  0.00    +0.000 NA
ATOM     29  N   UNL     1       1.195  12.988  21.555  0.00  0.00    +0.000 NA
ATOM     30  C   UNL     1       1.146  12.403  20.371  0.00  0.00    +0.000 A 
ENDBRANCH  24  30
ENDBRANCH  21  24
ENDBRANCH   1  21
TORSDOF 5
ENDMDL
MODEL 2
REMARK VINA RESULT:      -8.6      1.654      2.095
REMARK  Name = 
REMARK  7 active torsions:
REMARK  status: ('A' for Active; 'I' for Inactive)
REMARK    1  A    between atoms: C_1  and  N_2
REMARK    2  A    between atoms: C_6  and  C_7
REMARK    3  A    between atoms: C_7  and  C_8
REMARK    4  A    between atoms: C_8  and  C_11
REMARK    5  A    between atoms: C_15  and  N_16
REMARK    6  A    between atoms: C_23  and  C_24
REMARK    7  A    between atoms: C_24  and  C_25
REMARK                            x       y       z     vdW  Elec       q    Type
REMARK                         _______ _______ _______ _____ _____    ______ ____
ROOT
ATOM      1  C   UNL     1       1.259   8.679  19.887  0.00  0.00    +0.000 A 
ATOM      2  C   UNL     1       1.855   9.191  18.716  0.00  0.00    +0.000 A 
ATOM      3  C   UNL     1       2.544   8.370  17.828  0.00  0.00    +0.000 A 
ATOM      4  C   UNL     1       2.776   7.042  18.160  0.00  0.00    +0.000 A 
ATOM      5  C   UNL     1       2.451   6.603  19.444  0.00  0.00    +0.000 A 
ATOM      6  C   UNL     1       1.546   7.352  20.225  0.00  0.00    +0.000 A 
ENDROOT
BRANCH   5   7
ATOM      7  N   UNL     1       3.402   5.751  20.170  0.00  0.00    +0.000 N 
ATOM      8  C   UNL     1       4.563   5.435  19.299  0.00  0.00    +0.000 C 
ATOM      9  C   UNL     1       4.070   4.218  18.568  0.00  0.00    +0.000 A 
ATOM     10  C   UNL     1       3.187   3.558  19.431  0.00  0.00    +0.000 A 
ATOM     11  C   UNL     1       2.380   2.507  19.031  0.00  0.00    +0.000 A 
ATOM     12  C   UNL     1       2.442   2.137  17.691  0.00  0.00    +0.000 A 
ATOM     13  C   UNL     1       3.301   2.808  16.800  0.00  0.00    +0.000 A 
ATOM     14  C   UNL     1       4.143   3.860  17.223  0.00  0.00    +0.000 A 
ATOM     15  C   UNL     1       2.896   4.478  20.562  0.00  0.00    +0.000 C 
ATOM     16  O   UNL     1       2.169   4.204  21.497  0.00  0.00    +0.000 OA
BRANCH  14  17
ATOM     17  C   UNL     1       4.991   4.590  16.206  0.00  0.00    +0.000 C 
ATOM     18  C   UNL     1       6.467   4.407  16.518  0.00  0.00    +0.000 C 
ATOM     19  F   UNL     1       4.778   4.134  14.936  0.00  0.00    +0.000 F 
ATOM     20  F   UNL     1       4.744   5.929  16.144  0.00  0.00    +0.000 F 
ENDBRANCH  14  17
ENDBRANCH   5   7
BRANCH   1  21
ATOM     21  C   UNL     1       0.496   9.583  20.796  0.00  0.00    +0.000 C 
ATOM     22  C   UNL     1      -0.054   9.054  21.901  0.00  0.00    +0.000 C 
ATOM     23  F   UNL     1      -0.865   9.771  22.703  0.00  0.00    +0.000 F 
BRANCH  21  24
ATOM     24  C   UNL     1       0.220  11.024  20.409  0.00  0.00    +0.000 C 
BRANCH  24  30
ATOM     25  C   UNL     1      -1.407  10.299  17.767  0.00  0.00    +0.000 C 
ATOM     26  N   UNL     1      -1.834  11.125  18.864  0.00  0.00    +0.000 N 
ATOM     27  C   UNL     1      -3.001  11.829  18.888  0.00  0.00    +0.000 A 
ATOM     28  N   UNL     1      -3.096  12.476  20.027  0.00  0.00    +0.000 NA
ATOM     29  N   UNL     1      -1.960  12.222  20.744  0.00  0.00    +0.000 NA
ATOM     30  C   UNL     1      -1.182  11.416  20.043  0.00  0.00    +0.000 A 
ENDBRANCH  24  30
ENDBRANCH  21  24
ENDBRANCH   1  21
TORSDOF 5
ENDMDL
MODEL 3
REMARK VINA RESULT:      -8.6      1.643      2.238
REMARK  Name = 
REMARK  7 active torsions:
REMARK  status: ('A' for Active; 'I' for Inactive)
REMARK    1  A    between atoms: C_1  and  N_2
REMARK    2  A    between atoms: C_6  and  C_7
REMARK    3  A    between atoms: C_7  and  C_8
REMARK    4  A    between atoms: C_8  and  C_11
REMARK    5  A    between atoms: C_15  and  N_16
REMARK    6  A    between atoms: C_23  and  C_24
REMARK    7  A    between atoms: C_24  and  C_25
REMARK                            x       y       z     vdW  Elec       q    Type
REMARK                         _______ _______ _______ _____ _____    ______ ____
ROOT
ATOM      1  C   UNL     1       1.243   8.654  19.976  0.00  0.00    +0.000 A 
ATOM      2  C   UNL     1       1.826   9.183  18.807  0.00  0.00    +0.000 A 
ATOM      3  C   UNL     1       2.512   8.377  17.903  0.00  0.00    +0.000 A 
ATOM      4  C   UNL     1       2.753   7.046  18.215  0.00  0.00    +0.000 A 
ATOM      5  C   UNL     1       2.441   6.589  19.496  0.00  0.00    +0.000 A 
ATOM      6  C   UNL     1       1.538   7.324  20.294  0.00  0.00    +0.000 A 
ENDROOT
BRANCH   5   7
ATOM      7  N   UNL     1       3.402   5.732  20.203  0.00  0.00    +0.000 N 
ATOM      8  C   UNL     1       4.555   5.432  19.317  0.00  0.00    +0.000 C 
ATOM      9  C   UNL     1       4.061   4.222  18.576  0.00  0.00    +0.000 A 
ATOM     10  C   UNL     1       3.188   3.547  19.439  0.00  0.00    +0.000 A 
ATOM     11  C   UNL     1       2.382   2.498  19.034  0.00  0.00    +0.000 A 
ATOM     12  C   UNL     1       2.433   2.145  17.688  0.00  0.00    +0.000 A 
ATOM     13  C   UNL     1       3.281   2.830  16.799  0.00  0.00    +0.000 A 
ATOM     14  C   UNL     1       4.123   3.881  17.227  0.00  0.00    +0.000 A 
ATOM     15  C   UNL     1       2.904   4.453  20.584  0.00  0.00    +0.000 C 
ATOM     16  O   UNL     1       2.186   4.164  21.522  0.00  0.00    +0.000 OA
BRANCH  14  17
ATOM     17  C   UNL     1       4.959   4.626  16.211  0.00  0.00    +0.000 C 
ATOM     18  C   UNL     1       6.437   4.476  16.530  0.00  0.00    +0.000 C 
ATOM     19  F   UNL     1       4.761   4.162  14.941  0.00  0.00    +0.000 F 
ATOM     20  F   UNL     1       4.683   5.959  16.144  0.00  0.00    +0.000 F 
ENDBRANCH  14  17
ENDBRANCH   5   7
BRANCH   1  21
ATOM     21  C   UNL     1       0.484   9.543  20.902  0.00  0.00    +0.000 C 
ATOM     22  C   UNL     1      -0.172   8.976  21.929  0.00  0.00    +0.000 C 
ATOM     23  F   UNL     1      -0.985   9.689  22.732  0.00  0.00    +0.000 F 
BRANCH  21  24
ATOM     24  C   UNL     1       0.330  11.023  20.611  0.00  0.00    +0.000 C 
BRANCH  24  30
ATOM     25  C   UNL     1      -2.118  12.665  21.822  0.00  0.00    +0.000 C 
ATOM     26  N   UNL     1      -1.975  12.159  20.483  0.00  0.00    +0.000 N 
ATOM     27  C   UNL     1      -2.946  12.221  19.529  0.00  0.00    +0.000 A 
ATOM     28  N   UNL     1      -2.502  11.677  18.419  0.00  0.00    +0.000 NA
ATOM     29  N   UNL     1      -1.236  11.220  18.658  0.00  0.00    +0.000 NA
ATOM     30  C   UNL     1      -0.911  11.494  19.910  0.00  0.00    +0.000 A 
ENDBRANCH  24  30
ENDBRANCH  21  24
ENDBRANCH   1  21
TORSDOF 5
ENDMDL
MODEL 4
REMARK VINA RESULT:      -8.4      2.763      7.760
REMARK  Name = 
REMARK  7 active torsions:
REMARK  status: ('A' for Active; 'I' for Inactive)
REMARK    1  A    between atoms: C_1  and  N_2
REMARK    2  A    between atoms: C_6  and  C_7
REMARK    3  A    between atoms: C_7  and  C_8
REMARK    4  A    between atoms: C_8  and  C_11
REMARK    5  A    between atoms: C_15  and  N_16
REMARK    6  A    between atoms: C_23  and  C_24
REMARK    7  A    between atoms: C_24  and  C_25
REMARK                            x       y       z     vdW  Elec       q    Type
REMARK                         _______ _______ _______ _____ _____    ______ ____
ROOT
ATOM      1  C   UNL     1       2.524   6.377  18.709  0.00  0.00    +0.000 A 
ATOM      2  C   UNL     1       2.314   7.259  17.630  0.00  0.00    +0.000 A 
ATOM      3  C   UNL     1       2.052   8.612  17.831  0.00  0.00    +0.000 A 
ATOM      4  C   UNL     1       1.851   9.088  19.119  0.00  0.00    +0.000 A 
ATOM      5  C   UNL     1       1.762   8.172  20.169  0.00  0.00    +0.000 A 
ATOM      6  C   UNL     1       2.270   6.867  19.995  0.00  0.00    +0.000 A 
ENDROOT
BRANCH   5   7
ATOM      7  N   UNL     1       0.709   8.342  21.178  0.00  0.00    +0.000 N 
ATOM      8  C   UNL     1      -0.602   8.545  20.509  0.00  0.00    +0.000 C 
ATOM      9  C   UNL     1      -0.604  10.033  20.293  0.00  0.00    +0.000 A 
ATOM     10  C   UNL     1       0.151  10.593  21.332  0.00  0.00    +0.000 A 
ATOM     11  C   UNL     1       0.540  11.921  21.353  0.00  0.00    +0.000 A 
ATOM     12  C   UNL     1       0.185  12.702  20.258  0.00  0.00    +0.000 A 
ATOM     13  C   UNL     1      -0.546  12.149  19.190  0.00  0.00    +0.000 A 
ATOM     14  C   UNL     1      -0.966  10.801  19.189  0.00  0.00    +0.000 A 
ATOM     15  C   UNL     1       0.858   9.482  22.020  0.00  0.00    +0.000 C 
ATOM     16  O   UNL     1       1.591   9.628  22.980  0.00  0.00    +0.000 OA
BRANCH  14  17
ATOM     17  C   UNL     1      -1.688  10.246  17.982  0.00  0.00    +0.000 C 
ATOM     18  C   UNL     1      -2.216  11.377  17.115  0.00  0.00    +0.000 C 
ATOM     19  F   UNL     1      -0.872   9.476  17.203  0.00  0.00    +0.000 F 
ATOM     20  F   UNL     1      -2.739   9.437  18.294  0.00  0.00    +0.000 F 
ENDBRANCH  14  17
ENDBRANCH   5   7
BRANCH   1  21
ATOM     21  C   UNL     1       2.839   4.942  18.453  0.00  0.00    +0.000 C 
ATOM     22  C   UNL     1       1.994   4.234  17.687  0.00  0.00    +0.000 C 
ATOM     23  F   UNL     1       2.135   2.905  17.515  0.00  0.00    +0.000 F 
BRANCH  21  24
ATOM     24  C   UNL     1       3.997   4.262  19.159  0.00  0.00    +0.000 C 
BRANCH  24  30
ATOM     25  C   UNL     1       5.444   3.923  16.340  0.00  0.00    +0.000 C 
ATOM     26  N   UNL     1       6.005   4.434  17.561  0.00  0.00    +0.000 N 
ATOM     27  C   UNL     1       7.318   4.765  17.725  0.00  0.00    +0.000 A 
ATOM     28  N   UNL     1       7.507   5.202  18.949  0.00  0.00    +0.000 NA
ATOM     29  N   UNL     1       6.312   5.122  19.608  0.00  0.00    +0.000 NA
ATOM     30  C   UNL     1       5.397   4.645  18.780  0.00  0.00    +0.000 A 
ENDBRANCH  24  30
ENDBRANCH  21  24
ENDBRANCH   1  21
TORSDOF 5
ENDMDL
MODEL 5
REMARK VINA RESULT:      -8.4      1.224      1.565
REMARK  Name = 
REMARK  7 active torsions:
REMARK  status: ('A' for Active; 'I' for Inactive)
REMARK    1  A    between atoms: C_1  and  N_2
REMARK    2  A    between atoms: C_6  and  C_7
REMARK    3  A    between atoms: C_7  and  C_8
REMARK    4  A    between atoms: C_8  and  C_11
REMARK    5  A    between atoms: C_15  and  N_16
REMARK    6  A    between atoms: C_23  and  C_24
REMARK    7  A    between atoms: C_24  and  C_25
REMARK                            x       y       z     vdW  Elec       q    Type
REMARK                         _______ _______ _______ _____ _____    ______ ____
ROOT
ATOM      1  C   UNL     1       1.260   8.690  19.919  0.00  0.00    +0.000 A 
ATOM      2  C   UNL     1       1.853   9.217  18.753  0.00  0.00    +0.000 A 
ATOM      3  C   UNL     1       2.545   8.408  17.856  0.00  0.00    +0.000 A 
ATOM      4  C   UNL     1       2.783   7.078  18.173  0.00  0.00    +0.000 A 
ATOM      5  C   UNL     1       2.460   6.623  19.452  0.00  0.00    +0.000 A 
ATOM      6  C   UNL     1       1.552   7.360  20.242  0.00  0.00    +0.000 A 
ENDROOT
BRANCH   5   7
ATOM      7  N   UNL     1       3.415   5.767  20.169  0.00  0.00    +0.000 N 
ATOM      8  C   UNL     1       4.570   5.454  19.288  0.00  0.00    +0.000 C 
ATOM      9  C   UNL     1       4.072   4.241  18.555  0.00  0.00    +0.000 A 
ATOM     10  C   UNL     1       3.193   3.578  19.421  0.00  0.00    +0.000 A 
ATOM     11  C   UNL     1       2.384   2.529  19.021  0.00  0.00    +0.000 A 
ATOM     12  C   UNL     1       2.437   2.165  17.679  0.00  0.00    +0.000 A 
ATOM     13  C   UNL     1       3.291   2.840  16.786  0.00  0.00    +0.000 A 
ATOM     14  C   UNL     1       4.136   3.889  17.209  0.00  0.00    +0.000 A 
ATOM     15  C   UNL     1       2.910   4.493  20.558  0.00  0.00    +0.000 C 
ATOM     16  O   UNL     1       2.188   4.215  21.497  0.00  0.00    +0.000 OA
BRANCH  14  17
ATOM     17  C   UNL     1       4.979   4.623  16.190  0.00  0.00    +0.000 C 
ATOM     18  C   UNL     1       6.455   4.465  16.512  0.00  0.00    +0.000 C 
ATOM     19  F   UNL     1       4.780   4.152  14.923  0.00  0.00    +0.000 F 
ATOM     20  F   UNL     1       4.711   5.957  16.113  0.00  0.00    +0.000 F 
ENDBRANCH  14  17
ENDBRANCH   5   7
BRANCH   1  21
ATOM     21  C   UNL     1       0.494   9.580  20.837  0.00  0.00    +0.000 C 
ATOM     22  C   UNL     1       0.777   9.532  22.149  0.00  0.00    +0.000 C 
ATOM     23  F   UNL     1       0.045  10.204  23.059  0.00  0.00    +0.000 F 
BRANCH  21  24
ATOM     24  C   UNL     1      -0.673  10.405  20.329  0.00  0.00    +0.000 C 
BRANCH  24  30
ATOM     25  C   UNL     1      -0.388  13.132  21.952  0.00  0.00    +0.000 C 
ATOM     26  N   UNL     1      -0.340  12.948  20.527  0.00  0.00    +0.000 N 
ATOM     27  C   UNL     1      -0.265  13.965  19.622  0.00  0.00    +0.000 A 
ATOM     28  N   UNL     1      -0.235  13.465  18.408  0.00  0.00    +0.000 NA
ATOM     29  N   UNL     1      -0.327  12.106  18.515  0.00  0.00    +0.000 NA
ATOM     30  C   UNL     1      -0.405  11.781  19.795  0.00  0.00    +0.000 A 
ENDBRANCH  24  30
ENDBRANCH  21  24
ENDBRANCH   1  21
TORSDOF 5
ENDMDL
MODEL 6
REMARK VINA RESULT:      -8.3      2.739      7.959
REMARK  Name = 
REMARK  7 active torsions:
REMARK  status: ('A' for Active; 'I' for Inactive)
REMARK    1  A    between atoms: C_1  and  N_2
REMARK    2  A    between atoms: C_6  and  C_7
REMARK    3  A    between atoms: C_7  and  C_8
REMARK    4  A    between atoms: C_8  and  C_11
REMARK    5  A    between atoms: C_15  and  N_16
REMARK    6  A    between atoms: C_23  and  C_24
REMARK    7  A    between atoms: C_24  and  C_25
REMARK                            x       y       z     vdW  Elec       q    Type
REMARK                         _______ _______ _______ _____ _____    ______ ____
ROOT
ATOM      1  C   UNL     1       2.505   6.905  18.593  0.00  0.00    +0.000 A 
ATOM      2  C   UNL     1       2.346   7.928  17.636  0.00  0.00    +0.000 A 
ATOM      3  C   UNL     1       2.053   9.237  18.008  0.00  0.00    +0.000 A 
ATOM      4  C   UNL     1       1.771   9.527  19.336  0.00  0.00    +0.000 A 
ATOM      5  C   UNL     1       1.635   8.473  20.240  0.00  0.00    +0.000 A 
ATOM      6  C   UNL     1       2.171   7.208  19.918  0.00  0.00    +0.000 A 
ENDROOT
BRANCH   5   7
ATOM      7  N   UNL     1       0.522   8.494  21.199  0.00  0.00    +0.000 N 
ATOM      8  C   UNL     1      -0.769   8.592  20.471  0.00  0.00    +0.000 C 
ATOM      9  C   UNL     1      -0.913  10.079  20.310  0.00  0.00    +0.000 A 
ATOM     10  C   UNL     1      -0.271  10.669  21.406  0.00  0.00    +0.000 A 
ATOM     11  C   UNL     1      -0.022  12.027  21.497  0.00  0.00    +0.000 A 
ATOM     12  C   UNL     1      -0.402  12.814  20.414  0.00  0.00    +0.000 A 
ATOM     13  C   UNL     1      -1.020  12.235  19.290  0.00  0.00    +0.000 A 
ATOM     14  C   UNL     1      -1.299  10.853  19.218  0.00  0.00    +0.000 A 
ATOM     15  C   UNL     1       0.513   9.606  22.090  0.00  0.00    +0.000 C 
ATOM     16  O   UNL     1       1.181   9.785  23.090  0.00  0.00    +0.000 OA
BRANCH  14  17
ATOM     17  C   UNL     1      -1.901  10.279  17.955  0.00  0.00    +0.000 C 
ATOM     18  C   UNL     1      -2.414  11.395  17.060  0.00  0.00    +0.000 C 
ATOM     19  F   UNL     1      -0.993   9.556  17.234  0.00  0.00    +0.000 F 
ATOM     20  F   UNL     1      -2.934   9.420  18.180  0.00  0.00    +0.000 F 
ENDBRANCH  14  17
ENDBRANCH   5   7
BRANCH   1  21
ATOM     21  C   UNL     1       2.856   5.522  18.159  0.00  0.00    +0.000 C 
ATOM     22  C   UNL     1       3.908   5.363  17.339  0.00  0.00    +0.000 C 
ATOM     23  F   UNL     1       4.211   4.167  16.797  0.00  0.00    +0.000 F 
BRANCH  21  24
ATOM     24  C   UNL     1       1.965   4.346  18.509  0.00  0.00    +0.000 C 
BRANCH  24  30
ATOM     25  C   UNL     1       4.281   2.479  19.653  0.00  0.00    +0.000 C 
ATOM     26  N   UNL     1       3.073   2.890  20.317  0.00  0.00    +0.000 N 
ATOM     27  C   UNL     1       2.678   2.440  21.542  0.00  0.00    +0.000 A 
ATOM     28  N   UNL     1       1.539   3.007  21.867  0.00  0.00    +0.000 NA
ATOM     29  N   UNL     1       1.163   3.810  20.827  0.00  0.00    +0.000 NA
ATOM     30  C   UNL     1       2.079   3.737  19.876  0.00  0.00    +0.000 A 
ENDBRANCH  24  30
ENDBRANCH  21  24
ENDBRANCH   1  21
TORSDOF 5
ENDMDL
MODEL 7
REMARK VINA RESULT:      -8.3      1.057      1.417
REMARK  Name = 
REMARK  7 active torsions:
REMARK  status: ('A' for Active; 'I' for Inactive)
REMARK    1  A    between atoms: C_1  and  N_2
REMARK    2  A    between atoms: C_6  and  C_7
REMARK    3  A    between atoms: C_7  and  C_8
REMARK    4  A    between atoms: C_8  and  C_11
REMARK    5  A    between atoms: C_15  and  N_16
REMARK    6  A    between atoms: C_23  and  C_24
REMARK    7  A    between atoms: C_24  and  C_25
REMARK                            x       y       z     vdW  Elec       q    Type
REMARK                         _______ _______ _______ _____ _____    ______ ____
ROOT
ATOM      1  C   UNL     1       1.191   8.718  19.923  0.00  0.00    +0.000 A 
ATOM      2  C   UNL     1       1.807   9.279  18.786  0.00  0.00    +0.000 A 
ATOM      3  C   UNL     1       2.543   8.503  17.896  0.00  0.00    +0.000 A 
ATOM      4  C   UNL     1       2.802   7.172  18.196  0.00  0.00    +0.000 A 
ATOM      5  C   UNL     1       2.451   6.687  19.457  0.00  0.00    +0.000 A 
ATOM      6  C   UNL     1       1.503   7.389  20.232  0.00  0.00    +0.000 A 
ENDROOT
BRANCH   5   7
ATOM      7  N   UNL     1       3.404   5.839  20.187  0.00  0.00    +0.000 N 
ATOM      8  C   UNL     1       4.612   5.607  19.354  0.00  0.00    +0.000 C 
ATOM      9  C   UNL     1       4.198   4.406  18.550  0.00  0.00    +0.000 A 
ATOM     10  C   UNL     1       3.306   3.675  19.344  0.00  0.00    +0.000 A 
ATOM     11  C   UNL     1       2.559   2.614  18.863  0.00  0.00    +0.000 A 
ATOM     12  C   UNL     1       2.693   2.308  17.512  0.00  0.00    +0.000 A 
ATOM     13  C   UNL     1       3.561   3.050  16.691  0.00  0.00    +0.000 A 
ATOM     14  C   UNL     1       4.342   4.113  17.196  0.00  0.00    +0.000 A 
ATOM     15  C   UNL     1       2.932   4.532  20.500  0.00  0.00    +0.000 C 
ATOM     16  O   UNL     1       2.176   4.189  21.389  0.00  0.00    +0.000 OA
BRANCH  14  17
ATOM     17  C   UNL     1       5.204   4.919  16.250  0.00  0.00    +0.000 C 
ATOM     18  C   UNL     1       5.391   4.173  14.940  0.00  0.00    +0.000 C 
ATOM     19  F   UNL     1       4.651   6.134  15.958  0.00  0.00    +0.000 F 
ATOM     20  F   UNL     1       6.441   5.207  16.744  0.00  0.00    +0.000 F 
ENDBRANCH  14  17
ENDBRANCH   5   7
BRANCH   1  21
ATOM     21  C   UNL     1       0.378   9.574  20.834  0.00  0.00    +0.000 C 
ATOM     22  C   UNL     1       0.040   9.079  22.036  0.00  0.00    +0.000 C 
ATOM     23  F   UNL     1      -0.800   9.732  22.863  0.00  0.00    +0.000 F 
BRANCH  21  24
ATOM     24  C   UNL     1      -0.180  10.903  20.362  0.00  0.00    +0.000 C 
BRANCH  24  30
ATOM     25  C   UNL     1      -1.775  13.540  21.174  0.00  0.00    +0.000 C 
ATOM     26  N   UNL     1      -0.358  13.308  21.257  0.00  0.00    +0.000 N 
ATOM     27  C   UNL     1       0.556  14.255  21.613  0.00  0.00    +0.000 A 
ATOM     28  N   UNL     1       1.759  13.727  21.595  0.00  0.00    +0.000 NA
ATOM     29  N   UNL     1       1.636  12.428  21.188  0.00  0.00    +0.000 NA
ATOM     30  C   UNL     1       0.358  12.166  20.967  0.00  0.00    +0.000 A 
ENDBRANCH  24  30
ENDBRANCH  21  24
ENDBRANCH   1  21
TORSDOF 5
ENDMDL
MODEL 8
REMARK VINA RESULT:      -8.3      1.841      2.299
REMARK  Name = 
REMARK  7 active torsions:
REMARK  status: ('A' for Active; 'I' for Inactive)
REMARK    1  A    between atoms: C_1  and  N_2
REMARK    2  A    between atoms: C_6  and  C_7
REMARK    3  A    between atoms: C_7  and  C_8
REMARK    4  A    between atoms: C_8  and  C_11
REMARK    5  A    between atoms: C_15  and  N_16
REMARK    6  A    between atoms: C_23  and  C_24
REMARK    7  A    between atoms: C_24  and  C_25
REMARK                            x       y       z     vdW  Elec       q    Type
REMARK                         _______ _______ _______ _____ _____    ______ ____
ROOT
ATOM      1  C   UNL     1       1.188   8.723  19.945  0.00  0.00    +0.000 A 
ATOM      2  C   UNL     1       1.826   9.277  18.816  0.00  0.00    +0.000 A 
ATOM      3  C   UNL     1       2.554   8.490  17.928  0.00  0.00    +0.000 A 
ATOM      4  C   UNL     1       2.782   7.153  18.224  0.00  0.00    +0.000 A 
ATOM      5  C   UNL     1       2.410   6.668  19.479  0.00  0.00    +0.000 A 
ATOM      6  C   UNL     1       1.470   7.387  20.249  0.00  0.00    +0.000 A 
ENDROOT
BRANCH   5   7
ATOM      7  N   UNL     1       3.338   5.797  20.213  0.00  0.00    +0.000 N 
ATOM      8  C   UNL     1       4.558   5.562  19.399  0.00  0.00    +0.000 C 
ATOM      9  C   UNL     1       4.144   4.380  18.569  0.00  0.00    +0.000 A 
ATOM     10  C   UNL     1       3.228   3.648  19.335  0.00  0.00    +0.000 A 
ATOM     11  C   UNL     1       2.477   2.604  18.824  0.00  0.00    +0.000 A 
ATOM     12  C   UNL     1       2.631   2.317  17.471  0.00  0.00    +0.000 A 
ATOM     13  C   UNL     1       3.524   3.061  16.677  0.00  0.00    +0.000 A 
ATOM     14  C   UNL     1       4.309   4.105  17.213  0.00  0.00    +0.000 A 
ATOM     15  C   UNL     1       2.843   4.492  20.497  0.00  0.00    +0.000 C 
ATOM     16  O   UNL     1       2.067   4.145  21.367  0.00  0.00    +0.000 OA
BRANCH  14  17
ATOM     17  C   UNL     1       5.198   4.914  16.296  0.00  0.00    +0.000 C 
ATOM     18  C   UNL     1       5.424   4.173  14.989  0.00  0.00    +0.000 C 
ATOM     19  F   UNL     1       4.655   6.130  15.992  0.00  0.00    +0.000 F 
ATOM     20  F   UNL     1       6.421   5.200  16.827  0.00  0.00    +0.000 F 
ENDBRANCH  14  17
ENDBRANCH   5   7
BRANCH   1  21
ATOM     21  C   UNL     1       0.385   9.592  20.852  0.00  0.00    +0.000 C 
ATOM     22  C   UNL     1       0.042   9.105  22.056  0.00  0.00    +0.000 C 
ATOM     23  F   UNL     1      -0.790   9.771  22.880  0.00  0.00    +0.000 F 
BRANCH  21  24
ATOM     24  C   UNL     1      -0.157  10.926  20.376  0.00  0.00    +0.000 C 
BRANCH  24  30
ATOM     25  C   UNL     1      -0.470  13.296  18.269  0.00  0.00    +0.000 C 
ATOM     26  N   UNL     1      -1.146  12.027  18.273  0.00  0.00    +0.000 N 
ATOM     27  C   UNL     1      -2.135  11.679  17.400  0.00  0.00    +0.000 A 
ATOM     28  N   UNL     1      -2.541  10.459  17.666  0.00  0.00    +0.000 NA
ATOM     29  N   UNL     1      -1.836  10.013  18.748  0.00  0.00    +0.000 NA
ATOM     30  C   UNL     1      -0.997  10.961  19.134  0.00  0.00    +0.000 A 
ENDBRANCH  24  30
ENDBRANCH  21  24
ENDBRANCH   1  21
TORSDOF 5
ENDMDL
MODEL 9
REMARK VINA RESULT:      -8.2      3.319      4.486
REMARK  Name = 
REMARK  7 active torsions:
REMARK  status: ('A' for Active; 'I' for Inactive)
REMARK    1  A    between atoms: C_1  and  N_2
REMARK    2  A    between atoms: C_6  and  C_7
REMARK    3  A    between atoms: C_7  and  C_8
REMARK    4  A    between atoms: C_8  and  C_11
REMARK    5  A    between atoms: C_15  and  N_16
REMARK    6  A    between atoms: C_23  and  C_24
REMARK    7  A    between atoms: C_24  and  C_25
REMARK                            x       y       z     vdW  Elec       q    Type
REMARK                         _______ _______ _______ _____ _____    ______ ____
ROOT
ATOM      1  C   UNL     1       1.298   9.188  19.536  0.00  0.00    +0.000 A 
ATOM      2  C   UNL     1       0.918   8.438  20.667  0.00  0.00    +0.000 A 
ATOM      3  C   UNL     1       1.514   7.216  20.968  0.00  0.00    +0.000 A 
ATOM      4  C   UNL     1       2.404   6.647  20.068  0.00  0.00    +0.000 A 
ATOM      5  C   UNL     1       2.561   7.236  18.813  0.00  0.00    +0.000 A 
ATOM      6  C   UNL     1       2.160   8.575  18.620  0.00  0.00    +0.000 A 
ENDROOT
BRANCH   5   7
ATOM      7  N   UNL     1       2.597   6.379  17.620  0.00  0.00    +0.000 N 
ATOM      8  C   UNL     1       1.724   5.195  17.825  0.00  0.00    +0.000 C 
ATOM      9  C   UNL     1       2.663   4.241  18.507  0.00  0.00    +0.000 A 
ATOM     10  C   UNL     1       3.950   4.536  18.040  0.00  0.00    +0.000 A 
ATOM     11  C   UNL     1       5.099   4.001  18.596  0.00  0.00    +0.000 A 
ATOM     12  C   UNL     1       4.939   3.163  19.696  0.00  0.00    +0.000 A 
ATOM     13  C   UNL     1       3.656   2.878  20.199  0.00  0.00    +0.000 A 
ATOM     14  C   UNL     1       2.486   3.405  19.608  0.00  0.00    +0.000 A 
ATOM     15  C   UNL     1       3.874   5.829  17.310  0.00  0.00    +0.000 C 
ATOM     16  O   UNL     1       4.821   6.365  16.767  0.00  0.00    +0.000 OA
BRANCH  14  17
ATOM     17  C   UNL     1       1.141   3.120  20.236  0.00  0.00    +0.000 C 
ATOM     18  C   UNL     1       1.320   2.506  21.615  0.00  0.00    +0.000 C 
ATOM     19  F   UNL     1       0.390   4.252  20.384  0.00  0.00    +0.000 F 
ATOM     20  F   UNL     1       0.361   2.276  19.505  0.00  0.00    +0.000 F 
ENDBRANCH  14  17
ENDBRANCH   5   7
BRANCH   1  21
ATOM     21  C   UNL     1       0.663  10.511  19.267  0.00  0.00    +0.000 C 
ATOM     22  C   UNL     1       1.455  11.529  18.891  0.00  0.00    +0.000 C 
ATOM     23  F   UNL     1       0.982  12.783  18.757  0.00  0.00    +0.000 F 
BRANCH  21  24
ATOM     24  C   UNL     1      -0.808  10.742  19.554  0.00  0.00    +0.000 C 
BRANCH  24  30
ATOM     25  C   UNL     1      -3.604  12.254  19.326  0.00  0.00    +0.000 C 
ATOM     26  N   UNL     1      -3.002  11.367  18.367  0.00  0.00    +0.000 N 
ATOM     27  C   UNL     1      -3.610  10.946  17.221  0.00  0.00    +0.000 A 
ATOM     28  N   UNL     1      -2.798  10.150  16.564  0.00  0.00    +0.000 NA
ATOM     29  N   UNL     1      -1.658  10.018  17.305  0.00  0.00    +0.000 NA
ATOM     30  C   UNL     1      -1.775  10.740  18.407  0.00  0.00    +0.000 A 
ENDBRANCH  24  30
ENDBRANCH  21  24
ENDBRANCH   1  21
TORSDOF 5
ENDMDL
