MODEL 1
REMARK VINA RESULT:      -8.0      0.000      0.000
REMARK  Name = 
REMARK  5 active torsions:
REMARK  status: ('A' for Active; 'I' for Inactive)
REMARK    1  A    between atoms: C_1  and  C_2
REMARK    2  A    between atoms: N_4  and  C_5
REMARK    3  A    between atoms: C_7  and  C_8
REMARK    4  A    between atoms: N_10  and  C_11
REMARK    5  A    between atoms: N_20  and  C_21
REMARK                            x       y       z     vdW  Elec       q    Type
REMARK                         _______ _______ _______ _____ _____    ______ ____
ROOT
ATOM      1  C   UNL     1       1.563   5.828  20.614  0.00  0.00    +0.000 C 
ATOM      2  O   UNL     1       0.367   5.558  20.641  0.00  0.00    +0.000 OA
ATOM      3  N   UNL     1       2.125   7.098  20.695  0.00  0.00    +0.000 N 
ATOM      4  H   UNL     1       3.132   7.190  20.633  0.00  0.00    +0.000 HD
ENDROOT
BRANCH   3   5
ATOM      5  C   UNL     1       1.419   8.319  20.768  0.00  0.00    +0.000 A 
ATOM      6  C   UNL     1       0.843   8.793  21.967  0.00  0.00    +0.000 A 
ATOM      7  C   UNL     1       0.097   9.973  22.002  0.00  0.00    +0.000 A 
ATOM      8  C   UNL     1      -0.053  10.652  20.819  0.00  0.00    +0.000 A 
ATOM      9  C   UNL     1       0.525  10.221  19.643  0.00  0.00    +0.000 A 
ATOM     10  C   UNL     1       1.281   9.066  19.587  0.00  0.00    +0.000 A 
ATOM     11  O   UNL     1       0.227  11.051  18.572  0.00  0.00    +0.000 OA
ATOM     12  C   UNL     1      -0.597  12.029  19.160  0.00  0.00    +0.000 A 
ATOM     13  O   UNL     1      -1.095  12.948  18.526  0.00  0.00    +0.000 OA
ATOM     14  N   UNL     1      -0.749  11.792  20.510  0.00  0.00    +0.000 N 
ATOM     15  C   UNL     1      -1.532  12.557  21.439  0.00  0.00    +0.000 C 
ENDBRANCH   3   5
BRANCH   1  18
ATOM     16  C   UNL     1       4.492   3.701  19.442  0.00  0.00    +0.000 A 
ATOM     17  C   UNL     1       3.600   4.765  19.579  0.00  0.00    +0.000 A 
ATOM     18  C   UNL     1       2.514   4.690  20.454  0.00  0.00    +0.000 A 
ATOM     19  C   UNL     1       2.277   3.497  21.152  0.00  0.00    +0.000 A 
ATOM     20  C   UNL     1       3.137   2.407  20.992  0.00  0.00    +0.000 A 
ATOM     21  C   UNL     1       4.236   2.518  20.141  0.00  0.00    +0.000 A 
ATOM     22  F   UNL     1       5.060   1.469  19.999  0.00  0.00    +0.000 F 
BRANCH  16  26
ATOM     23  C   UNL     1       7.700   4.582  17.668  0.00  0.00    +0.000 C 
ATOM     24  C   UNL     1       6.699   4.638  18.787  0.00  0.00    +0.000 C 
ATOM     25  O   UNL     1       6.870   5.388  19.744  0.00  0.00    +0.000 OA
ATOM     26  N   UNL     1       5.628   3.779  18.604  0.00  0.00    +0.000 N 
ATOM     27  H   UNL     1       5.702   3.059  17.890  0.00  0.00    +0.000 HD
ENDBRANCH  16  26
ENDBRANCH   1  18
TORSDOF 3
ENDMDL
MODEL 2
REMARK VINA RESULT:      -7.8      2.839      3.564
REMARK  Name = 
REMARK  5 active torsions:
REMARK  status: ('A' for Active; 'I' for Inactive)
REMARK    1  A    between atoms: C_1  and  C_2
REMARK    2  A    between atoms: N_4  and  C_5
REMARK    3  A    between atoms: C_7  and  C_8
REMARK    4  A    between atoms: N_10  and  C_11
REMARK    5  A    between atoms: N_20  and  C_21
REMARK                            x       y       z     vdW  Elec       q    Type
REMARK                         _______ _______ _______ _____ _____    ______ ____
ROOT
ATOM      1  C   UNL     1       3.000   6.434  18.201  0.00  0.00    +0.000 C 
ATOM      2  O   UNL     1       2.001   5.727  18.116  0.00  0.00    +0.000 OA
ATOM      3  N   UNL     1       3.033   7.774  18.573  0.00  0.00    +0.000 N 
ATOM      4  H   UNL     1       3.925   8.255  18.578  0.00  0.00    +0.000 HD
ENDROOT
BRANCH   3   5
ATOM      5  C   UNL     1       1.916   8.586  18.869  0.00  0.00    +0.000 A 
ATOM      6  C   UNL     1       1.145   9.209  17.865  0.00  0.00    +0.000 A 
ATOM      7  C   UNL     1       0.081  10.058  18.182  0.00  0.00    +0.000 A 
ATOM      8  C   UNL     1      -0.179  10.260  19.514  0.00  0.00    +0.000 A 
ATOM      9  C   UNL     1       0.545   9.638  20.510  0.00  0.00    +0.000 A 
ATOM     10  C   UNL     1       1.589   8.782  20.220  0.00  0.00    +0.000 A 
ATOM     11  O   UNL     1       0.119  10.003  21.778  0.00  0.00    +0.000 OA
ATOM     12  C   UNL     1      -0.918  10.914  21.506  0.00  0.00    +0.000 A 
ATOM     13  O   UNL     1      -1.548  11.488  22.384  0.00  0.00    +0.000 OA
ATOM     14  N   UNL     1      -1.101  11.053  20.147  0.00  0.00    +0.000 N 
ATOM     15  C   UNL     1      -2.047  11.907  19.485  0.00  0.00    +0.000 C 
ENDBRANCH   3   5
BRANCH   1  18
ATOM     16  C   UNL     1       5.743   4.629  16.281  0.00  0.00    +0.000 A 
ATOM     17  C   UNL     1       4.514   5.202  16.608  0.00  0.00    +0.000 A 
ATOM     18  C   UNL     1       4.307   5.808  17.849  0.00  0.00    +0.000 A 
ATOM     19  C   UNL     1       5.330   5.776  18.808  0.00  0.00    +0.000 A 
ATOM     20  C   UNL     1       6.552   5.165  18.510  0.00  0.00    +0.000 A 
ATOM     21  C   UNL     1       6.748   4.600  17.251  0.00  0.00    +0.000 A 
ATOM     22  F   UNL     1       7.927   4.022  16.972  0.00  0.00    +0.000 F 
BRANCH  16  26
ATOM     23  C   UNL     1       6.802   3.833  12.750  0.00  0.00    +0.000 C 
ATOM     24  C   UNL     1       6.836   4.588  14.049  0.00  0.00    +0.000 C 
ATOM     25  O   UNL     1       7.566   5.567  14.186  0.00  0.00    +0.000 OA
ATOM     26  N   UNL     1       5.990   4.060  15.010  0.00  0.00    +0.000 N 
ATOM     27  H   UNL     1       5.603   3.134  14.856  0.00  0.00    +0.000 HD
ENDBRANCH  16  26
ENDBRANCH   1  18
TORSDOF 3
ENDMDL
MODEL 3
REMARK VINA RESULT:      -7.7      1.512      1.789
REMARK  Name = 
REMARK  5 active torsions:
REMARK  status: ('A' for Active; 'I' for Inactive)
REMARK    1  A    between atoms: C_1  and  C_2
REMARK    2  A    between atoms: N_4  and  C_5
REMARK    3  A    between atoms: C_7  and  C_8
REMARK    4  A    between atoms: N_10  and  C_11
REMARK    5  A    between atoms: N_20  and  C_21
REMARK                            x       y       z     vdW  Elec       q    Type
REMARK                         _______ _______ _______ _____ _____    ______ ____
ROOT
ATOM      1  C   UNL     1       1.846   7.578  20.066  0.00  0.00    +0.000 C 
ATOM      2  O   UNL     1       1.920   8.333  19.102  0.00  0.00    +0.000 OA
ATOM      3  N   UNL     1       1.247   7.858  21.289  0.00  0.00    +0.000 N 
ATOM      4  H   UNL     1       1.278   7.155  22.018  0.00  0.00    +0.000 HD
ENDROOT
BRANCH   3   5
ATOM      5  C   UNL     1       0.662   9.086  21.670  0.00  0.00    +0.000 A 
ATOM      6  C   UNL     1      -0.164   9.212  22.808  0.00  0.00    +0.000 A 
ATOM      7  C   UNL     1      -0.781  10.423  23.131  0.00  0.00    +0.000 A 
ATOM      8  C   UNL     1      -0.551  11.484  22.292  0.00  0.00    +0.000 A 
ATOM      9  C   UNL     1       0.275  11.389  21.192  0.00  0.00    +0.000 A 
ATOM     10  C   UNL     1       0.910  10.207  20.862  0.00  0.00    +0.000 A 
ATOM     11  O   UNL     1       0.347  12.578  20.481  0.00  0.00    +0.000 OA
ATOM     12  C   UNL     1      -0.509  13.425  21.207  0.00  0.00    +0.000 A 
ATOM     13  O   UNL     1      -0.736  14.582  20.881  0.00  0.00    +0.000 OA
ATOM     14  N   UNL     1      -1.034  12.768  22.300  0.00  0.00    +0.000 N 
ATOM     15  C   UNL     1      -1.961  13.293  23.262  0.00  0.00    +0.000 C 
ENDBRANCH   3   5
BRANCH   1  18
ATOM     16  C   UNL     1       4.137   4.761  18.930  0.00  0.00    +0.000 A 
ATOM     17  C   UNL     1       3.542   6.018  19.047  0.00  0.00    +0.000 A 
ATOM     18  C   UNL     1       2.479   6.234  19.927  0.00  0.00    +0.000 A 
ATOM     19  C   UNL     1       1.956   5.153  20.651  0.00  0.00    +0.000 A 
ATOM     20  C   UNL     1       2.512   3.879  20.510  0.00  0.00    +0.000 A 
ATOM     21  C   UNL     1       3.597   3.694  19.655  0.00  0.00    +0.000 A 
ATOM     22  F   UNL     1       4.130   2.468  19.532  0.00  0.00    +0.000 F 
BRANCH  16  26
ATOM     23  C   UNL     1       7.520   4.567  17.279  0.00  0.00    +0.000 C 
ATOM     24  C   UNL     1       6.569   4.790  18.419  0.00  0.00    +0.000 C 
ATOM     25  O   UNL     1       6.981   5.159  19.516  0.00  0.00    +0.000 OA
ATOM     26  N   UNL     1       5.249   4.534  18.087  0.00  0.00    +0.000 N 
ATOM     27  H   UNL     1       5.056   4.033  17.224  0.00  0.00    +0.000 HD
ENDBRANCH  16  26
ENDBRANCH   1  18
TORSDOF 3
ENDMDL
MODEL 4
REMARK VINA RESULT:      -7.7      3.463      8.677
REMARK  Name = 
REMARK  5 active torsions:
REMARK  status: ('A' for Active; 'I' for Inactive)
REMARK    1  A    between atoms: C_1  and  C_2
REMARK    2  A    between atoms: N_4  and  C_5
REMARK    3  A    between atoms: C_7  and  C_8
REMARK    4  A    between atoms: N_10  and  C_11
REMARK    5  A    between atoms: N_20  and  C_21
REMARK                            x       y       z     vdW  Elec       q    Type
REMARK                         _______ _______ _______ _____ _____    ______ ____
ROOT
ATOM      1  C   UNL     1       1.539   8.688  19.108  0.00  0.00    +0.000 C 
ATOM      2  O   UNL     1       1.424   9.194  17.997  0.00  0.00    +0.000 OA
ATOM      3  N   UNL     1       2.292   7.563  19.429  0.00  0.00    +0.000 N 
ATOM      4  H   UNL     1       2.282   7.228  20.384  0.00  0.00    +0.000 HD
ENDROOT
BRANCH   3   5
ATOM      5  C   UNL     1       3.020   6.760  18.523  0.00  0.00    +0.000 A 
ATOM      6  C   UNL     1       2.673   5.420  18.250  0.00  0.00    +0.000 A 
ATOM      7  C   UNL     1       3.443   4.625  17.397  0.00  0.00    +0.000 A 
ATOM      8  C   UNL     1       4.553   5.207  16.837  0.00  0.00    +0.000 A 
ATOM      9  C   UNL     1       4.893   6.523  17.068  0.00  0.00    +0.000 A 
ATOM     10  C   UNL     1       4.137   7.333  17.894  0.00  0.00    +0.000 A 
ATOM     11  O   UNL     1       6.060   6.890  16.414  0.00  0.00    +0.000 OA
ATOM     12  C   UNL     1       6.439   5.700  15.766  0.00  0.00    +0.000 A 
ATOM     13  O   UNL     1       7.451   5.605  15.087  0.00  0.00    +0.000 OA
ATOM     14  N   UNL     1       5.524   4.698  16.012  0.00  0.00    +0.000 N 
ATOM     15  C   UNL     1       5.579   3.343  15.542  0.00  0.00    +0.000 C 
ENDBRANCH   3   5
BRANCH   1  18
ATOM     16  C   UNL     1      -0.398  11.221  21.183  0.00  0.00    +0.000 A 
ATOM     17  C   UNL     1       0.320  10.637  20.138  0.00  0.00    +0.000 A 
ATOM     18  C   UNL     1       0.781   9.322  20.226  0.00  0.00    +0.000 A 
ATOM     19  C   UNL     1       0.581   8.602  21.413  0.00  0.00    +0.000 A 
ATOM     20  C   UNL     1      -0.097   9.189  22.484  0.00  0.00    +0.000 A 
ATOM     21  C   UNL     1      -0.582  10.490  22.360  0.00  0.00    +0.000 A 
ATOM     22  F   UNL     1      -1.239  11.042  23.392  0.00  0.00    +0.000 F 
BRANCH  16  26
ATOM     23  C   UNL     1      -1.183  14.897  21.475  0.00  0.00    +0.000 C 
ATOM     24  C   UNL     1      -0.333  13.667  21.621  0.00  0.00    +0.000 C 
ATOM     25  O   UNL     1       0.768  13.726  22.162  0.00  0.00    +0.000 OA
ATOM     26  N   UNL     1      -0.923  12.531  21.092  0.00  0.00    +0.000 N 
ATOM     27  H   UNL     1      -1.730  12.643  20.486  0.00  0.00    +0.000 HD
ENDBRANCH  16  26
ENDBRANCH   1  18
TORSDOF 3
ENDMDL
MODEL 5
REMARK VINA RESULT:      -7.6      2.695      3.580
REMARK  Name = 
REMARK  5 active torsions:
REMARK  status: ('A' for Active; 'I' for Inactive)
REMARK    1  A    between atoms: C_1  and  C_2
REMARK    2  A    between atoms: N_4  and  C_5
REMARK    3  A    between atoms: C_7  and  C_8
REMARK    4  A    between atoms: N_10  and  C_11
REMARK    5  A    between atoms: N_20  and  C_21
REMARK                            x       y       z     vdW  Elec       q    Type
REMARK                         _______ _______ _______ _____ _____    ______ ____
ROOT
ATOM      1  C   UNL     1       2.249   7.825  18.825  0.00  0.00    +0.000 C 
ATOM      2  O   UNL     1       1.979   7.565  19.993  0.00  0.00    +0.000 OA
ATOM      3  N   UNL     1       1.727   8.870  18.070  0.00  0.00    +0.000 N 
ATOM      4  H   UNL     1       2.012   8.961  17.103  0.00  0.00    +0.000 HD
ENDROOT
BRANCH   3   5
ATOM      5  C   UNL     1       0.745   9.793  18.491  0.00  0.00    +0.000 A 
ATOM      6  C   UNL     1       0.962  10.702  19.549  0.00  0.00    +0.000 A 
ATOM      7  C   UNL     1      -0.045  11.565  19.989  0.00  0.00    +0.000 A 
ATOM      8  C   UNL     1      -1.256  11.488  19.347  0.00  0.00    +0.000 A 
ATOM      9  C   UNL     1      -1.479  10.627  18.293  0.00  0.00    +0.000 A 
ATOM     10  C   UNL     1      -0.494   9.777  17.830  0.00  0.00    +0.000 A 
ATOM     11  O   UNL     1      -2.777  10.708  17.811  0.00  0.00    +0.000 OA
ATOM     12  C   UNL     1      -3.360  11.674  18.653  0.00  0.00    +0.000 A 
ATOM     13  O   UNL     1      -4.530  12.018  18.561  0.00  0.00    +0.000 OA
ATOM     14  N   UNL     1      -2.439  12.148  19.562  0.00  0.00    +0.000 N 
ATOM     15  C   UNL     1      -2.664  13.121  20.593  0.00  0.00    +0.000 C 
ENDBRANCH   3   5
BRANCH   1  18
ATOM     16  C   UNL     1       4.245   4.738  17.842  0.00  0.00    +0.000 A 
ATOM     17  C   UNL     1       3.348   5.581  18.501  0.00  0.00    +0.000 A 
ATOM     18  C   UNL     1       3.214   6.922  18.133  0.00  0.00    +0.000 A 
ATOM     19  C   UNL     1       4.045   7.446  17.133  0.00  0.00    +0.000 A 
ATOM     20  C   UNL     1       4.979   6.625  16.495  0.00  0.00    +0.000 A 
ATOM     21  C   UNL     1       5.069   5.280  16.852  0.00  0.00    +0.000 A 
ATOM     22  F   UNL     1       5.964   4.498  16.228  0.00  0.00    +0.000 F 
BRANCH  16  26
ATOM     23  C   UNL     1       3.732   1.058  18.481  0.00  0.00    +0.000 C 
ATOM     24  C   UNL     1       3.384   2.408  17.921  0.00  0.00    +0.000 C 
ATOM     25  O   UNL     1       2.329   2.583  17.316  0.00  0.00    +0.000 OA
ATOM     26  N   UNL     1       4.355   3.365  18.161  0.00  0.00    +0.000 N 
ATOM     27  H   UNL     1       5.270   3.057  18.479  0.00  0.00    +0.000 HD
ENDBRANCH  16  26
ENDBRANCH   1  18
TORSDOF 3
ENDMDL
MODEL 6
REMARK VINA RESULT:      -7.6      7.125      8.824
REMARK  Name = 
REMARK  5 active torsions:
REMARK  status: ('A' for Active; 'I' for Inactive)
REMARK    1  A    between atoms: C_1  and  C_2
REMARK    2  A    between atoms: N_4  and  C_5
REMARK    3  A    between atoms: C_7  and  C_8
REMARK    4  A    between atoms: N_10  and  C_11
REMARK    5  A    between atoms: N_20  and  C_21
REMARK                            x       y       z     vdW  Elec       q    Type
REMARK                         _______ _______ _______ _____ _____    ______ ____
ROOT
ATOM      1  C   UNL     1       8.318   9.216  18.139  0.00  0.00    +0.000 C 
ATOM      2  O   UNL     1       7.749   9.954  17.342  0.00  0.00    +0.000 OA
ATOM      3  N   UNL     1       9.315   9.582  19.037  0.00  0.00    +0.000 N 
ATOM      4  H   UNL     1       9.725   8.868  19.626  0.00  0.00    +0.000 HD
ENDROOT
BRANCH   3   5
ATOM      5  C   UNL     1       9.899  10.863  19.158  0.00  0.00    +0.000 A 
ATOM      6  C   UNL     1       9.934  11.568  20.380  0.00  0.00    +0.000 A 
ATOM      7  C   UNL     1      10.463  12.859  20.464  0.00  0.00    +0.000 A 
ATOM      8  C   UNL     1      10.944  13.411  19.303  0.00  0.00    +0.000 A 
ATOM      9  C   UNL     1      10.944  12.728  18.105  0.00  0.00    +0.000 A 
ATOM     10  C   UNL     1      10.443  11.445  18.002  0.00  0.00    +0.000 A 
ATOM     11  O   UNL     1      11.462  13.486  17.065  0.00  0.00    +0.000 OA
ATOM     12  C   UNL     1      11.772  14.705  17.695  0.00  0.00    +0.000 A 
ATOM     13  O   UNL     1      12.241  15.663  17.098  0.00  0.00    +0.000 OA
ATOM     14  N   UNL     1      11.473  14.649  19.040  0.00  0.00    +0.000 N 
ATOM     15  C   UNL     1      11.629  15.700  20.005  0.00  0.00    +0.000 C 
ENDBRANCH   3   5
BRANCH   1  18
ATOM     16  C   UNL     1       6.792   5.888  17.101  0.00  0.00    +0.000 A 
ATOM     17  C   UNL     1       7.149   7.238  17.105  0.00  0.00    +0.000 A 
ATOM     18  C   UNL     1       7.922   7.777  18.136  0.00  0.00    +0.000 A 
ATOM     19  C   UNL     1       8.284   6.965  19.220  0.00  0.00    +0.000 A 
ATOM     20  C   UNL     1       7.895   5.623  19.252  0.00  0.00    +0.000 A 
ATOM     21  C   UNL     1       7.156   5.096  18.194  0.00  0.00    +0.000 A 
ATOM     22  F   UNL     1       6.794   3.804  18.230  0.00  0.00    +0.000 F 
BRANCH  16  26
ATOM     23  C   UNL     1       5.511   4.543  13.821  0.00  0.00    +0.000 C 
ATOM     24  C   UNL     1       6.557   5.043  14.776  0.00  0.00    +0.000 C 
ATOM     25  O   UNL     1       7.724   5.176  14.415  0.00  0.00    +0.000 OA
ATOM     26  N   UNL     1       6.059   5.310  16.040  0.00  0.00    +0.000 N 
ATOM     27  H   UNL     1       5.134   4.962  16.279  0.00  0.00    +0.000 HD
ENDBRANCH  16  26
ENDBRANCH   1  18
TORSDOF 3
ENDMDL
MODEL 7
REMARK VINA RESULT:      -7.6      2.566      3.455
REMARK  Name = 
REMARK  5 active torsions:
REMARK  status: ('A' for Active; 'I' for Inactive)
REMARK    1  A    between atoms: C_1  and  C_2
REMARK    2  A    between atoms: N_4  and  C_5
REMARK    3  A    between atoms: C_7  and  C_8
REMARK    4  A    between atoms: N_10  and  C_11
REMARK    5  A    between atoms: N_20  and  C_21
REMARK                            x       y       z     vdW  Elec       q    Type
REMARK                         _______ _______ _______ _____ _____    ______ ____
ROOT
ATOM      1  C   UNL     1       2.738   7.932  18.055  0.00  0.00    +0.000 C 
ATOM      2  O   UNL     1       2.597   8.943  17.375  0.00  0.00    +0.000 OA
ATOM      3  N   UNL     1       2.182   7.695  19.307  0.00  0.00    +0.000 N 
ATOM      4  H   UNL     1       2.398   6.825  19.779  0.00  0.00    +0.000 HD
ENDROOT
BRANCH   3   5
ATOM      5  C   UNL     1       1.397   8.599  20.056  0.00  0.00    +0.000 A 
ATOM      6  C   UNL     1       1.267   8.510  21.459  0.00  0.00    +0.000 A 
ATOM      7  C   UNL     1       0.437   9.378  22.172  0.00  0.00    +0.000 A 
ATOM      8  C   UNL     1      -0.249  10.321  21.448  0.00  0.00    +0.000 A 
ATOM      9  C   UNL     1      -0.114  10.443  20.081  0.00  0.00    +0.000 A 
ATOM     10  C   UNL     1       0.714   9.608  19.356  0.00  0.00    +0.000 A 
ATOM     11  O   UNL     1      -0.912  11.450  19.559  0.00  0.00    +0.000 OA
ATOM     12  C   UNL     1      -1.573  11.943  20.699  0.00  0.00    +0.000 A 
ATOM     13  O   UNL     1      -2.398  12.844  20.653  0.00  0.00    +0.000 OA
ATOM     14  N   UNL     1      -1.160  11.271  21.830  0.00  0.00    +0.000 N 
ATOM     15  C   UNL     1      -1.623  11.476  23.174  0.00  0.00    +0.000 C 
ENDBRANCH   3   5
BRANCH   1  18
ATOM     16  C   UNL     1       4.432   4.567  17.522  0.00  0.00    +0.000 A 
ATOM     17  C   UNL     1       3.624   5.573  18.053  0.00  0.00    +0.000 A 
ATOM     18  C   UNL     1       3.608   6.855  17.499  0.00  0.00    +0.000 A 
ATOM     19  C   UNL     1       4.473   7.154  16.436  0.00  0.00    +0.000 A 
ATOM     20  C   UNL     1       5.321   6.169  15.923  0.00  0.00    +0.000 A 
ATOM     21  C   UNL     1       5.292   4.885  16.467  0.00  0.00    +0.000 A 
ATOM     22  F   UNL     1       6.104   3.944  15.962  0.00  0.00    +0.000 F 
BRANCH  16  26
ATOM     23  C   UNL     1       3.595   1.073  18.665  0.00  0.00    +0.000 C 
ATOM     24  C   UNL     1       3.369   2.355  17.915  0.00  0.00    +0.000 C 
ATOM     25  O   UNL     1       2.335   2.533  17.276  0.00  0.00    +0.000 OA
ATOM     26  N   UNL     1       4.420   3.248  18.033  0.00  0.00    +0.000 N 
ATOM     27  H   UNL     1       5.303   2.910  18.405  0.00  0.00    +0.000 HD
ENDBRANCH  16  26
ENDBRANCH   1  18
TORSDOF 3
ENDMDL
MODEL 8
REMARK VINA RESULT:      -7.5      2.724      3.968
REMARK  Name = 
REMARK  5 active torsions:
REMARK  status: ('A' for Active; 'I' for Inactive)
REMARK    1  A    between atoms: C_1  and  C_2
REMARK    2  A    between atoms: N_4  and  C_5
REMARK    3  A    between atoms: C_7  and  C_8
REMARK    4  A    between atoms: N_10  and  C_11
REMARK    5  A    between atoms: N_20  and  C_21
REMARK                            x       y       z     vdW  Elec       q    Type
REMARK                         _______ _______ _______ _____ _____    ______ ____
ROOT
ATOM      1  C   UNL     1       2.087   8.801  18.208  0.00  0.00    +0.000 C 
ATOM      2  O   UNL     1       2.288   9.777  17.493  0.00  0.00    +0.000 OA
ATOM      3  N   UNL     1       1.179   8.721  19.259  0.00  0.00    +0.000 N 
ATOM      4  H   UNL     1       1.128   7.862  19.793  0.00  0.00    +0.000 HD
ENDROOT
BRANCH   3   5
ATOM      5  C   UNL     1       0.358   9.767  19.734  0.00  0.00    +0.000 A 
ATOM      6  C   UNL     1      -0.594  10.415  18.919  0.00  0.00    +0.000 A 
ATOM      7  C   UNL     1      -1.353  11.489  19.393  0.00  0.00    +0.000 A 
ATOM      8  C   UNL     1      -1.128  11.887  20.686  0.00  0.00    +0.000 A 
ATOM      9  C   UNL     1      -0.222  11.250  21.509  0.00  0.00    +0.000 A 
ATOM     10  C   UNL     1       0.526  10.175  21.068  0.00  0.00    +0.000 A 
ATOM     11  O   UNL     1      -0.149  11.832  22.765  0.00  0.00    +0.000 OA
ATOM     12  C   UNL     1      -1.065  12.895  22.667  0.00  0.00    +0.000 A 
ATOM     13  O   UNL     1      -1.277  13.678  23.583  0.00  0.00    +0.000 OA
ATOM     14  N   UNL     1      -1.659  12.914  21.423  0.00  0.00    +0.000 N 
ATOM     15  C   UNL     1      -2.627  13.859  20.942  0.00  0.00    +0.000 C 
ENDBRANCH   3   5
BRANCH   1  18
ATOM     16  C   UNL     1       3.375   5.222  18.284  0.00  0.00    +0.000 A 
ATOM     17  C   UNL     1       2.606   6.359  18.541  0.00  0.00    +0.000 A 
ATOM     18  C   UNL     1       2.910   7.585  17.947  0.00  0.00    +0.000 A 
ATOM     19  C   UNL     1       4.048   7.691  17.133  0.00  0.00    +0.000 A 
ATOM     20  C   UNL     1       4.852   6.572  16.902  0.00  0.00    +0.000 A 
ATOM     21  C   UNL     1       4.508   5.349  17.476  0.00  0.00    +0.000 A 
ATOM     22  F   UNL     1       5.282   4.278  17.242  0.00  0.00    +0.000 F 
BRANCH  16  26
ATOM     23  C   UNL     1       2.048   1.778  19.053  0.00  0.00    +0.000 C 
ATOM     24  C   UNL     1       2.350   2.960  18.177  0.00  0.00    +0.000 C 
ATOM     25  O   UNL     1       1.989   2.979  17.003  0.00  0.00    +0.000 OA
ATOM     26  N   UNL     1       3.051   3.959  18.831  0.00  0.00    +0.000 N 
ATOM     27  H   UNL     1       3.477   3.743  19.728  0.00  0.00    +0.000 HD
ENDBRANCH  16  26
ENDBRANCH   1  18
TORSDOF 3
ENDMDL
MODEL 9
REMARK VINA RESULT:      -7.5      3.547      8.369
REMARK  Name = 
REMARK  5 active torsions:
REMARK  status: ('A' for Active; 'I' for Inactive)
REMARK    1  A    between atoms: C_1  and  C_2
REMARK    2  A    between atoms: N_4  and  C_5
REMARK    3  A    between atoms: C_7  and  C_8
REMARK    4  A    between atoms: N_10  and  C_11
REMARK    5  A    between atoms: N_20  and  C_21
REMARK                            x       y       z     vdW  Elec       q    Type
REMARK                         _______ _______ _______ _____ _____    ______ ____
ROOT
ATOM      1  C   UNL     1       1.545   7.701  20.358  0.00  0.00    +0.000 C 
ATOM      2  O   UNL     1       1.584   6.636  20.966  0.00  0.00    +0.000 OA
ATOM      3  N   UNL     1       2.108   7.962  19.113  0.00  0.00    +0.000 N 
ATOM      4  H   UNL     1       2.028   8.897  18.730  0.00  0.00    +0.000 HD
ENDROOT
BRANCH   3   5
ATOM      5  C   UNL     1       2.878   7.065  18.341  0.00  0.00    +0.000 A 
ATOM      6  C   UNL     1       2.540   5.702  18.200  0.00  0.00    +0.000 A 
ATOM      7  C   UNL     1       3.350   4.820  17.481  0.00  0.00    +0.000 A 
ATOM      8  C   UNL     1       4.491   5.337  16.920  0.00  0.00    +0.000 A 
ATOM      9  C   UNL     1       4.825   6.671  17.023  0.00  0.00    +0.000 A 
ATOM     10  C   UNL     1       4.031   7.566  17.714  0.00  0.00    +0.000 A 
ATOM     11  O   UNL     1       6.026   6.965  16.395  0.00  0.00    +0.000 OA
ATOM     12  C   UNL     1       6.433   5.711  15.904  0.00  0.00    +0.000 A 
ATOM     13  O   UNL     1       7.480   5.543  15.294  0.00  0.00    +0.000 OA
ATOM     14  N   UNL     1       5.502   4.742  16.209  0.00  0.00    +0.000 N 
ATOM     15  C   UNL     1       5.575   3.343  15.895  0.00  0.00    +0.000 C 
ENDBRANCH   3   5
BRANCH   1  18
ATOM     16  C   UNL     1       0.173  11.175  21.085  0.00  0.00    +0.000 A 
ATOM     17  C   UNL     1       0.837  10.117  20.461  0.00  0.00    +0.000 A 
ATOM     18  C   UNL     1       0.847   8.839  21.025  0.00  0.00    +0.000 A 
ATOM     19  C   UNL     1       0.240   8.634  22.272  0.00  0.00    +0.000 A 
ATOM     20  C   UNL     1      -0.390   9.694  22.929  0.00  0.00    +0.000 A 
ATOM     21  C   UNL     1      -0.420  10.952  22.330  0.00  0.00    +0.000 A 
ATOM     22  F   UNL     1      -1.034  11.962  22.965  0.00  0.00    +0.000 F 
BRANCH  16  26
ATOM     23  C   UNL     1       0.593  14.785  20.081  0.00  0.00    +0.000 C 
ATOM     24  C   UNL     1       0.992  13.496  20.743  0.00  0.00    +0.000 C 
ATOM     25  O   UNL     1       2.019  13.428  21.414  0.00  0.00    +0.000 OA
ATOM     26  N   UNL     1       0.104  12.462  20.503  0.00  0.00    +0.000 N 
ATOM     27  H   UNL     1      -0.586  12.578  19.766  0.00  0.00    +0.000 HD
ENDBRANCH  16  26
ENDBRANCH   1  18
TORSDOF 3
ENDMDL
