MODEL 1
REMARK VINA RESULT:      -8.0      0.000      0.000
REMARK  Name = 
REMARK  6 active torsions:
REMARK  status: ('A' for Active; 'I' for Inactive)
REMARK    1  A    between atoms: C_2  and  O_3
REMARK    2  A    between atoms: C_2  and  C_12
REMARK    3  A    between atoms: O_3  and  C_4
REMARK    4  A    between atoms: C_4  and  C_5
REMARK    5  A    between atoms: C_16  and  S_17
REMARK    6  A    between atoms: S_17  and  N_20
REMARK                            x       y       z     vdW  Elec       q    Type
REMARK                         _______ _______ _______ _____ _____    ______ ____
ROOT
ATOM      1  C   UNL     1       2.181   7.750  19.027  0.00  0.00    +0.000 A 
ATOM      2  C   UNL     1       1.789   7.109  20.206  0.00  0.00    +0.000 A 
ATOM      3  C   UNL     1       1.068   7.804  21.184  0.00  0.00    +0.000 A 
ATOM      4  C   UNL     1       0.790   9.158  21.011  0.00  0.00    +0.000 A 
ATOM      5  C   UNL     1       1.195   9.803  19.837  0.00  0.00    +0.000 A 
ATOM      6  C   UNL     1       1.835   9.090  18.825  0.00  0.00    +0.000 A 
ENDROOT
BRANCH   5   7
ATOM      7  S   UNL     1       1.017  11.573  19.729  0.00  0.00    +0.000 S 
ATOM      8  O   UNL     1       1.406  12.094  21.024  0.00  0.00    +0.000 OA
ATOM      9  O   UNL     1       1.715  11.977  18.523  0.00  0.00    +0.000 OA
BRANCH   7  10
ATOM     10  N   UNL     1      -0.608  11.875  19.502  0.00  0.00    +0.000 N 
ATOM     11  C   UNL     1      -1.524  12.114  20.656  0.00  0.00    +0.000 C 
ATOM     12  C   UNL     1      -2.818  12.542  19.958  0.00  0.00    +0.000 C 
ATOM     13  C   UNL     1      -2.767  11.566  18.819  0.00  0.00    +0.000 A 
ATOM     14  C   UNL     1      -3.807  10.865  18.244  0.00  0.00    +0.000 A 
ATOM     15  C   UNL     1      -3.483   9.916  17.276  0.00  0.00    +0.000 A 
ATOM     16  C   UNL     1      -2.155   9.759  16.835  0.00  0.00    +0.000 A 
ATOM     17  C   UNL     1      -1.108  10.478  17.425  0.00  0.00    +0.000 A 
ATOM     18  C   UNL     1      -1.429  11.306  18.479  0.00  0.00    +0.000 A 
ENDBRANCH   7  10
ENDBRANCH   5   7
BRANCH   1  20
ATOM     19  O   UNL     1       4.062   7.444  17.567  0.00  0.00    +0.000 OA
ATOM     20  C   UNL     1       3.015   7.012  18.044  0.00  0.00    +0.000 C 
BRANCH  20  21
ATOM     21  O   UNL     1       2.451   5.811  17.753  0.00  0.00    +0.000 OA
BRANCH  21  22
ATOM     22  C   UNL     1       3.369   4.735  17.569  0.00  0.00    +0.000 C 
BRANCH  22  23
ATOM     23  C   UNL     1       3.829   4.076  18.877  0.00  0.00    +0.000 C 
ATOM     24  O   UNL     1       4.997   4.127  19.257  0.00  0.00    +0.000 OA
ATOM     25  N   UNL     1       2.852   3.422  19.612  0.00  0.00    +0.000 N 
ATOM     26  C   UNL     1       1.471   3.184  19.235  0.00  0.00    +0.000 C 
ATOM     27  C   UNL     1       0.743   3.227  20.565  0.00  0.00    +0.000 C 
ATOM     28  C   UNL     1       1.737   2.577  21.524  0.00  0.00    +0.000 C 
ATOM     29  C   UNL     1       3.109   2.945  20.959  0.00  0.00    +0.000 C 
ENDBRANCH  22  23
ENDBRANCH  21  22
ENDBRANCH  20  21
ENDBRANCH   1  20
TORSDOF 6
ENDMDL
MODEL 2
REMARK VINA RESULT:      -7.9      2.590      8.509
REMARK  Name = 
REMARK  6 active torsions:
REMARK  status: ('A' for Active; 'I' for Inactive)
REMARK    1  A    between atoms: C_2  and  O_3
REMARK    2  A    between atoms: C_2  and  C_12
REMARK    3  A    between atoms: O_3  and  C_4
REMARK    4  A    between atoms: C_4  and  C_5
REMARK    5  A    between atoms: C_16  and  S_17
REMARK    6  A    between atoms: S_17  and  N_20
REMARK                            x       y       z     vdW  Elec       q    Type
REMARK                         _______ _______ _______ _____ _____    ______ ____
ROOT
ATOM      1  C   UNL     1       1.818   8.074  19.194  0.00  0.00    +0.000 A 
ATOM      2  C   UNL     1       1.466   7.972  20.543  0.00  0.00    +0.000 A 
ATOM      3  C   UNL     1       1.563   6.746  21.210  0.00  0.00    +0.000 A 
ATOM      4  C   UNL     1       1.956   5.606  20.514  0.00  0.00    +0.000 A 
ATOM      5  C   UNL     1       2.295   5.705  19.160  0.00  0.00    +0.000 A 
ATOM      6  C   UNL     1       2.282   6.941  18.517  0.00  0.00    +0.000 A 
ENDROOT
BRANCH   5   7
ATOM      7  S   UNL     1       2.589   4.206  18.241  0.00  0.00    +0.000 S 
ATOM      8  O   UNL     1       2.856   3.178  19.226  0.00  0.00    +0.000 OA
ATOM      9  O   UNL     1       1.481   4.077  17.312  0.00  0.00    +0.000 OA
BRANCH   7  10
ATOM     10  N   UNL     1       3.975   4.459  17.347  0.00  0.00    +0.000 N 
ATOM     11  C   UNL     1       4.339   3.568  16.207  0.00  0.00    +0.000 C 
ATOM     12  C   UNL     1       5.532   4.305  15.591  0.00  0.00    +0.000 C 
ATOM     13  C   UNL     1       6.194   4.727  16.870  0.00  0.00    +0.000 A 
ATOM     14  C   UNL     1       7.540   4.759  17.168  0.00  0.00    +0.000 A 
ATOM     15  C   UNL     1       7.900   5.070  18.478  0.00  0.00    +0.000 A 
ATOM     16  C   UNL     1       6.926   5.435  19.427  0.00  0.00    +0.000 A 
ATOM     17  C   UNL     1       5.561   5.401  19.112  0.00  0.00    +0.000 A 
ATOM     18  C   UNL     1       5.217   4.952  17.854  0.00  0.00    +0.000 A 
ENDBRANCH   7  10
ENDBRANCH   5   7
BRANCH   1  20
ATOM     19  O   UNL     1       2.124   9.640  17.400  0.00  0.00    +0.000 OA
ATOM     20  C   UNL     1       1.626   9.368  18.490  0.00  0.00    +0.000 C 
BRANCH  20  21
ATOM     21  O   UNL     1       0.835  10.193  19.225  0.00  0.00    +0.000 OA
BRANCH  21  22
ATOM     22  C   UNL     1       0.425  11.390  18.567  0.00  0.00    +0.000 C 
BRANCH  22  23
ATOM     23  C   UNL     1      -1.038  11.774  18.823  0.00  0.00    +0.000 C 
ATOM     24  O   UNL     1      -1.355  12.605  19.671  0.00  0.00    +0.000 OA
ATOM     25  N   UNL     1      -1.988  11.134  18.041  0.00  0.00    +0.000 N 
ATOM     26  C   UNL     1      -1.774  10.058  17.091  0.00  0.00    +0.000 C 
ATOM     27  C   UNL     1      -2.830  10.321  16.035  0.00  0.00    +0.000 C 
ATOM     28  C   UNL     1      -4.014  10.833  16.851  0.00  0.00    +0.000 C 
ATOM     29  C   UNL     1      -3.376  11.558  18.036  0.00  0.00    +0.000 C 
ENDBRANCH  22  23
ENDBRANCH  21  22
ENDBRANCH  20  21
ENDBRANCH   1  20
TORSDOF 6
ENDMDL
MODEL 3
REMARK VINA RESULT:      -7.9      5.685      9.267
REMARK  Name = 
REMARK  6 active torsions:
REMARK  status: ('A' for Active; 'I' for Inactive)
REMARK    1  A    between atoms: C_2  and  O_3
REMARK    2  A    between atoms: C_2  and  C_12
REMARK    3  A    between atoms: O_3  and  C_4
REMARK    4  A    between atoms: C_4  and  C_5
REMARK    5  A    between atoms: C_16  and  S_17
REMARK    6  A    between atoms: S_17  and  N_20
REMARK                            x       y       z     vdW  Elec       q    Type
REMARK                         _______ _______ _______ _____ _____    ______ ____
ROOT
ATOM      1  C   UNL     1       7.996   7.887  18.128  0.00  0.00    +0.000 A 
ATOM      2  C   UNL     1       8.437   7.018  19.130  0.00  0.00    +0.000 A 
ATOM      3  C   UNL     1       8.037   5.677  19.132  0.00  0.00    +0.000 A 
ATOM      4  C   UNL     1       7.146   5.217  18.164  0.00  0.00    +0.000 A 
ATOM      5  C   UNL     1       6.694   6.091  17.169  0.00  0.00    +0.000 A 
ATOM      6  C   UNL     1       7.161   7.403  17.116  0.00  0.00    +0.000 A 
ENDROOT
BRANCH   5   7
ATOM      7  S   UNL     1       5.399   5.542  16.074  0.00  0.00    +0.000 S 
ATOM      8  O   UNL     1       5.242   6.587  15.084  0.00  0.00    +0.000 OA
ATOM      9  O   UNL     1       5.748   4.190  15.680  0.00  0.00    +0.000 OA
BRANCH   7  10
ATOM     10  N   UNL     1       4.005   5.462  16.988  0.00  0.00    +0.000 N 
ATOM     11  C   UNL     1       3.619   6.565  17.916  0.00  0.00    +0.000 C 
ATOM     12  C   UNL     1       2.211   6.144  18.348  0.00  0.00    +0.000 C 
ATOM     13  C   UNL     1       2.472   4.673  18.488  0.00  0.00    +0.000 A 
ATOM     14  C   UNL     1       1.999   3.806  19.451  0.00  0.00    +0.000 A 
ATOM     15  C   UNL     1       2.491   2.502  19.439  0.00  0.00    +0.000 A 
ATOM     16  C   UNL     1       3.357   2.067  18.417  0.00  0.00    +0.000 A 
ATOM     17  C   UNL     1       3.828   2.956  17.442  0.00  0.00    +0.000 A 
ATOM     18  C   UNL     1       3.445   4.276  17.556  0.00  0.00    +0.000 A 
ENDBRANCH   7  10
ENDBRANCH   5   7
BRANCH   1  20
ATOM     19  O   UNL     1       7.956  10.181  17.422  0.00  0.00    +0.000 OA
ATOM     20  C   UNL     1       8.370   9.323  18.198  0.00  0.00    +0.000 C 
BRANCH  20  21
ATOM     21  O   UNL     1       9.228   9.539  19.228  0.00  0.00    +0.000 OA
BRANCH  21  22
ATOM     22  C   UNL     1       9.921  10.785  19.194  0.00  0.00    +0.000 C 
BRANCH  22  23
ATOM     23  C   UNL     1       9.314  11.861  20.105  0.00  0.00    +0.000 C 
ATOM     24  O   UNL     1       9.087  11.655  21.296  0.00  0.00    +0.000 OA
ATOM     25  N   UNL     1       9.038  13.084  19.512  0.00  0.00    +0.000 N 
ATOM     26  C   UNL     1       9.145  13.431  18.107  0.00  0.00    +0.000 C 
ATOM     27  C   UNL     1       9.534  14.896  18.147  0.00  0.00    +0.000 C 
ATOM     28  C   UNL     1       8.751  15.429  19.344  0.00  0.00    +0.000 C 
ATOM     29  C   UNL     1       8.665  14.242  20.304  0.00  0.00    +0.000 C 
ENDBRANCH  22  23
ENDBRANCH  21  22
ENDBRANCH  20  21
ENDBRANCH   1  20
TORSDOF 6
ENDMDL
MODEL 4
REMARK VINA RESULT:      -7.9      6.078      9.292
REMARK  Name = 
REMARK  6 active torsions:
REMARK  status: ('A' for Active; 'I' for Inactive)
REMARK    1  A    between atoms: C_2  and  O_3
REMARK    2  A    between atoms: C_2  and  C_12
REMARK    3  A    between atoms: O_3  and  C_4
REMARK    4  A    between atoms: C_4  and  C_5
REMARK    5  A    between atoms: C_16  and  S_17
REMARK    6  A    between atoms: S_17  and  N_20
REMARK                            x       y       z     vdW  Elec       q    Type
REMARK                         _______ _______ _______ _____ _____    ______ ____
ROOT
ATOM      1  C   UNL     1       7.982   7.842  18.161  0.00  0.00    +0.000 A 
ATOM      2  C   UNL     1       8.440   6.969  19.150  0.00  0.00    +0.000 A 
ATOM      3  C   UNL     1       8.016   5.635  19.171  0.00  0.00    +0.000 A 
ATOM      4  C   UNL     1       7.086   5.188  18.236  0.00  0.00    +0.000 A 
ATOM      5  C   UNL     1       6.616   6.066  17.253  0.00  0.00    +0.000 A 
ATOM      6  C   UNL     1       7.104   7.370  17.179  0.00  0.00    +0.000 A 
ENDROOT
BRANCH   5   7
ATOM      7  S   UNL     1       5.276   5.537  16.204  0.00  0.00    +0.000 S 
ATOM      8  O   UNL     1       5.184   6.520  15.144  0.00  0.00    +0.000 OA
ATOM      9  O   UNL     1       5.525   4.139  15.904  0.00  0.00    +0.000 OA
BRANCH   7  10
ATOM     10  N   UNL     1       3.888   5.620  17.126  0.00  0.00    +0.000 N 
ATOM     11  C   UNL     1       3.764   6.584  18.258  0.00  0.00    +0.000 C 
ATOM     12  C   UNL     1       2.288   6.439  18.645  0.00  0.00    +0.000 C 
ATOM     13  C   UNL     1       2.184   4.949  18.493  0.00  0.00    +0.000 A 
ATOM     14  C   UNL     1       1.499   4.053  19.287  0.00  0.00    +0.000 A 
ATOM     15  C   UNL     1       1.661   2.697  19.012  0.00  0.00    +0.000 A 
ATOM     16  C   UNL     1       2.414   2.271  17.900  0.00  0.00    +0.000 A 
ATOM     17  C   UNL     1       3.103   3.191  17.099  0.00  0.00    +0.000 A 
ATOM     18  C   UNL     1       3.048   4.517  17.474  0.00  0.00    +0.000 A 
ENDBRANCH   7  10
ENDBRANCH   5   7
BRANCH   1  20
ATOM     19  O   UNL     1       7.891  10.151  17.509  0.00  0.00    +0.000 OA
ATOM     20  C   UNL     1       8.383   9.272  18.212  0.00  0.00    +0.000 C 
BRANCH  20  21
ATOM     21  O   UNL     1       9.363   9.454  19.136  0.00  0.00    +0.000 OA
BRANCH  21  22
ATOM     22  C   UNL     1       9.313  10.693  19.840  0.00  0.00    +0.000 C 
BRANCH  22  23
ATOM     23  C   UNL     1      10.419  11.681  19.445  0.00  0.00    +0.000 C 
ATOM     24  O   UNL     1      11.159  11.481  18.484  0.00  0.00    +0.000 OA
ATOM     25  N   UNL     1      10.538  12.817  20.231  0.00  0.00    +0.000 N 
ATOM     26  C   UNL     1       9.819  13.128  21.453  0.00  0.00    +0.000 C 
ATOM     27  C   UNL     1       9.695  14.638  21.400  0.00  0.00    +0.000 C 
ATOM     28  C   UNL     1      11.019  15.072  20.776  0.00  0.00    +0.000 C 
ATOM     29  C   UNL     1      11.395  13.922  19.841  0.00  0.00    +0.000 C 
ENDBRANCH  22  23
ENDBRANCH  21  22
ENDBRANCH  20  21
ENDBRANCH   1  20
TORSDOF 6
ENDMDL
MODEL 5
REMARK VINA RESULT:      -7.9      2.298      3.648
REMARK  Name = 
REMARK  6 active torsions:
REMARK  status: ('A' for Active; 'I' for Inactive)
REMARK    1  A    between atoms: C_2  and  O_3
REMARK    2  A    between atoms: C_2  and  C_12
REMARK    3  A    between atoms: O_3  and  C_4
REMARK    4  A    between atoms: C_4  and  C_5
REMARK    5  A    between atoms: C_16  and  S_17
REMARK    6  A    between atoms: S_17  and  N_20
REMARK                            x       y       z     vdW  Elec       q    Type
REMARK                         _______ _______ _______ _____ _____    ______ ____
ROOT
ATOM      1  C   UNL     1       2.414   5.850  19.544  0.00  0.00    +0.000 A 
ATOM      2  C   UNL     1       2.738   6.334  18.274  0.00  0.00    +0.000 A 
ATOM      3  C   UNL     1       2.564   7.688  17.966  0.00  0.00    +0.000 A 
ATOM      4  C   UNL     1       2.009   8.549  18.910  0.00  0.00    +0.000 A 
ATOM      5  C   UNL     1       1.671   8.061  20.177  0.00  0.00    +0.000 A 
ATOM      6  C   UNL     1       1.925   6.732  20.513  0.00  0.00    +0.000 A 
ENDROOT
BRANCH   5   7
ATOM      7  S   UNL     1       0.772   9.124  21.291  0.00  0.00    +0.000 S 
ATOM      8  O   UNL     1      -0.495   8.466  21.536  0.00  0.00    +0.000 OA
ATOM      9  O   UNL     1       1.679   9.425  22.383  0.00  0.00    +0.000 OA
BRANCH   7  10
ATOM     10  N   UNL     1       0.482  10.543  20.463  0.00  0.00    +0.000 N 
ATOM     11  C   UNL     1       0.512  11.866  21.153  0.00  0.00    +0.000 C 
ATOM     12  C   UNL     1       0.404  12.844  19.980  0.00  0.00    +0.000 C 
ATOM     13  C   UNL     1      -0.607  12.083  19.173  0.00  0.00    +0.000 A 
ATOM     14  C   UNL     1      -1.673  12.576  18.449  0.00  0.00    +0.000 A 
ATOM     15  C   UNL     1      -2.549  11.651  17.885  0.00  0.00    +0.000 A 
ATOM     16  C   UNL     1      -2.291  10.269  17.969  0.00  0.00    +0.000 A 
ATOM     17  C   UNL     1      -1.204   9.780  18.705  0.00  0.00    +0.000 A 
ATOM     18  C   UNL     1      -0.431  10.704  19.375  0.00  0.00    +0.000 A 
ENDBRANCH   7  10
ENDBRANCH   5   7
BRANCH   1  20
ATOM     19  O   UNL     1       2.035   3.834  20.791  0.00  0.00    +0.000 OA
ATOM     20  C   UNL     1       2.530   4.394  19.816  0.00  0.00    +0.000 C 
BRANCH  20  21
ATOM     21  O   UNL     1       3.259   3.788  18.843  0.00  0.00    +0.000 OA
BRANCH  21  22
ATOM     22  C   UNL     1       4.574   3.390  19.225  0.00  0.00    +0.000 C 
BRANCH  22  23
ATOM     23  C   UNL     1       5.671   4.380  18.812  0.00  0.00    +0.000 C 
ATOM     24  O   UNL     1       6.345   4.989  19.641  0.00  0.00    +0.000 OA
ATOM     25  N   UNL     1       5.866   4.549  17.450  0.00  0.00    +0.000 N 
ATOM     26  C   UNL     1       5.077   3.992  16.367  0.00  0.00    +0.000 C 
ATOM     27  C   UNL     1       6.104   3.787  15.269  0.00  0.00    +0.000 C 
ATOM     28  C   UNL     1       7.030   4.989  15.434  0.00  0.00    +0.000 C 
ATOM     29  C   UNL     1       7.003   5.289  16.933  0.00  0.00    +0.000 C 
ENDBRANCH  22  23
ENDBRANCH  21  22
ENDBRANCH  20  21
ENDBRANCH   1  20
TORSDOF 6
ENDMDL
MODEL 6
REMARK VINA RESULT:      -7.9      2.459      4.055
REMARK  Name = 
REMARK  6 active torsions:
REMARK  status: ('A' for Active; 'I' for Inactive)
REMARK    1  A    between atoms: C_2  and  O_3
REMARK    2  A    between atoms: C_2  and  C_12
REMARK    3  A    between atoms: O_3  and  C_4
REMARK    4  A    between atoms: C_4  and  C_5
REMARK    5  A    between atoms: C_16  and  S_17
REMARK    6  A    between atoms: S_17  and  N_20
REMARK                            x       y       z     vdW  Elec       q    Type
REMARK                         _______ _______ _______ _____ _____    ______ ____
ROOT
ATOM      1  C   UNL     1       2.280   6.187  19.402  0.00  0.00    +0.000 A 
ATOM      2  C   UNL     1       2.665   6.774  18.194  0.00  0.00    +0.000 A 
ATOM      3  C   UNL     1       2.478   8.144  17.980  0.00  0.00    +0.000 A 
ATOM      4  C   UNL     1       1.850   8.919  18.952  0.00  0.00    +0.000 A 
ATOM      5  C   UNL     1       1.451   8.329  20.156  0.00  0.00    +0.000 A 
ATOM      6  C   UNL     1       1.716   6.984  20.405  0.00  0.00    +0.000 A 
ENDROOT
BRANCH   5   7
ATOM      7  S   UNL     1       0.466   9.287  21.292  0.00  0.00    +0.000 S 
ATOM      8  O   UNL     1      -0.575   8.397  21.767  0.00  0.00    +0.000 OA
ATOM      9  O   UNL     1       1.398   9.903  22.217  0.00  0.00    +0.000 OA
BRANCH   7  10
ATOM     10  N   UNL     1      -0.243  10.503  20.397  0.00  0.00    +0.000 N 
ATOM     11  C   UNL     1      -1.126  10.200  19.233  0.00  0.00    +0.000 C 
ATOM     12  C   UNL     1      -1.687  11.582  18.885  0.00  0.00    +0.000 C 
ATOM     13  C   UNL     1      -0.428  12.372  19.094  0.00  0.00    +0.000 A 
ATOM     14  C   UNL     1       0.055  13.427  18.349  0.00  0.00    +0.000 A 
ATOM     15  C   UNL     1       1.321  13.915  18.671  0.00  0.00    +0.000 A 
ATOM     16  C   UNL     1       2.026  13.411  19.781  0.00  0.00    +0.000 A 
ATOM     17  C   UNL     1       1.524  12.340  20.532  0.00  0.00    +0.000 A 
ATOM     18  C   UNL     1       0.339  11.777  20.109  0.00  0.00    +0.000 A 
ENDBRANCH   7  10
ENDBRANCH   5   7
BRANCH   1  20
ATOM     19  O   UNL     1       1.555   3.905  19.236  0.00  0.00    +0.000 OA
ATOM     20  C   UNL     1       2.414   4.717  19.570  0.00  0.00    +0.000 C 
BRANCH  20  21
ATOM     21  O   UNL     1       3.608   4.415  20.145  0.00  0.00    +0.000 OA
BRANCH  21  22
ATOM     22  C   UNL     1       4.525   3.714  19.308  0.00  0.00    +0.000 C 
BRANCH  22  23
ATOM     23  C   UNL     1       5.717   4.561  18.841  0.00  0.00    +0.000 C 
ATOM     24  O   UNL     1       6.487   5.096  19.636  0.00  0.00    +0.000 OA
ATOM     25  N   UNL     1       5.882   4.688  17.471  0.00  0.00    +0.000 N 
ATOM     26  C   UNL     1       4.995   4.214  16.424  0.00  0.00    +0.000 C 
ATOM     27  C   UNL     1       5.950   3.874  15.297  0.00  0.00    +0.000 C 
ATOM     28  C   UNL     1       7.018   4.959  15.410  0.00  0.00    +0.000 C 
ATOM     29  C   UNL     1       7.080   5.280  16.903  0.00  0.00    +0.000 C 
ENDBRANCH  22  23
ENDBRANCH  21  22
ENDBRANCH  20  21
ENDBRANCH   1  20
TORSDOF 6
ENDMDL
MODEL 7
REMARK VINA RESULT:      -7.9      5.846      9.316
REMARK  Name = 
REMARK  6 active torsions:
REMARK  status: ('A' for Active; 'I' for Inactive)
REMARK    1  A    between atoms: C_2  and  O_3
REMARK    2  A    between atoms: C_2  and  C_12
REMARK    3  A    between atoms: O_3  and  C_4
REMARK    4  A    between atoms: C_4  and  C_5
REMARK    5  A    between atoms: C_16  and  S_17
REMARK    6  A    between atoms: S_17  and  N_20
REMARK                            x       y       z     vdW  Elec       q    Type
REMARK                         _______ _______ _______ _____ _____    ______ ____
ROOT
ATOM      1  C   UNL     1       7.934   7.995  18.226  0.00  0.00    +0.000 A 
ATOM      2  C   UNL     1       8.487   7.060  19.106  0.00  0.00    +0.000 A 
ATOM      3  C   UNL     1       7.974   5.760  19.173  0.00  0.00    +0.000 A 
ATOM      4  C   UNL     1       6.868   5.410  18.401  0.00  0.00    +0.000 A 
ATOM      5  C   UNL     1       6.306   6.350  17.530  0.00  0.00    +0.000 A 
ATOM      6  C   UNL     1       6.871   7.617  17.400  0.00  0.00    +0.000 A 
ENDROOT
BRANCH   5   7
ATOM      7  S   UNL     1       4.772   5.950  16.715  0.00  0.00    +0.000 S 
ATOM      8  O   UNL     1       3.911   7.101  16.895  0.00  0.00    +0.000 OA
ATOM      9  O   UNL     1       5.128   5.487  15.387  0.00  0.00    +0.000 OA
BRANCH   7  10
ATOM     10  N   UNL     1       4.115   4.660  17.545  0.00  0.00    +0.000 N 
ATOM     11  C   UNL     1       3.592   3.460  16.829  0.00  0.00    +0.000 C 
ATOM     12  C   UNL     1       3.303   2.496  17.984  0.00  0.00    +0.000 C 
ATOM     13  C   UNL     1       2.734   3.498  18.946  0.00  0.00    +0.000 A 
ATOM     14  C   UNL     1       1.667   3.348  19.807  0.00  0.00    +0.000 A 
ATOM     15  C   UNL     1       1.249   4.475  20.513  0.00  0.00    +0.000 A 
ATOM     16  C   UNL     1       1.959   5.687  20.423  0.00  0.00    +0.000 A 
ATOM     17  C   UNL     1       3.043   5.826  19.547  0.00  0.00    +0.000 A 
ATOM     18  C   UNL     1       3.352   4.744  18.750  0.00  0.00    +0.000 A 
ENDBRANCH   7  10
ENDBRANCH   5   7
BRANCH   1  20
ATOM     19  O   UNL     1       8.067  10.267  17.463  0.00  0.00    +0.000 OA
ATOM     20  C   UNL     1       8.445   9.390  18.236  0.00  0.00    +0.000 C 
BRANCH  20  21
ATOM     21  O   UNL     1       9.379   9.545  19.210  0.00  0.00    +0.000 OA
BRANCH  21  22
ATOM     22  C   UNL     1       9.408  10.829  19.829  0.00  0.00    +0.000 C 
BRANCH  22  23
ATOM     23  C   UNL     1      10.503  11.759  19.289  0.00  0.00    +0.000 C 
ATOM     24  O   UNL     1      11.659  11.376  19.123  0.00  0.00    +0.000 OA
ATOM     25  N   UNL     1      10.117  13.057  18.995  0.00  0.00    +0.000 N 
ATOM     26  C   UNL     1       8.829  13.677  19.246  0.00  0.00    +0.000 C 
ATOM     27  C   UNL     1       8.690  14.652  18.092  0.00  0.00    +0.000 C 
ATOM     28  C   UNL     1      10.117  15.153  17.890  0.00  0.00    +0.000 C 
ATOM     29  C   UNL     1      10.998  13.967  18.284  0.00  0.00    +0.000 C 
ENDBRANCH  22  23
ENDBRANCH  21  22
ENDBRANCH  20  21
ENDBRANCH   1  20
TORSDOF 6
ENDMDL
MODEL 8
REMARK VINA RESULT:      -7.7      2.242      3.390
REMARK  Name = 
REMARK  6 active torsions:
REMARK  status: ('A' for Active; 'I' for Inactive)
REMARK    1  A    between atoms: C_2  and  O_3
REMARK    2  A    between atoms: C_2  and  C_12
REMARK    3  A    between atoms: O_3  and  C_4
REMARK    4  A    between atoms: C_4  and  C_5
REMARK    5  A    between atoms: C_16  and  S_17
REMARK    6  A    between atoms: S_17  and  N_20
REMARK                            x       y       z     vdW  Elec       q    Type
REMARK                         _______ _______ _______ _____ _____    ______ ____
ROOT
ATOM      1  C   UNL     1       1.938   5.653  20.232  0.00  0.00    +0.000 A 
ATOM      2  C   UNL     1       2.387   5.918  18.936  0.00  0.00    +0.000 A 
ATOM      3  C   UNL     1       2.449   7.234  18.462  0.00  0.00    +0.000 A 
ATOM      4  C   UNL     1       2.004   8.282  19.265  0.00  0.00    +0.000 A 
ATOM      5  C   UNL     1       1.541   8.015  20.558  0.00  0.00    +0.000 A 
ATOM      6  C   UNL     1       1.561   6.716  21.061  0.00  0.00    +0.000 A 
ENDROOT
BRANCH   5   7
ATOM      7  S   UNL     1       0.783   9.337  21.484  0.00  0.00    +0.000 S 
ATOM      8  O   UNL     1      -0.562   8.892  21.788  0.00  0.00    +0.000 OA
ATOM      9  O   UNL     1       1.714   9.673  22.545  0.00  0.00    +0.000 OA
BRANCH   7  10
ATOM     10  N   UNL     1       0.689  10.646  20.454  0.00  0.00    +0.000 N 
ATOM     11  C   UNL     1       0.908  12.038  20.945  0.00  0.00    +0.000 C 
ATOM     12  C   UNL     1       0.932  12.840  19.640  0.00  0.00    +0.000 C 
ATOM     13  C   UNL     1      -0.180  12.117  18.937  0.00  0.00    +0.000 A 
ATOM     14  C   UNL     1      -1.171  12.643  18.133  0.00  0.00    +0.000 A 
ATOM     15  C   UNL     1      -2.171  11.776  17.697  0.00  0.00    +0.000 A 
ATOM     16  C   UNL     1      -2.109  10.399  17.985  0.00  0.00    +0.000 A 
ATOM     17  C   UNL     1      -1.096   9.877  18.800  0.00  0.00    +0.000 A 
ATOM     18  C   UNL     1      -0.198  10.772  19.341  0.00  0.00    +0.000 A 
ENDBRANCH   7  10
ENDBRANCH   5   7
BRANCH   1  20
ATOM     19  O   UNL     1       2.123   3.841  21.796  0.00  0.00    +0.000 OA
ATOM     20  C   UNL     1       1.805   4.243  20.680  0.00  0.00    +0.000 C 
BRANCH  20  21
ATOM     21  O   UNL     1       1.292   3.477  19.681  0.00  0.00    +0.000 OA
BRANCH  21  22
ATOM     22  C   UNL     1       2.132   2.415  19.235  0.00  0.00    +0.000 C 
BRANCH  22  23
ATOM     23  C   UNL     1       2.841   2.697  17.904  0.00  0.00    +0.000 C 
ATOM     24  O   UNL     1       2.308   2.468  16.820  0.00  0.00    +0.000 OA
ATOM     25  N   UNL     1       4.119   3.228  17.988  0.00  0.00    +0.000 N 
ATOM     26  C   UNL     1       4.913   3.441  19.184  0.00  0.00    +0.000 C 
ATOM     27  C   UNL     1       5.720   4.678  18.842  0.00  0.00    +0.000 C 
ATOM     28  C   UNL     1       6.018   4.496  17.356  0.00  0.00    +0.000 C 
ATOM     29  C   UNL     1       4.808   3.734  16.814  0.00  0.00    +0.000 C 
ENDBRANCH  22  23
ENDBRANCH  21  22
ENDBRANCH  20  21
ENDBRANCH   1  20
TORSDOF 6
ENDMDL
MODEL 9
REMARK VINA RESULT:      -7.7      2.102      3.351
REMARK  Name = 
REMARK  6 active torsions:
REMARK  status: ('A' for Active; 'I' for Inactive)
REMARK    1  A    between atoms: C_2  and  O_3
REMARK    2  A    between atoms: C_2  and  C_12
REMARK    3  A    between atoms: O_3  and  C_4
REMARK    4  A    between atoms: C_4  and  C_5
REMARK    5  A    between atoms: C_16  and  S_17
REMARK    6  A    between atoms: S_17  and  N_20
REMARK                            x       y       z     vdW  Elec       q    Type
REMARK                         _______ _______ _______ _____ _____    ______ ____
ROOT
ATOM      1  C   UNL     1       2.372   7.055  19.211  0.00  0.00    +0.000 A 
ATOM      2  C   UNL     1       2.625   7.667  17.981  0.00  0.00    +0.000 A 
ATOM      3  C   UNL     1       2.231   8.989  17.752  0.00  0.00    +0.000 A 
ATOM      4  C   UNL     1       1.528   9.684  18.734  0.00  0.00    +0.000 A 
ATOM      5  C   UNL     1       1.263   9.068  19.962  0.00  0.00    +0.000 A 
ATOM      6  C   UNL     1       1.732   7.781  20.221  0.00  0.00    +0.000 A 
ENDROOT
BRANCH   5   7
ATOM      7  S   UNL     1       0.186   9.893  21.118  0.00  0.00    +0.000 S 
ATOM      8  O   UNL     1      -0.754   8.891  21.575  0.00  0.00    +0.000 OA
ATOM      9  O   UNL     1       1.052  10.584  22.055  0.00  0.00    +0.000 OA
BRANCH   7  10
ATOM     10  N   UNL     1      -0.648  11.048  20.250  0.00  0.00    +0.000 N 
ATOM     11  C   UNL     1      -1.212  12.261  20.911  0.00  0.00    +0.000 C 
ATOM     12  C   UNL     1      -1.679  13.093  19.712  0.00  0.00    +0.000 C 
ATOM     13  C   UNL     1      -2.236  11.969  18.889  0.00  0.00    +0.000 A 
ATOM     14  C   UNL     1      -3.381  11.956  18.119  0.00  0.00    +0.000 A 
ATOM     15  C   UNL     1      -3.756  10.742  17.547  0.00  0.00    +0.000 A 
ATOM     16  C   UNL     1      -2.938   9.602  17.670  0.00  0.00    +0.000 A 
ATOM     17  C   UNL     1      -1.776   9.629  18.453  0.00  0.00    +0.000 A 
ATOM     18  C   UNL     1      -1.499  10.798  19.128  0.00  0.00    +0.000 A 
ENDBRANCH   7  10
ENDBRANCH   5   7
BRANCH   1  20
ATOM     19  O   UNL     1       2.853   5.083  20.493  0.00  0.00    +0.000 OA
ATOM     20  C   UNL     1       2.728   5.625  19.397  0.00  0.00    +0.000 C 
BRANCH  20  21
ATOM     21  O   UNL     1       2.896   5.019  18.193  0.00  0.00    +0.000 OA
BRANCH  21  22
ATOM     22  C   UNL     1       3.741   3.870  18.201  0.00  0.00    +0.000 C 
BRANCH  22  23
ATOM     23  C   UNL     1       5.236   4.194  18.082  0.00  0.00    +0.000 C 
ATOM     24  O   UNL     1       5.989   4.165  19.054  0.00  0.00    +0.000 OA
ATOM     25  N   UNL     1       5.696   4.518  16.815  0.00  0.00    +0.000 N 
ATOM     26  C   UNL     1       4.911   4.703  15.609  0.00  0.00    +0.000 C 
ATOM     27  C   UNL     1       5.849   4.224  14.517  0.00  0.00    +0.000 C 
ATOM     28  C   UNL     1       7.217   4.690  15.007  0.00  0.00    +0.000 C 
ATOM     29  C   UNL     1       7.115   4.635  16.532  0.00  0.00    +0.000 C 
ENDBRANCH  22  23
ENDBRANCH  21  22
ENDBRANCH  20  21
ENDBRANCH   1  20
TORSDOF 6
ENDMDL
