MODEL 1
REMARK VINA RESULT:      -8.7      0.000      0.000
REMARK  Name = 
REMARK  5 active torsions:
REMARK  status: ('A' for Active; 'I' for Inactive)
REMARK    1  A    between atoms: C_2  and  C_17
REMARK    2  A    between atoms: N_3  and  C_4
REMARK    3  A    between atoms: C_8  and  O_9
REMARK    4  A    between atoms: O_9  and  C_10
REMARK    5  A    between atoms: C_23  and  C_25
REMARK                            x       y       z     vdW  Elec       q    Type
REMARK                         _______ _______ _______ _____ _____    ______ ____
ROOT
ATOM      1  O   UNL     1       2.400   7.626  18.305  0.00  0.00    +0.000 OA
ATOM      2  C   UNL     1       2.098   7.543  19.490  0.00  0.00    +0.000 C 
ATOM      3  N   UNL     1       2.284   6.450  20.327  0.00  0.00    +0.000 N 
ATOM      4  H   UNL     1       1.794   6.451  21.212  0.00  0.00    +0.000 HD
ENDROOT
BRANCH   2   5
ATOM      5  C   UNL     1       1.386   8.698  20.095  0.00  0.00    +0.000 A 
ATOM      6  C   UNL     1       0.814   8.596  21.359  0.00  0.00    +0.000 A 
ATOM      7  C   UNL     1       0.176   9.711  21.851  0.00  0.00    +0.000 A 
ATOM      8  N   UNL     1       0.082  10.871  21.174  0.00  0.00    +0.000 NA
ATOM      9  C   UNL     1       0.652  10.979  19.961  0.00  0.00    +0.000 A 
ATOM     10  N   UNL     1       0.554  12.186  19.245  0.00  0.00    +0.000 N 
ATOM     11  C   UNL     1      -0.131  13.294  19.707  0.00  0.00    +0.000 C 
ATOM     12  O   UNL     1      -0.707  13.412  20.778  0.00  0.00    +0.000 OA
ATOM     13  C   UNL     1       1.330   9.912  19.390  0.00  0.00    +0.000 A 
ATOM     14  H   UNL     1       0.980  12.226  18.334  0.00  0.00    +0.000 HD
BRANCH  11  15
ATOM     15  C   UNL     1      -0.198  14.475  18.792  0.00  0.00    +0.000 C 
ATOM     16  C   UNL     1       0.891  15.521  18.848  0.00  0.00    +0.000 C 
ATOM     17  C   UNL     1      -0.530  15.897  19.154  0.00  0.00    +0.000 C 
ENDBRANCH  11  15
ENDBRANCH   2   5
BRANCH   3  18
ATOM     18  C   UNL     1       2.940   5.243  19.987  0.00  0.00    +0.000 A 
ATOM     19  C   UNL     1       2.355   3.988  20.176  0.00  0.00    +0.000 A 
ATOM     20  C   UNL     1       3.069   2.822  19.899  0.00  0.00    +0.000 A 
ATOM     21  C   UNL     1       4.370   2.898  19.413  0.00  0.00    +0.000 A 
ATOM     22  C   UNL     1       4.938   4.143  19.138  0.00  0.00    +0.000 A 
ATOM     23  C   UNL     1       4.231   5.314  19.440  0.00  0.00    +0.000 A 
BRANCH  22  24
ATOM     24  O   UNL     1       6.222   4.289  18.654  0.00  0.00    +0.000 OA
BRANCH  24  25
ATOM     25  C   UNL     1       6.377   4.532  17.295  0.00  0.00    +0.000 A 
ATOM     26  C   UNL     1       5.486   3.923  16.428  0.00  0.00    +0.000 A 
ATOM     27  C   UNL     1       5.631   4.160  15.066  0.00  0.00    +0.000 A 
ATOM     28  C   UNL     1       6.659   4.986  14.651  0.00  0.00    +0.000 A 
ATOM     29  N   UNL     1       7.527   5.550  15.514  0.00  0.00    +0.000 NA
ATOM     30  N   UNL     1       7.394   5.306  16.850  0.00  0.00    +0.000 NA
ENDBRANCH  24  25
ENDBRANCH  22  24
ENDBRANCH   3  18
TORSDOF 5
ENDMDL
MODEL 2
REMARK VINA RESULT:      -8.3      2.260      2.543
REMARK  Name = 
REMARK  5 active torsions:
REMARK  status: ('A' for Active; 'I' for Inactive)
REMARK    1  A    between atoms: C_2  and  C_17
REMARK    2  A    between atoms: N_3  and  C_4
REMARK    3  A    between atoms: C_8  and  O_9
REMARK    4  A    between atoms: O_9  and  C_10
REMARK    5  A    between atoms: C_23  and  C_25
REMARK                            x       y       z     vdW  Elec       q    Type
REMARK                         _______ _______ _______ _____ _____    ______ ____
ROOT
ATOM      1  O   UNL     1       3.212   7.567  17.834  0.00  0.00    +0.000 OA
ATOM      2  C   UNL     1       2.456   7.464  18.792  0.00  0.00    +0.000 C 
ATOM      3  N   UNL     1       2.323   6.372  19.641  0.00  0.00    +0.000 N 
ATOM      4  H   UNL     1       1.514   6.347  20.247  0.00  0.00    +0.000 HD
ENDROOT
BRANCH   2   5
ATOM      5  C   UNL     1       1.516   8.587  19.045  0.00  0.00    +0.000 A 
ATOM      6  C   UNL     1       1.535   9.270  20.257  0.00  0.00    +0.000 A 
ATOM      7  C   UNL     1       0.637  10.299  20.412  0.00  0.00    +0.000 A 
ATOM      8  N   UNL     1      -0.243  10.665  19.461  0.00  0.00    +0.000 NA
ATOM      9  C   UNL     1      -0.250  10.021  18.281  0.00  0.00    +0.000 A 
ATOM     10  N   UNL     1      -1.169  10.394  17.283  0.00  0.00    +0.000 N 
ATOM     11  C   UNL     1      -2.112  11.391  17.449  0.00  0.00    +0.000 C 
ATOM     12  O   UNL     1      -2.269  12.102  18.430  0.00  0.00    +0.000 OA
ATOM     13  C   UNL     1       0.630   8.979  18.028  0.00  0.00    +0.000 A 
ATOM     14  H   UNL     1      -1.156   9.880  16.418  0.00  0.00    +0.000 HD
BRANCH  11  15
ATOM     15  C   UNL     1      -3.061  11.616  16.315  0.00  0.00    +0.000 C 
ATOM     16  C   UNL     1      -4.493  11.148  16.441  0.00  0.00    +0.000 C 
ATOM     17  C   UNL     1      -3.610  10.589  15.362  0.00  0.00    +0.000 C 
ENDBRANCH  11  15
ENDBRANCH   2   5
BRANCH   3  18
ATOM     18  C   UNL     1       3.104   5.192  19.608  0.00  0.00    +0.000 A 
ATOM     19  C   UNL     1       2.656   3.976  20.128  0.00  0.00    +0.000 A 
ATOM     20  C   UNL     1       3.490   2.858  20.143  0.00  0.00    +0.000 A 
ATOM     21  C   UNL     1       4.777   2.939  19.623  0.00  0.00    +0.000 A 
ATOM     22  C   UNL     1       5.211   4.123  19.021  0.00  0.00    +0.000 A 
ATOM     23  C   UNL     1       4.382   5.253  19.029  0.00  0.00    +0.000 A 
BRANCH  22  24
ATOM     24  O   UNL     1       6.473   4.270  18.485  0.00  0.00    +0.000 OA
BRANCH  24  25
ATOM     25  C   UNL     1       6.572   4.492  17.117  0.00  0.00    +0.000 A 
ATOM     26  C   UNL     1       5.715   3.790  16.288  0.00  0.00    +0.000 A 
ATOM     27  C   UNL     1       5.804   4.005  14.918  0.00  0.00    +0.000 A 
ATOM     28  C   UNL     1       6.748   4.904  14.457  0.00  0.00    +0.000 A 
ATOM     29  N   UNL     1       7.586   5.560  15.283  0.00  0.00    +0.000 NA
ATOM     30  N   UNL     1       7.508   5.338  16.628  0.00  0.00    +0.000 NA
ENDBRANCH  24  25
ENDBRANCH  22  24
ENDBRANCH   3  18
TORSDOF 5
ENDMDL
MODEL 3
REMARK VINA RESULT:      -8.3      1.685      2.284
REMARK  Name = 
REMARK  5 active torsions:
REMARK  status: ('A' for Active; 'I' for Inactive)
REMARK    1  A    between atoms: C_2  and  C_17
REMARK    2  A    between atoms: N_3  and  C_4
REMARK    3  A    between atoms: C_8  and  O_9
REMARK    4  A    between atoms: O_9  and  C_10
REMARK    5  A    between atoms: C_23  and  C_25
REMARK                            x       y       z     vdW  Elec       q    Type
REMARK                         _______ _______ _______ _____ _____    ______ ____
ROOT
ATOM      1  O   UNL     1       1.563   7.243  21.353  0.00  0.00    +0.000 OA
ATOM      2  C   UNL     1       1.732   7.644  20.209  0.00  0.00    +0.000 C 
ATOM      3  N   UNL     1       2.462   7.024  19.203  0.00  0.00    +0.000 N 
ATOM      4  H   UNL     1       2.690   7.574  18.385  0.00  0.00    +0.000 HD
ENDROOT
BRANCH   2   5
ATOM      5  C   UNL     1       1.165   8.974  19.861  0.00  0.00    +0.000 A 
ATOM      6  C   UNL     1       1.494   9.593  18.659  0.00  0.00    +0.000 A 
ATOM      7  C   UNL     1       0.926  10.820  18.410  0.00  0.00    +0.000 A 
ATOM      8  N   UNL     1       0.085  11.436  19.263  0.00  0.00    +0.000 NA
ATOM      9  C   UNL     1      -0.251  10.830  20.415  0.00  0.00    +0.000 A 
ATOM     10  N   UNL     1      -1.125  11.468  21.314  0.00  0.00    +0.000 N 
ATOM     11  C   UNL     1      -1.659  12.725  21.098  0.00  0.00    +0.000 C 
ATOM     12  O   UNL     1      -1.493  13.438  20.119  0.00  0.00    +0.000 OA
ATOM     13  C   UNL     1       0.261   9.584  20.746  0.00  0.00    +0.000 A 
ATOM     14  H   UNL     1      -1.342  10.992  22.174  0.00  0.00    +0.000 HD
BRANCH  11  15
ATOM     15  C   UNL     1      -2.516  13.289  22.185  0.00  0.00    +0.000 C 
ATOM     16  C   UNL     1      -1.884  13.682  23.501  0.00  0.00    +0.000 C 
ATOM     17  C   UNL     1      -2.939  12.614  23.462  0.00  0.00    +0.000 C 
ENDBRANCH  11  15
ENDBRANCH   2   5
BRANCH   3  18
ATOM     18  C   UNL     1       3.087   5.758  19.287  0.00  0.00    +0.000 A 
ATOM     19  C   UNL     1       2.468   4.648  19.866  0.00  0.00    +0.000 A 
ATOM     20  C   UNL     1       3.152   3.439  19.996  0.00  0.00    +0.000 A 
ATOM     21  C   UNL     1       4.458   3.322  19.534  0.00  0.00    +0.000 A 
ATOM     22  C   UNL     1       5.061   4.395  18.875  0.00  0.00    +0.000 A 
ATOM     23  C   UNL     1       4.383   5.617  18.767  0.00  0.00    +0.000 A 
BRANCH  22  24
ATOM     24  O   UNL     1       6.353   4.346  18.391  0.00  0.00    +0.000 OA
BRANCH  24  25
ATOM     25  C   UNL     1       6.539   4.541  17.028  0.00  0.00    +0.000 A 
ATOM     26  C   UNL     1       5.791   3.766  16.159  0.00  0.00    +0.000 A 
ATOM     27  C   UNL     1       5.969   3.955  14.793  0.00  0.00    +0.000 A 
ATOM     28  C   UNL     1       6.887   4.902  14.377  0.00  0.00    +0.000 A 
ATOM     29  N   UNL     1       7.619   5.629  15.244  0.00  0.00    +0.000 NA
ATOM     30  N   UNL     1       7.455   5.433  16.585  0.00  0.00    +0.000 NA
ENDBRANCH  24  25
ENDBRANCH  22  24
ENDBRANCH   3  18
TORSDOF 5
ENDMDL
MODEL 4
REMARK VINA RESULT:      -8.2      2.142      2.516
REMARK  Name = 
REMARK  5 active torsions:
REMARK  status: ('A' for Active; 'I' for Inactive)
REMARK    1  A    between atoms: C_2  and  C_17
REMARK    2  A    between atoms: N_3  and  C_4
REMARK    3  A    between atoms: C_8  and  O_9
REMARK    4  A    between atoms: O_9  and  C_10
REMARK    5  A    between atoms: C_23  and  C_25
REMARK                            x       y       z     vdW  Elec       q    Type
REMARK                         _______ _______ _______ _____ _____    ______ ____
ROOT
ATOM      1  O   UNL     1       2.184   8.037  18.797  0.00  0.00    +0.000 OA
ATOM      2  C   UNL     1       1.863   7.659  19.917  0.00  0.00    +0.000 C 
ATOM      3  N   UNL     1       1.980   6.374  20.432  0.00  0.00    +0.000 N 
ATOM      4  H   UNL     1       1.480   6.166  21.286  0.00  0.00    +0.000 HD
ENDROOT
BRANCH   2   5
ATOM      5  C   UNL     1       1.206   8.648  20.810  0.00  0.00    +0.000 A 
ATOM      6  C   UNL     1       1.518   8.698  22.165  0.00  0.00    +0.000 A 
ATOM      7  C   UNL     1       0.869   9.645  22.924  0.00  0.00    +0.000 A 
ATOM      8  N   UNL     1      -0.037  10.504  22.422  0.00  0.00    +0.000 NA
ATOM      9  C   UNL     1      -0.324  10.473  21.109  0.00  0.00    +0.000 A 
ATOM     10  N   UNL     1      -1.274  11.364  20.576  0.00  0.00    +0.000 N 
ATOM     11  C   UNL     1      -1.970  12.282  21.340  0.00  0.00    +0.000 C 
ATOM     12  O   UNL     1      -1.855  12.483  22.539  0.00  0.00    +0.000 OA
ATOM     13  C   UNL     1       0.291   9.562  20.262  0.00  0.00    +0.000 A 
ATOM     14  H   UNL     1      -1.475  11.301  19.592  0.00  0.00    +0.000 HD
BRANCH  11  15
ATOM     15  C   UNL     1      -2.995  13.109  20.631  0.00  0.00    +0.000 C 
ATOM     16  C   UNL     1      -4.393  13.208  21.199  0.00  0.00    +0.000 C 
ATOM     17  C   UNL     1      -4.175  12.620  19.835  0.00  0.00    +0.000 C 
ENDBRANCH  11  15
ENDBRANCH   2   5
BRANCH   3  18
ATOM     18  C   UNL     1       2.574   5.267  19.781  0.00  0.00    +0.000 A 
ATOM     19  C   UNL     1       1.834   4.174  19.325  0.00  0.00    +0.000 A 
ATOM     20  C   UNL     1       2.472   3.070  18.758  0.00  0.00    +0.000 A 
ATOM     21  C   UNL     1       3.856   3.054  18.627  0.00  0.00    +0.000 A 
ATOM     22  C   UNL     1       4.603   4.174  18.999  0.00  0.00    +0.000 A 
ATOM     23  C   UNL     1       3.965   5.272  19.591  0.00  0.00    +0.000 A 
BRANCH  22  24
ATOM     24  O   UNL     1       5.978   4.224  18.893  0.00  0.00    +0.000 OA
BRANCH  24  25
ATOM     25  C   UNL     1       6.545   5.388  18.388  0.00  0.00    +0.000 A 
ATOM     26  C   UNL     1       7.595   5.950  19.093  0.00  0.00    +0.000 A 
ATOM     27  C   UNL     1       8.169   7.114  18.596  0.00  0.00    +0.000 A 
ATOM     28  C   UNL     1       7.658   7.650  17.428  0.00  0.00    +0.000 A 
ATOM     29  N   UNL     1       6.621   7.094  16.771  0.00  0.00    +0.000 NA
ATOM     30  N   UNL     1       6.047   5.960  17.268  0.00  0.00    +0.000 NA
ENDBRANCH  24  25
ENDBRANCH  22  24
ENDBRANCH   3  18
TORSDOF 5
ENDMDL
MODEL 5
REMARK VINA RESULT:      -8.2      1.427      1.728
REMARK  Name = 
REMARK  5 active torsions:
REMARK  status: ('A' for Active; 'I' for Inactive)
REMARK    1  A    between atoms: C_2  and  C_17
REMARK    2  A    between atoms: N_3  and  C_4
REMARK    3  A    between atoms: C_8  and  O_9
REMARK    4  A    between atoms: O_9  and  C_10
REMARK    5  A    between atoms: C_23  and  C_25
REMARK                            x       y       z     vdW  Elec       q    Type
REMARK                         _______ _______ _______ _____ _____    ______ ____
ROOT
ATOM      1  O   UNL     1       2.211   7.946  18.824  0.00  0.00    +0.000 OA
ATOM      2  C   UNL     1       1.859   7.678  19.967  0.00  0.00    +0.000 C 
ATOM      3  N   UNL     1       1.882   6.432  20.580  0.00  0.00    +0.000 N 
ATOM      4  H   UNL     1       1.364   6.326  21.442  0.00  0.00    +0.000 HD
ENDROOT
BRANCH   2   5
ATOM      5  C   UNL     1       1.268   8.777  20.774  0.00  0.00    +0.000 A 
ATOM      6  C   UNL     1       0.674   8.514  22.005  0.00  0.00    +0.000 A 
ATOM      7  C   UNL     1       0.154   9.586  22.692  0.00  0.00    +0.000 A 
ATOM      8  N   UNL     1       0.193  10.851  22.234  0.00  0.00    +0.000 NA
ATOM      9  C   UNL     1       0.785  11.111  21.056  0.00  0.00    +0.000 A 
ATOM     10  N   UNL     1       0.826  12.430  20.567  0.00  0.00    +0.000 N 
ATOM     11  C   UNL     1       0.258  13.505  21.225  0.00  0.00    +0.000 C 
ATOM     12  O   UNL     1      -0.313  13.491  22.304  0.00  0.00    +0.000 OA
ATOM     13  C   UNL     1       1.350  10.096  20.298  0.00  0.00    +0.000 A 
ATOM     14  H   UNL     1       1.263  12.585  19.674  0.00  0.00    +0.000 HD
BRANCH  11  15
ATOM     15  C   UNL     1       0.329  14.830  20.535  0.00  0.00    +0.000 C 
ATOM     16  C   UNL     1      -0.399  15.026  19.225  0.00  0.00    +0.000 C 
ATOM     17  C   UNL     1       1.094  15.173  19.286  0.00  0.00    +0.000 C 
ENDBRANCH  11  15
ENDBRANCH   2   5
BRANCH   3  18
ATOM     18  C   UNL     1       2.400   5.239  20.023  0.00  0.00    +0.000 A 
ATOM     19  C   UNL     1       1.597   4.139  19.715  0.00  0.00    +0.000 A 
ATOM     20  C   UNL     1       2.163   2.956  19.239  0.00  0.00    +0.000 A 
ATOM     21  C   UNL     1       3.537   2.866  19.049  0.00  0.00    +0.000 A 
ATOM     22  C   UNL     1       4.345   3.984  19.270  0.00  0.00    +0.000 A 
ATOM     23  C   UNL     1       3.780   5.163  19.772  0.00  0.00    +0.000 A 
BRANCH  22  24
ATOM     24  O   UNL     1       5.714   3.963  19.099  0.00  0.00    +0.000 OA
BRANCH  24  25
ATOM     25  C   UNL     1       6.303   5.051  18.467  0.00  0.00    +0.000 A 
ATOM     26  C   UNL     1       7.310   5.718  19.143  0.00  0.00    +0.000 A 
ATOM     27  C   UNL     1       7.907   6.808  18.519  0.00  0.00    +0.000 A 
ATOM     28  C   UNL     1       7.459   7.170  17.262  0.00  0.00    +0.000 A 
ATOM     29  N   UNL     1       6.462   6.516  16.635  0.00  0.00    +0.000 NA
ATOM     30  N   UNL     1       5.865   5.455  17.253  0.00  0.00    +0.000 NA
ENDBRANCH  24  25
ENDBRANCH  22  24
ENDBRANCH   3  18
TORSDOF 5
ENDMDL
MODEL 6
REMARK VINA RESULT:      -8.2      1.445      1.669
REMARK  Name = 
REMARK  5 active torsions:
REMARK  status: ('A' for Active; 'I' for Inactive)
REMARK    1  A    between atoms: C_2  and  C_17
REMARK    2  A    between atoms: N_3  and  C_4
REMARK    3  A    between atoms: C_8  and  O_9
REMARK    4  A    between atoms: O_9  and  C_10
REMARK    5  A    between atoms: C_23  and  C_25
REMARK                            x       y       z     vdW  Elec       q    Type
REMARK                         _______ _______ _______ _____ _____    ______ ____
ROOT
ATOM      1  O   UNL     1       2.219   7.743  18.956  0.00  0.00    +0.000 OA
ATOM      2  C   UNL     1       1.810   7.640  20.106  0.00  0.00    +0.000 C 
ATOM      3  N   UNL     1       1.789   6.492  20.887  0.00  0.00    +0.000 N 
ATOM      4  H   UNL     1       1.229   6.510  21.730  0.00  0.00    +0.000 HD
ENDROOT
BRANCH   2   5
ATOM      5  C   UNL     1       1.197   8.844  20.724  0.00  0.00    +0.000 A 
ATOM      6  C   UNL     1       0.783   8.829  22.052  0.00  0.00    +0.000 A 
ATOM      7  C   UNL     1       0.229   9.985  22.550  0.00  0.00    +0.000 A 
ATOM      8  N   UNL     1       0.069  11.105  21.822  0.00  0.00    +0.000 NA
ATOM      9  C   UNL     1       0.487  11.130  20.544  0.00  0.00    +0.000 A 
ATOM     10  N   UNL     1       0.320  12.296  19.773  0.00  0.00    +0.000 N 
ATOM     11  C   UNL     1      -0.285  13.444  20.248  0.00  0.00    +0.000 C 
ATOM     12  O   UNL     1      -0.722  13.636  21.373  0.00  0.00    +0.000 OA
ATOM     13  C   UNL     1       1.072  10.016  19.959  0.00  0.00    +0.000 A 
ATOM     14  H   UNL     1       0.630  12.272  18.816  0.00  0.00    +0.000 HD
BRANCH  11  15
ATOM     15  C   UNL     1      -0.447  14.571  19.279  0.00  0.00    +0.000 C 
ATOM     16  C   UNL     1       0.651  15.601  19.148  0.00  0.00    +0.000 C 
ATOM     17  C   UNL     1      -0.722  16.017  19.593  0.00  0.00    +0.000 C 
ENDBRANCH  11  15
ENDBRANCH   2   5
BRANCH   3  18
ATOM     18  C   UNL     1       2.317   5.229  20.527  0.00  0.00    +0.000 A 
ATOM     19  C   UNL     1       1.936   4.043  21.159  0.00  0.00    +0.000 A 
ATOM     20  C   UNL     1       2.541   2.832  20.822  0.00  0.00    +0.000 A 
ATOM     21  C   UNL     1       3.522   2.790  19.838  0.00  0.00    +0.000 A 
ATOM     22  C   UNL     1       3.854   3.952  19.137  0.00  0.00    +0.000 A 
ATOM     23  C   UNL     1       3.265   5.172  19.492  0.00  0.00    +0.000 A 
BRANCH  22  24
ATOM     24  O   UNL     1       4.816   3.980  18.148  0.00  0.00    +0.000 OA
BRANCH  24  25
ATOM     25  C   UNL     1       5.878   4.862  18.305  0.00  0.00    +0.000 A 
ATOM     26  C   UNL     1       6.098   5.787  17.300  0.00  0.00    +0.000 A 
ATOM     27  C   UNL     1       7.157   6.676  17.447  0.00  0.00    +0.000 A 
ATOM     28  C   UNL     1       7.935   6.584  18.586  0.00  0.00    +0.000 A 
ATOM     29  N   UNL     1       7.712   5.660  19.541  0.00  0.00    +0.000 NA
ATOM     30  N   UNL     1       6.682   4.778  19.390  0.00  0.00    +0.000 NA
ENDBRANCH  24  25
ENDBRANCH  22  24
ENDBRANCH   3  18
TORSDOF 5
ENDMDL
MODEL 7
REMARK VINA RESULT:      -8.2      1.635      2.090
REMARK  Name = 
REMARK  5 active torsions:
REMARK  status: ('A' for Active; 'I' for Inactive)
REMARK    1  A    between atoms: C_2  and  C_17
REMARK    2  A    between atoms: N_3  and  C_4
REMARK    3  A    between atoms: C_8  and  O_9
REMARK    4  A    between atoms: O_9  and  C_10
REMARK    5  A    between atoms: C_23  and  C_25
REMARK                            x       y       z     vdW  Elec       q    Type
REMARK                         _______ _______ _______ _____ _____    ______ ____
ROOT
ATOM      1  O   UNL     1       2.501   8.348  17.073  0.00  0.00    +0.000 OA
ATOM      2  C   UNL     1       2.097   8.594  18.202  0.00  0.00    +0.000 C 
ATOM      3  N   UNL     1       2.113   7.745  19.301  0.00  0.00    +0.000 N 
ATOM      4  H   UNL     1       1.554   8.007  20.103  0.00  0.00    +0.000 HD
ENDROOT
BRANCH   2   5
ATOM      5  C   UNL     1       1.447   9.912  18.422  0.00  0.00    +0.000 A 
ATOM      6  C   UNL     1       0.079   9.998  18.660  0.00  0.00    +0.000 A 
ATOM      7  C   UNL     1      -0.446  11.254  18.858  0.00  0.00    +0.000 A 
ATOM      8  N   UNL     1       0.292  12.379  18.828  0.00  0.00    +0.000 NA
ATOM      9  C   UNL     1       1.617  12.298  18.620  0.00  0.00    +0.000 A 
ATOM     10  N   UNL     1       2.395  13.470  18.583  0.00  0.00    +0.000 N 
ATOM     11  C   UNL     1       1.869  14.740  18.726  0.00  0.00    +0.000 C 
ATOM     12  O   UNL     1       0.702  15.036  18.934  0.00  0.00    +0.000 OA
ATOM     13  C   UNL     1       2.238  11.073  18.425  0.00  0.00    +0.000 A 
ATOM     14  H   UNL     1       3.382  13.372  18.409  0.00  0.00    +0.000 HD
BRANCH  11  15
ATOM     15  C   UNL     1       2.823  15.884  18.592  0.00  0.00    +0.000 C 
ATOM     16  C   UNL     1       2.983  16.565  17.252  0.00  0.00    +0.000 C 
ATOM     17  C   UNL     1       4.157  15.887  17.897  0.00  0.00    +0.000 C 
ENDBRANCH  11  15
ENDBRANCH   2   5
BRANCH   3  18
ATOM     18  C   UNL     1       2.680   6.449  19.344  0.00  0.00    +0.000 A 
ATOM     19  C   UNL     1       1.970   5.329  19.780  0.00  0.00    +0.000 A 
ATOM     20  C   UNL     1       2.594   4.084  19.878  0.00  0.00    +0.000 A 
ATOM     21  C   UNL     1       3.932   3.944  19.527  0.00  0.00    +0.000 A 
ATOM     22  C   UNL     1       4.633   5.035  19.008  0.00  0.00    +0.000 A 
ATOM     23  C   UNL     1       4.013   6.290  18.933  0.00  0.00    +0.000 A 
BRANCH  22  24
ATOM     24  O   UNL     1       5.960   4.964  18.638  0.00  0.00    +0.000 OA
BRANCH  24  25
ATOM     25  C   UNL     1       6.251   4.919  17.281  0.00  0.00    +0.000 A 
ATOM     26  C   UNL     1       5.461   4.111  16.481  0.00  0.00    +0.000 A 
ATOM     27  C   UNL     1       5.743   4.059  15.121  0.00  0.00    +0.000 A 
ATOM     28  C   UNL     1       6.799   4.812  14.642  0.00  0.00    +0.000 A 
ATOM     29  N   UNL     1       7.567   5.574  15.445  0.00  0.00    +0.000 NA
ATOM     30  N   UNL     1       7.300   5.614  16.783  0.00  0.00    +0.000 NA
ENDBRANCH  24  25
ENDBRANCH  22  24
ENDBRANCH   3  18
TORSDOF 5
ENDMDL
MODEL 8
REMARK VINA RESULT:      -8.2      2.457      4.333
REMARK  Name = 
REMARK  5 active torsions:
REMARK  status: ('A' for Active; 'I' for Inactive)
REMARK    1  A    between atoms: C_2  and  C_17
REMARK    2  A    between atoms: N_3  and  C_4
REMARK    3  A    between atoms: C_8  and  O_9
REMARK    4  A    between atoms: O_9  and  C_10
REMARK    5  A    between atoms: C_23  and  C_25
REMARK                            x       y       z     vdW  Elec       q    Type
REMARK                         _______ _______ _______ _____ _____    ______ ____
ROOT
ATOM      1  O   UNL     1       2.315   6.761  19.797  0.00  0.00    +0.000 OA
ATOM      2  C   UNL     1       2.436   7.550  18.867  0.00  0.00    +0.000 C 
ATOM      3  N   UNL     1       3.175   7.369  17.705  0.00  0.00    +0.000 N 
ATOM      4  H   UNL     1       3.354   8.184  17.134  0.00  0.00    +0.000 HD
ENDROOT
BRANCH   2   5
ATOM      5  C   UNL     1       1.791   8.881  19.014  0.00  0.00    +0.000 A 
ATOM      6  C   UNL     1       1.854   9.818  17.987  0.00  0.00    +0.000 A 
ATOM      7  C   UNL     1       1.229  11.024  18.198  0.00  0.00    +0.000 A 
ATOM      8  N   UNL     1       0.576  11.332  19.334  0.00  0.00    +0.000 NA
ATOM      9  C   UNL     1       0.494  10.422  20.320  0.00  0.00    +0.000 A 
ATOM     10  N   UNL     1      -0.183  10.737  21.512  0.00  0.00    +0.000 N 
ATOM     11  C   UNL     1      -0.767  11.966  21.756  0.00  0.00    +0.000 C 
ATOM     12  O   UNL     1      -0.818  12.921  20.997  0.00  0.00    +0.000 OA
ATOM     13  C   UNL     1       1.082   9.171  20.191  0.00  0.00    +0.000 A 
ATOM     14  H   UNL     1      -0.209  10.037  22.234  0.00  0.00    +0.000 HD
BRANCH  11  15
ATOM     15  C   UNL     1      -1.387  12.162  23.102  0.00  0.00    +0.000 C 
ATOM     16  C   UNL     1      -2.890  12.086  23.246  0.00  0.00    +0.000 C 
ATOM     17  C   UNL     1      -2.165  13.355  23.587  0.00  0.00    +0.000 C 
ENDBRANCH  11  15
ENDBRANCH   2   5
BRANCH   3  18
ATOM     18  C   UNL     1       3.869   6.192  17.335  0.00  0.00    +0.000 A 
ATOM     19  C   UNL     1       4.971   6.205  16.477  0.00  0.00    +0.000 A 
ATOM     20  C   UNL     1       5.576   5.013  16.078  0.00  0.00    +0.000 A 
ATOM     21  C   UNL     1       5.095   3.795  16.546  0.00  0.00    +0.000 A 
ATOM     22  C   UNL     1       4.049   3.769  17.471  0.00  0.00    +0.000 A 
ATOM     23  C   UNL     1       3.426   4.965  17.852  0.00  0.00    +0.000 A 
BRANCH  22  24
ATOM     24  O   UNL     1       3.526   2.596  17.977  0.00  0.00    +0.000 OA
BRANCH  24  25
ATOM     25  C   UNL     1       2.907   2.648  19.219  0.00  0.00    +0.000 A 
ATOM     26  C   UNL     1       1.543   2.885  19.248  0.00  0.00    +0.000 A 
ATOM     27  C   UNL     1       0.913   2.937  20.486  0.00  0.00    +0.000 A 
ATOM     28  C   UNL     1       1.683   2.756  21.621  0.00  0.00    +0.000 A 
ATOM     29  N   UNL     1       3.013   2.547  21.566  0.00  0.00    +0.000 NA
ATOM     30  N   UNL     1       3.634   2.511  20.352  0.00  0.00    +0.000 NA
ENDBRANCH  24  25
ENDBRANCH  22  24
ENDBRANCH   3  18
TORSDOF 5
ENDMDL
MODEL 9
REMARK VINA RESULT:      -8.2      1.857      2.286
REMARK  Name = 
REMARK  5 active torsions:
REMARK  status: ('A' for Active; 'I' for Inactive)
REMARK    1  A    between atoms: C_2  and  C_17
REMARK    2  A    between atoms: N_3  and  C_4
REMARK    3  A    between atoms: C_8  and  O_9
REMARK    4  A    between atoms: O_9  and  C_10
REMARK    5  A    between atoms: C_23  and  C_25
REMARK                            x       y       z     vdW  Elec       q    Type
REMARK                         _______ _______ _______ _____ _____    ______ ____
ROOT
ATOM      1  O   UNL     1       1.763   8.478  17.906  0.00  0.00    +0.000 OA
ATOM      2  C   UNL     1       1.836   8.009  19.036  0.00  0.00    +0.000 C 
ATOM      3  N   UNL     1       2.209   6.717  19.383  0.00  0.00    +0.000 N 
ATOM      4  H   UNL     1       2.016   6.413  20.329  0.00  0.00    +0.000 HD
ENDROOT
BRANCH   2   5
ATOM      5  C   UNL     1       1.411   8.877  20.164  0.00  0.00    +0.000 A 
ATOM      6  C   UNL     1       1.350   8.377  21.461  0.00  0.00    +0.000 A 
ATOM      7  C   UNL     1       0.951   9.245  22.450  0.00  0.00    +0.000 A 
ATOM      8  N   UNL     1       0.621  10.530  22.221  0.00  0.00    +0.000 NA
ATOM      9  C   UNL     1       0.699  11.022  20.972  0.00  0.00    +0.000 A 
ATOM     10  N   UNL     1       0.351  12.363  20.723  0.00  0.00    +0.000 N 
ATOM     11  C   UNL     1      -0.103  13.227  21.701  0.00  0.00    +0.000 C 
ATOM     12  O   UNL     1      -0.236  12.990  22.891  0.00  0.00    +0.000 OA
ATOM     13  C   UNL     1       1.106  10.225  19.912  0.00  0.00    +0.000 A 
ATOM     14  H   UNL     1       0.407  12.692  19.773  0.00  0.00    +0.000 HD
BRANCH  11  15
ATOM     15  C   UNL     1      -0.496  14.600  21.256  0.00  0.00    +0.000 C 
ATOM     16  C   UNL     1      -1.895  14.840  20.735  0.00  0.00    +0.000 C 
ATOM     17  C   UNL     1      -0.709  15.080  19.846  0.00  0.00    +0.000 C 
ENDBRANCH  11  15
ENDBRANCH   2   5
BRANCH   3  18
ATOM     18  C   UNL     1       2.659   5.712  18.495  0.00  0.00    +0.000 A 
ATOM     19  C   UNL     1       1.936   4.542  18.249  0.00  0.00    +0.000 A 
ATOM     20  C   UNL     1       2.456   3.544  17.424  0.00  0.00    +0.000 A 
ATOM     21  C   UNL     1       3.698   3.713  16.822  0.00  0.00    +0.000 A 
ATOM     22  C   UNL     1       4.395   4.911  16.987  0.00  0.00    +0.000 A 
ATOM     23  C   UNL     1       3.884   5.903  17.836  0.00  0.00    +0.000 A 
BRANCH  22  24
ATOM     24  O   UNL     1       5.630   5.144  16.417  0.00  0.00    +0.000 OA
BRANCH  24  25
ATOM     25  C   UNL     1       6.514   5.968  17.103  0.00  0.00    +0.000 A 
ATOM     26  C   UNL     1       7.110   5.461  18.244  0.00  0.00    +0.000 A 
ATOM     27  C   UNL     1       7.997   6.276  18.937  0.00  0.00    +0.000 A 
ATOM     28  C   UNL     1       8.231   7.550  18.453  0.00  0.00    +0.000 A 
ATOM     29  N   UNL     1       7.621   8.027  17.350  0.00  0.00    +0.000 NA
ATOM     30  N   UNL     1       6.739   7.232  16.678  0.00  0.00    +0.000 NA
ENDBRANCH  24  25
ENDBRANCH  22  24
ENDBRANCH   3  18
TORSDOF 5
ENDMDL
