MODEL 1
REMARK VINA RESULT:      -8.5      0.000      0.000
REMARK  Name = 
REMARK  9 active torsions:
REMARK  status: ('A' for Active; 'I' for Inactive)
REMARK    1  A    between atoms: C_1  and  N_2
REMARK    2  A    between atoms: C_6  and  C_7
REMARK    3  A    between atoms: C_7  and  C_8
REMARK    4  A    between atoms: C_8  and  C_9
REMARK    5  A    between atoms: C_13  and  N_14
REMARK    6  A    between atoms: C_19  and  C_20
REMARK    7  A    between atoms: C_20  and  C_21
REMARK    8  A    between atoms: C_21  and  O_22
REMARK    9  A    between atoms: C_24  and  C_25
REMARK                            x       y       z     vdW  Elec       q    Type
REMARK                         _______ _______ _______ _____ _____    ______ ____
ROOT
ATOM      1  N   UNL     1       6.026   5.329  15.583  0.00  0.00    +0.000 N 
ATOM      2  C   UNL     1       4.860   6.216  15.828  0.00  0.00    +0.000 C 
ATOM      3  C   UNL     1       4.095   5.450  16.864  0.00  0.00    +0.000 A 
ATOM      4  C   UNL     1       4.403   4.097  16.693  0.00  0.00    +0.000 A 
ATOM      5  C   UNL     1       4.002   3.110  17.576  0.00  0.00    +0.000 A 
ATOM      6  C   UNL     1       3.258   3.507  18.691  0.00  0.00    +0.000 A 
ATOM      7  C   UNL     1       2.952   4.878  18.877  0.00  0.00    +0.000 A 
ATOM      8  C   UNL     1       3.365   5.877  17.968  0.00  0.00    +0.000 A 
ATOM      9  C   UNL     1       5.531   4.007  15.737  0.00  0.00    +0.000 C 
ATOM     10  O   UNL     1       6.024   2.963  15.353  0.00  0.00    +0.000 OA
ENDROOT
BRANCH   1  15
ATOM     11  C   UNL     1       7.794   7.608  17.782  0.00  0.00    +0.000 A 
ATOM     12  C   UNL     1       7.780   6.800  18.928  0.00  0.00    +0.000 A 
ATOM     13  C   UNL     1       7.655   5.421  18.819  0.00  0.00    +0.000 A 
ATOM     14  C   UNL     1       7.399   4.850  17.578  0.00  0.00    +0.000 A 
ATOM     15  C   UNL     1       7.122   5.684  16.483  0.00  0.00    +0.000 A 
ATOM     16  C   UNL     1       7.496   7.032  16.543  0.00  0.00    +0.000 A 
BRANCH  11  17
ATOM     17  C   UNL     1       8.001   9.097  17.899  0.00  0.00    +0.000 C 
BRANCH  17  18
ATOM     18  C   UNL     1       8.975   9.436  19.030  0.00  0.00    +0.000 C 
BRANCH  18  24
ATOM     19  C   UNL     1       9.147  11.617  21.241  0.00  0.00    +0.000 C 
ATOM     20  N   UNL     1       9.563  11.756  19.874  0.00  0.00    +0.000 N 
ATOM     21  C   UNL     1      10.085  12.872  19.303  0.00  0.00    +0.000 A 
ATOM     22  N   UNL     1      10.368  12.633  18.044  0.00  0.00    +0.000 NA
ATOM     23  N   UNL     1      10.010  11.336  17.778  0.00  0.00    +0.000 NA
ATOM     24  C   UNL     1       9.523  10.807  18.884  0.00  0.00    +0.000 A 
ENDBRANCH  18  24
ENDBRANCH  17  18
ENDBRANCH  11  17
ENDBRANCH   1  15
BRANCH   8  25
ATOM     25  C   UNL     1       3.097   7.328  18.287  0.00  0.00    +0.000 C 
ATOM     26  F   UNL     1       2.718   7.557  19.573  0.00  0.00    +0.000 F 
ATOM     27  F   UNL     1       4.192   8.108  18.080  0.00  0.00    +0.000 F 
ATOM     28  F   UNL     1       2.108   7.853  17.508  0.00  0.00    +0.000 F 
ENDBRANCH   8  25
BRANCH   6  29
ATOM     29  C   UNL     1       2.841   2.492  19.733  0.00  0.00    +0.000 C 
BRANCH  29  30
ATOM     30  C   UNL     1       2.227   3.107  20.998  0.00  0.00    +0.000 C 
BRANCH  30  31
ATOM     31  O   UNL     1       0.809   2.962  21.007  0.00  0.00    +0.000 OA
ATOM     32  H   UNL     1       0.490   3.314  21.857  0.00  0.00    +0.000 HD
ENDBRANCH  30  31
ENDBRANCH  29  30
ENDBRANCH   6  29
TORSDOF 8
ENDMDL
MODEL 2
REMARK VINA RESULT:      -8.4      0.892      1.130
REMARK  Name = 
REMARK  9 active torsions:
REMARK  status: ('A' for Active; 'I' for Inactive)
REMARK    1  A    between atoms: C_1  and  N_2
REMARK    2  A    between atoms: C_6  and  C_7
REMARK    3  A    between atoms: C_7  and  C_8
REMARK    4  A    between atoms: C_8  and  C_9
REMARK    5  A    between atoms: C_13  and  N_14
REMARK    6  A    between atoms: C_19  and  C_20
REMARK    7  A    between atoms: C_20  and  C_21
REMARK    8  A    between atoms: C_21  and  O_22
REMARK    9  A    between atoms: C_24  and  C_25
REMARK                            x       y       z     vdW  Elec       q    Type
REMARK                         _______ _______ _______ _____ _____    ______ ____
ROOT
ATOM      1  N   UNL     1       6.106   5.411  15.490  0.00  0.00    +0.000 N 
ATOM      2  C   UNL     1       4.930   6.280  15.753  0.00  0.00    +0.000 C 
ATOM      3  C   UNL     1       4.169   5.480  16.766  0.00  0.00    +0.000 A 
ATOM      4  C   UNL     1       4.492   4.136  16.563  0.00  0.00    +0.000 A 
ATOM      5  C   UNL     1       4.098   3.123  17.420  0.00  0.00    +0.000 A 
ATOM      6  C   UNL     1       3.346   3.485  18.542  0.00  0.00    +0.000 A 
ATOM      7  C   UNL     1       3.025   4.847  18.760  0.00  0.00    +0.000 A 
ATOM      8  C   UNL     1       3.430   5.873  17.877  0.00  0.00    +0.000 A 
ATOM      9  C   UNL     1       5.624   4.080  15.610  0.00  0.00    +0.000 C 
ATOM     10  O   UNL     1       6.130   3.051  15.201  0.00  0.00    +0.000 OA
ENDROOT
BRANCH   1  15
ATOM     11  C   UNL     1       7.840   7.652  17.754  0.00  0.00    +0.000 A 
ATOM     12  C   UNL     1       7.832   6.814  18.879  0.00  0.00    +0.000 A 
ATOM     13  C   UNL     1       7.724   5.437  18.732  0.00  0.00    +0.000 A 
ATOM     14  C   UNL     1       7.478   4.895  17.476  0.00  0.00    +0.000 A 
ATOM     15  C   UNL     1       7.195   5.755  16.402  0.00  0.00    +0.000 A 
ATOM     16  C   UNL     1       7.552   7.105  16.499  0.00  0.00    +0.000 A 
BRANCH  11  17
ATOM     17  C   UNL     1       8.028   9.140  17.911  0.00  0.00    +0.000 C 
BRANCH  17  18
ATOM     18  C   UNL     1       8.963   9.462  19.080  0.00  0.00    +0.000 C 
BRANCH  18  24
ATOM     19  C   UNL     1       9.171  11.657  21.274  0.00  0.00    +0.000 C 
ATOM     20  N   UNL     1       9.627  11.763  19.916  0.00  0.00    +0.000 N 
ATOM     21  C   UNL     1      10.211  12.850  19.349  0.00  0.00    +0.000 A 
ATOM     22  N   UNL     1      10.516  12.586  18.100  0.00  0.00    +0.000 NA
ATOM     23  N   UNL     1      10.110  11.302  17.837  0.00  0.00    +0.000 NA
ATOM     24  C   UNL     1       9.573  10.807  18.935  0.00  0.00    +0.000 A 
ENDBRANCH  18  24
ENDBRANCH  17  18
ENDBRANCH  11  17
ENDBRANCH   1  15
BRANCH   8  25
ATOM     25  C   UNL     1       3.146   7.313  18.231  0.00  0.00    +0.000 C 
ATOM     26  F   UNL     1       2.145   7.880  17.505  0.00  0.00    +0.000 F 
ATOM     27  F   UNL     1       2.785   7.458  19.534  0.00  0.00    +0.000 F 
ATOM     28  F   UNL     1       4.236   8.112  18.051  0.00  0.00    +0.000 F 
ENDBRANCH   8  25
BRANCH   6  29
ATOM     29  C   UNL     1       2.936   2.440  19.557  0.00  0.00    +0.000 C 
BRANCH  29  30
ATOM     30  C   UNL     1       3.948   2.237  20.693  0.00  0.00    +0.000 C 
BRANCH  30  31
ATOM     31  O   UNL     1       5.139   1.613  20.218  0.00  0.00    +0.000 OA
ATOM     32  H   UNL     1       5.304   0.841  20.786  0.00  0.00    +0.000 HD
ENDBRANCH  30  31
ENDBRANCH  29  30
ENDBRANCH   6  29
TORSDOF 8
ENDMDL
MODEL 3
REMARK VINA RESULT:      -8.2      3.961      6.551
REMARK  Name = 
REMARK  9 active torsions:
REMARK  status: ('A' for Active; 'I' for Inactive)
REMARK    1  A    between atoms: C_1  and  N_2
REMARK    2  A    between atoms: C_6  and  C_7
REMARK    3  A    between atoms: C_7  and  C_8
REMARK    4  A    between atoms: C_8  and  C_9
REMARK    5  A    between atoms: C_13  and  N_14
REMARK    6  A    between atoms: C_19  and  C_20
REMARK    7  A    between atoms: C_20  and  C_21
REMARK    8  A    between atoms: C_21  and  O_22
REMARK    9  A    between atoms: C_24  and  C_25
REMARK                            x       y       z     vdW  Elec       q    Type
REMARK                         _______ _______ _______ _____ _____    ______ ____
ROOT
ATOM      1  N   UNL     1       4.169   4.481  19.061  0.00  0.00    +0.000 N 
ATOM      2  C   UNL     1       5.494   5.133  19.224  0.00  0.00    +0.000 C 
ATOM      3  C   UNL     1       6.055   5.055  17.837  0.00  0.00    +0.000 A 
ATOM      4  C   UNL     1       5.466   3.953  17.211  0.00  0.00    +0.000 A 
ATOM      5  C   UNL     1       5.626   3.668  15.866  0.00  0.00    +0.000 A 
ATOM      6  C   UNL     1       6.416   4.542  15.113  0.00  0.00    +0.000 A 
ATOM      7  C   UNL     1       7.008   5.667  15.738  0.00  0.00    +0.000 A 
ATOM      8  C   UNL     1       6.839   5.947  17.113  0.00  0.00    +0.000 A 
ATOM      9  C   UNL     1       4.364   3.475  18.078  0.00  0.00    +0.000 C 
ATOM     10  O   UNL     1       3.665   2.510  17.832  0.00  0.00    +0.000 OA
ENDROOT
BRANCH   1  15
ATOM     11  C   UNL     1       2.128   7.387  19.796  0.00  0.00    +0.000 A 
ATOM     12  C   UNL     1       2.551   8.182  18.721  0.00  0.00    +0.000 A 
ATOM     13  C   UNL     1       3.072   7.598  17.573  0.00  0.00    +0.000 A 
ATOM     14  C   UNL     1       3.308   6.228  17.545  0.00  0.00    +0.000 A 
ATOM     15  C   UNL     1       3.158   5.482  18.725  0.00  0.00    +0.000 A 
ATOM     16  C   UNL     1       2.406   6.017  19.777  0.00  0.00    +0.000 A 
BRANCH  11  17
ATOM     17  C   UNL     1       1.498   8.020  21.012  0.00  0.00    +0.000 C 
BRANCH  17  18
ATOM     18  C   UNL     1       0.226   8.787  20.644  0.00  0.00    +0.000 C 
BRANCH  18  24
ATOM     19  C   UNL     1      -0.643  10.903  18.536  0.00  0.00    +0.000 C 
ATOM     20  N   UNL     1       0.059  11.160  19.762  0.00  0.00    +0.000 N 
ATOM     21  C   UNL     1       0.485  12.372  20.204  0.00  0.00    +0.000 A 
ATOM     22  N   UNL     1       1.073  12.235  21.369  0.00  0.00    +0.000 NA
ATOM     23  N   UNL     1       1.045  10.903  21.693  0.00  0.00    +0.000 NA
ATOM     24  C   UNL     1       0.433  10.254  20.721  0.00  0.00    +0.000 A 
ENDBRANCH  18  24
ENDBRANCH  17  18
ENDBRANCH  11  17
ENDBRANCH   1  15
BRANCH   8  25
ATOM     25  C   UNL     1       7.407   7.223  17.686  0.00  0.00    +0.000 C 
ATOM     26  F   UNL     1       8.250   7.885  16.849  0.00  0.00    +0.000 F 
ATOM     27  F   UNL     1       6.434   8.115  18.013  0.00  0.00    +0.000 F 
ATOM     28  F   UNL     1       8.115   7.002  18.830  0.00  0.00    +0.000 F 
ENDBRANCH   8  25
BRANCH   6  29
ATOM     29  C   UNL     1       6.584   4.331  13.624  0.00  0.00    +0.000 C 
BRANCH  29  30
ATOM     30  C   UNL     1       5.481   3.476  12.983  0.00  0.00    +0.000 C 
BRANCH  30  31
ATOM     31  O   UNL     1       6.034   2.455  12.156  0.00  0.00    +0.000 OA
ATOM     32  H   UNL     1       6.573   1.883  12.730  0.00  0.00    +0.000 HD
ENDBRANCH  30  31
ENDBRANCH  29  30
ENDBRANCH   6  29
TORSDOF 8
ENDMDL
MODEL 4
REMARK VINA RESULT:      -8.2      4.271      6.828
REMARK  Name = 
REMARK  9 active torsions:
REMARK  status: ('A' for Active; 'I' for Inactive)
REMARK    1  A    between atoms: C_1  and  N_2
REMARK    2  A    between atoms: C_6  and  C_7
REMARK    3  A    between atoms: C_7  and  C_8
REMARK    4  A    between atoms: C_8  and  C_9
REMARK    5  A    between atoms: C_13  and  N_14
REMARK    6  A    between atoms: C_19  and  C_20
REMARK    7  A    between atoms: C_20  and  C_21
REMARK    8  A    between atoms: C_21  and  O_22
REMARK    9  A    between atoms: C_24  and  C_25
REMARK                            x       y       z     vdW  Elec       q    Type
REMARK                         _______ _______ _______ _____ _____    ______ ____
ROOT
ATOM      1  N   UNL     1       4.126   4.374  19.075  0.00  0.00    +0.000 N 
ATOM      2  C   UNL     1       5.452   5.025  19.232  0.00  0.00    +0.000 C 
ATOM      3  C   UNL     1       5.987   4.991  17.833  0.00  0.00    +0.000 A 
ATOM      4  C   UNL     1       5.390   3.907  17.185  0.00  0.00    +0.000 A 
ATOM      5  C   UNL     1       5.526   3.663  15.830  0.00  0.00    +0.000 A 
ATOM      6  C   UNL     1       6.299   4.563  15.088  0.00  0.00    +0.000 A 
ATOM      7  C   UNL     1       6.898   5.671  15.737  0.00  0.00    +0.000 A 
ATOM      8  C   UNL     1       6.754   5.908  17.122  0.00  0.00    +0.000 A 
ATOM      9  C   UNL     1       4.306   3.398  18.058  0.00  0.00    +0.000 C 
ATOM     10  O   UNL     1       3.605   2.439  17.796  0.00  0.00    +0.000 OA
ENDROOT
BRANCH   1  15
ATOM     11  C   UNL     1       2.157   7.305  19.899  0.00  0.00    +0.000 A 
ATOM     12  C   UNL     1       2.522   8.086  18.792  0.00  0.00    +0.000 A 
ATOM     13  C   UNL     1       2.970   7.485  17.622  0.00  0.00    +0.000 A 
ATOM     14  C   UNL     1       3.193   6.114  17.594  0.00  0.00    +0.000 A 
ATOM     15  C   UNL     1       3.106   5.380  18.788  0.00  0.00    +0.000 A 
ATOM     16  C   UNL     1       2.421   5.932  19.877  0.00  0.00    +0.000 A 
BRANCH  11  17
ATOM     17  C   UNL     1       1.605   7.955  21.143  0.00  0.00    +0.000 C 
BRANCH  17  18
ATOM     18  C   UNL     1       0.137   8.347  20.961  0.00  0.00    +0.000 C 
BRANCH  18  24
ATOM     19  C   UNL     1       0.251  11.199  19.724  0.00  0.00    +0.000 C 
ATOM     20  N   UNL     1      -0.091  10.872  21.080  0.00  0.00    +0.000 N 
ATOM     21  C   UNL     1      -0.404  11.753  22.064  0.00  0.00    +0.000 A 
ATOM     22  N   UNL     1      -0.681  11.102  23.169  0.00  0.00    +0.000 NA
ATOM     23  N   UNL     1      -0.532   9.763  22.909  0.00  0.00    +0.000 NA
ATOM     24  C   UNL     1      -0.175   9.626  21.647  0.00  0.00    +0.000 A 
ENDBRANCH  18  24
ENDBRANCH  17  18
ENDBRANCH  11  17
ENDBRANCH   1  15
BRANCH   8  25
ATOM     25  C   UNL     1       7.329   7.168  17.724  0.00  0.00    +0.000 C 
ATOM     26  F   UNL     1       6.401   8.111  18.040  0.00  0.00    +0.000 F 
ATOM     27  F   UNL     1       8.011   6.920  18.875  0.00  0.00    +0.000 F 
ATOM     28  F   UNL     1       8.213   7.781  16.886  0.00  0.00    +0.000 F 
ENDBRANCH   8  25
BRANCH   6  29
ATOM     29  C   UNL     1       6.439   4.398  13.591  0.00  0.00    +0.000 C 
BRANCH  29  30
ATOM     30  C   UNL     1       5.429   3.422  12.970  0.00  0.00    +0.000 C 
BRANCH  30  31
ATOM     31  O   UNL     1       6.076   2.492  12.104  0.00  0.00    +0.000 OA
ATOM     32  H   UNL     1       6.035   1.622  12.536  0.00  0.00    +0.000 HD
ENDBRANCH  30  31
ENDBRANCH  29  30
ENDBRANCH   6  29
TORSDOF 8
ENDMDL
MODEL 5
REMARK VINA RESULT:      -8.1      0.601      1.121
REMARK  Name = 
REMARK  9 active torsions:
REMARK  status: ('A' for Active; 'I' for Inactive)
REMARK    1  A    between atoms: C_1  and  N_2
REMARK    2  A    between atoms: C_6  and  C_7
REMARK    3  A    between atoms: C_7  and  C_8
REMARK    4  A    between atoms: C_8  and  C_9
REMARK    5  A    between atoms: C_13  and  N_14
REMARK    6  A    between atoms: C_19  and  C_20
REMARK    7  A    between atoms: C_20  and  C_21
REMARK    8  A    between atoms: C_21  and  O_22
REMARK    9  A    between atoms: C_24  and  C_25
REMARK                            x       y       z     vdW  Elec       q    Type
REMARK                         _______ _______ _______ _____ _____    ______ ____
ROOT
ATOM      1  N   UNL     1       6.078   5.409  15.594  0.00  0.00    +0.000 N 
ATOM      2  C   UNL     1       4.897   6.278  15.833  0.00  0.00    +0.000 C 
ATOM      3  C   UNL     1       4.134   5.496  16.859  0.00  0.00    +0.000 A 
ATOM      4  C   UNL     1       4.463   4.149  16.685  0.00  0.00    +0.000 A 
ATOM      5  C   UNL     1       4.069   3.152  17.560  0.00  0.00    +0.000 A 
ATOM      6  C   UNL     1       3.310   3.534  18.671  0.00  0.00    +0.000 A 
ATOM      7  C   UNL     1       2.982   4.899  18.860  0.00  0.00    +0.000 A 
ATOM      8  C   UNL     1       3.388   5.908  17.958  0.00  0.00    +0.000 A 
ATOM      9  C   UNL     1       5.600   4.079  15.739  0.00  0.00    +0.000 C 
ATOM     10  O   UNL     1       6.112   3.044  15.354  0.00  0.00    +0.000 OA
ENDROOT
BRANCH   1  15
ATOM     11  C   UNL     1       7.754   7.675  17.877  0.00  0.00    +0.000 A 
ATOM     12  C   UNL     1       7.780   6.823  18.991  0.00  0.00    +0.000 A 
ATOM     13  C   UNL     1       7.713   5.445  18.827  0.00  0.00    +0.000 A 
ATOM     14  C   UNL     1       7.477   4.912  17.566  0.00  0.00    +0.000 A 
ATOM     15  C   UNL     1       7.161   5.775  16.505  0.00  0.00    +0.000 A 
ATOM     16  C   UNL     1       7.477   7.135  16.617  0.00  0.00    +0.000 A 
BRANCH  11  17
ATOM     17  C   UNL     1       7.897   9.166  18.051  0.00  0.00    +0.000 C 
BRANCH  17  18
ATOM     18  C   UNL     1       9.276   9.531  18.608  0.00  0.00    +0.000 C 
BRANCH  18  24
ATOM     19  C   UNL     1       9.288  12.508  17.708  0.00  0.00    +0.000 C 
ATOM     20  N   UNL     1       9.241  12.027  19.060  0.00  0.00    +0.000 N 
ATOM     21  C   UNL     1       9.215  12.791  20.183  0.00  0.00    +0.000 A 
ATOM     22  N   UNL     1       9.155  12.017  21.242  0.00  0.00    +0.000 NA
ATOM     23  N   UNL     1       9.157  10.717  20.804  0.00  0.00    +0.000 NA
ATOM     24  C   UNL     1       9.209  10.724  19.487  0.00  0.00    +0.000 A 
ENDBRANCH  18  24
ENDBRANCH  17  18
ENDBRANCH  11  17
ENDBRANCH   1  15
BRANCH   8  25
ATOM     25  C   UNL     1       3.097   7.354  18.281  0.00  0.00    +0.000 C 
ATOM     26  F   UNL     1       2.723   7.574  19.571  0.00  0.00    +0.000 F 
ATOM     27  F   UNL     1       4.177   8.154  18.068  0.00  0.00    +0.000 F 
ATOM     28  F   UNL     1       2.094   7.862  17.511  0.00  0.00    +0.000 F 
ENDBRANCH   8  25
BRANCH   6  29
ATOM     29  C   UNL     1       2.898   2.508  19.705  0.00  0.00    +0.000 C 
BRANCH  29  30
ATOM     30  C   UNL     1       2.302   3.111  20.984  0.00  0.00    +0.000 C 
BRANCH  30  31
ATOM     31  O   UNL     1       0.898   2.872  21.062  0.00  0.00    +0.000 OA
ATOM     32  H   UNL     1       0.777   1.912  21.166  0.00  0.00    +0.000 HD
ENDBRANCH  30  31
ENDBRANCH  29  30
ENDBRANCH   6  29
TORSDOF 8
ENDMDL
MODEL 6
REMARK VINA RESULT:      -8.1      1.082      1.591
REMARK  Name = 
REMARK  9 active torsions:
REMARK  status: ('A' for Active; 'I' for Inactive)
REMARK    1  A    between atoms: C_1  and  N_2
REMARK    2  A    between atoms: C_6  and  C_7
REMARK    3  A    between atoms: C_7  and  C_8
REMARK    4  A    between atoms: C_8  and  C_9
REMARK    5  A    between atoms: C_13  and  N_14
REMARK    6  A    between atoms: C_19  and  C_20
REMARK    7  A    between atoms: C_20  and  C_21
REMARK    8  A    between atoms: C_21  and  O_22
REMARK    9  A    between atoms: C_24  and  C_25
REMARK                            x       y       z     vdW  Elec       q    Type
REMARK                         _______ _______ _______ _____ _____    ______ ____
ROOT
ATOM      1  N   UNL     1       6.158   5.506  15.500  0.00  0.00    +0.000 N 
ATOM      2  C   UNL     1       4.963   6.347  15.771  0.00  0.00    +0.000 C 
ATOM      3  C   UNL     1       4.194   5.498  16.737  0.00  0.00    +0.000 A 
ATOM      4  C   UNL     1       4.542   4.167  16.489  0.00  0.00    +0.000 A 
ATOM      5  C   UNL     1       4.146   3.116  17.298  0.00  0.00    +0.000 A 
ATOM      6  C   UNL     1       3.366   3.423  18.417  0.00  0.00    +0.000 A 
ATOM      7  C   UNL     1       3.019   4.771  18.681  0.00  0.00    +0.000 A 
ATOM      8  C   UNL     1       3.427   5.836  17.846  0.00  0.00    +0.000 A 
ATOM      9  C   UNL     1       5.694   4.165  15.559  0.00  0.00    +0.000 C 
ATOM     10  O   UNL     1       6.224   3.160  15.122  0.00  0.00    +0.000 OA
ENDROOT
BRANCH   1  15
ATOM     11  C   UNL     1       7.804   7.678  17.893  0.00  0.00    +0.000 A 
ATOM     12  C   UNL     1       7.792   6.792  18.980  0.00  0.00    +0.000 A 
ATOM     13  C   UNL     1       7.713   5.421  18.772  0.00  0.00    +0.000 A 
ATOM     14  C   UNL     1       7.503   4.930  17.488  0.00  0.00    +0.000 A 
ATOM     15  C   UNL     1       7.222   5.831  16.448  0.00  0.00    +0.000 A 
ATOM     16  C   UNL     1       7.551   7.182  16.610  0.00  0.00    +0.000 A 
BRANCH  11  17
ATOM     17  C   UNL     1       7.959   9.162  18.118  0.00  0.00    +0.000 C 
BRANCH  17  18
ATOM     18  C   UNL     1       9.313   9.488  18.754  0.00  0.00    +0.000 C 
BRANCH  18  24
ATOM     19  C   UNL     1       9.544  12.419  17.737  0.00  0.00    +0.000 C 
ATOM     20  N   UNL     1       9.375  12.001  19.100  0.00  0.00    +0.000 N 
ATOM     21  C   UNL     1       9.307  12.814  20.186  0.00  0.00    +0.000 A 
ATOM     22  N   UNL     1       9.131  12.092  21.268  0.00  0.00    +0.000 NA
ATOM     23  N   UNL     1       9.097  10.775  20.885  0.00  0.00    +0.000 NA
ATOM     24  C   UNL     1       9.245  10.721  19.576  0.00  0.00    +0.000 A 
ENDBRANCH  18  24
ENDBRANCH  17  18
ENDBRANCH  11  17
ENDBRANCH   1  15
BRANCH   8  25
ATOM     25  C   UNL     1       3.113   7.257  18.249  0.00  0.00    +0.000 C 
ATOM     26  F   UNL     1       2.073   7.813  17.572  0.00  0.00    +0.000 F 
ATOM     27  F   UNL     1       2.791   7.357  19.567  0.00  0.00    +0.000 F 
ATOM     28  F   UNL     1       4.173   8.092  18.055  0.00  0.00    +0.000 F 
ENDBRANCH   8  25
BRANCH   6  29
ATOM     29  C   UNL     1       2.951   2.334  19.383  0.00  0.00    +0.000 C 
BRANCH  29  30
ATOM     30  C   UNL     1       3.867   2.198  20.606  0.00  0.00    +0.000 C 
BRANCH  30  31
ATOM     31  O   UNL     1       5.152   1.702  20.237  0.00  0.00    +0.000 OA
ATOM     32  H   UNL     1       5.779   2.442  20.320  0.00  0.00    +0.000 HD
ENDBRANCH  30  31
ENDBRANCH  29  30
ENDBRANCH   6  29
TORSDOF 8
ENDMDL
MODEL 7
REMARK VINA RESULT:      -8.0      4.356      6.967
REMARK  Name = 
REMARK  9 active torsions:
REMARK  status: ('A' for Active; 'I' for Inactive)
REMARK    1  A    between atoms: C_1  and  N_2
REMARK    2  A    between atoms: C_6  and  C_7
REMARK    3  A    between atoms: C_7  and  C_8
REMARK    4  A    between atoms: C_8  and  C_9
REMARK    5  A    between atoms: C_13  and  N_14
REMARK    6  A    between atoms: C_19  and  C_20
REMARK    7  A    between atoms: C_20  and  C_21
REMARK    8  A    between atoms: C_21  and  O_22
REMARK    9  A    between atoms: C_24  and  C_25
REMARK                            x       y       z     vdW  Elec       q    Type
REMARK                         _______ _______ _______ _____ _____    ______ ____
ROOT
ATOM      1  N   UNL     1       4.067   4.468  19.109  0.00  0.00    +0.000 N 
ATOM      2  C   UNL     1       5.398   5.119  19.223  0.00  0.00    +0.000 C 
ATOM      3  C   UNL     1       5.913   5.030  17.819  0.00  0.00    +0.000 A 
ATOM      4  C   UNL     1       5.302   3.925  17.221  0.00  0.00    +0.000 A 
ATOM      5  C   UNL     1       5.417   3.630  15.874  0.00  0.00    +0.000 A 
ATOM      6  C   UNL     1       6.183   4.498  15.088  0.00  0.00    +0.000 A 
ATOM      7  C   UNL     1       6.796   5.627  15.686  0.00  0.00    +0.000 A 
ATOM      8  C   UNL     1       6.673   5.917  17.063  0.00  0.00    +0.000 A 
ATOM      9  C   UNL     1       4.229   3.454  18.127  0.00  0.00    +0.000 C 
ATOM     10  O   UNL     1       3.521   2.488  17.911  0.00  0.00    +0.000 OA
ENDROOT
BRANCH   1  15
ATOM     11  C   UNL     1       1.832   7.185  19.988  0.00  0.00    +0.000 A 
ATOM     12  C   UNL     1       2.317   8.124  19.066  0.00  0.00    +0.000 A 
ATOM     13  C   UNL     1       2.970   7.707  17.913  0.00  0.00    +0.000 A 
ATOM     14  C   UNL     1       3.272   6.362  17.740  0.00  0.00    +0.000 A 
ATOM     15  C   UNL     1       3.047   5.467  18.799  0.00  0.00    +0.000 A 
ATOM     16  C   UNL     1       2.174   5.839  19.829  0.00  0.00    +0.000 A 
BRANCH  11  17
ATOM     17  C   UNL     1       1.062   7.636  21.204  0.00  0.00    +0.000 C 
BRANCH  17  18
ATOM     18  C   UNL     1       1.591   8.972  21.734  0.00  0.00    +0.000 C 
BRANCH  18  24
ATOM     19  C   UNL     1       0.035  10.996  19.955  0.00  0.00    +0.000 C 
ATOM     20  N   UNL     1      -0.166  10.764  21.358  0.00  0.00    +0.000 N 
ATOM     21  C   UNL     1      -1.057  11.405  22.157  0.00  0.00    +0.000 A 
ATOM     22  N   UNL     1      -0.981  10.926  23.377  0.00  0.00    +0.000 NA
ATOM     23  N   UNL     1      -0.007   9.960  23.382  0.00  0.00    +0.000 NA
ATOM     24  C   UNL     1       0.485   9.864  22.162  0.00  0.00    +0.000 A 
ENDBRANCH  18  24
ENDBRANCH  17  18
ENDBRANCH  11  17
ENDBRANCH   1  15
BRANCH   8  25
ATOM     25  C   UNL     1       7.261   7.196  17.609  0.00  0.00    +0.000 C 
ATOM     26  F   UNL     1       8.165   7.791  16.785  0.00  0.00    +0.000 F 
ATOM     27  F   UNL     1       6.308   8.135  17.851  0.00  0.00    +0.000 F 
ATOM     28  F   UNL     1       7.908   7.000  18.792  0.00  0.00    +0.000 F 
ENDBRANCH   8  25
BRANCH   6  29
ATOM     29  C   UNL     1       6.301   4.276  13.596  0.00  0.00    +0.000 C 
BRANCH  29  30
ATOM     30  C   UNL     1       7.714   4.496  13.038  0.00  0.00    +0.000 C 
BRANCH  30  31
ATOM     31  O   UNL     1       7.879   5.829  12.561  0.00  0.00    +0.000 OA
ATOM     32  H   UNL     1       8.731   6.152  12.902  0.00  0.00    +0.000 HD
ENDBRANCH  30  31
ENDBRANCH  29  30
ENDBRANCH   6  29
TORSDOF 8
ENDMDL
MODEL 8
REMARK VINA RESULT:      -8.0      0.762      1.042
REMARK  Name = 
REMARK  9 active torsions:
REMARK  status: ('A' for Active; 'I' for Inactive)
REMARK    1  A    between atoms: C_1  and  N_2
REMARK    2  A    between atoms: C_6  and  C_7
REMARK    3  A    between atoms: C_7  and  C_8
REMARK    4  A    between atoms: C_8  and  C_9
REMARK    5  A    between atoms: C_13  and  N_14
REMARK    6  A    between atoms: C_19  and  C_20
REMARK    7  A    between atoms: C_20  and  C_21
REMARK    8  A    between atoms: C_21  and  O_22
REMARK    9  A    between atoms: C_24  and  C_25
REMARK                            x       y       z     vdW  Elec       q    Type
REMARK                         _______ _______ _______ _____ _____    ______ ____
ROOT
ATOM      1  N   UNL     1       5.988   5.232  15.726  0.00  0.00    +0.000 N 
ATOM      2  C   UNL     1       4.825   6.146  15.865  0.00  0.00    +0.000 C 
ATOM      3  C   UNL     1       4.092   5.548  17.027  0.00  0.00    +0.000 A 
ATOM      4  C   UNL     1       4.401   4.186  17.058  0.00  0.00    +0.000 A 
ATOM      5  C   UNL     1       4.030   3.346  18.093  0.00  0.00    +0.000 A 
ATOM      6  C   UNL     1       3.315   3.910  19.154  0.00  0.00    +0.000 A 
ATOM      7  C   UNL     1       3.008   5.293  19.135  0.00  0.00    +0.000 A 
ATOM      8  C   UNL     1       3.391   6.141  18.071  0.00  0.00    +0.000 A 
ATOM      9  C   UNL     1       5.503   3.949  16.096  0.00  0.00    +0.000 C 
ATOM     10  O   UNL     1       5.990   2.859  15.863  0.00  0.00    +0.000 OA
ENDROOT
BRANCH   1  15
ATOM     11  C   UNL     1       7.678   7.744  17.723  0.00  0.00    +0.000 A 
ATOM     12  C   UNL     1       7.830   6.978  18.888  0.00  0.00    +0.000 A 
ATOM     13  C   UNL     1       7.834   5.590  18.824  0.00  0.00    +0.000 A 
ATOM     14  C   UNL     1       7.545   4.955  17.621  0.00  0.00    +0.000 A 
ATOM     15  C   UNL     1       7.106   5.722  16.529  0.00  0.00    +0.000 A 
ATOM     16  C   UNL     1       7.348   7.101  16.526  0.00  0.00    +0.000 A 
BRANCH  11  17
ATOM     17  C   UNL     1       7.743   9.250  17.785  0.00  0.00    +0.000 C 
BRANCH  17  18
ATOM     18  C   UNL     1       8.954   9.720  18.596  0.00  0.00    +0.000 C 
BRANCH  18  24
ATOM     19  C   UNL     1      11.361  11.344  19.712  0.00  0.00    +0.000 C 
ATOM     20  N   UNL     1      10.300  11.851  18.888  0.00  0.00    +0.000 N 
ATOM     21  C   UNL     1      10.152  13.135  18.470  0.00  0.00    +0.000 A 
ATOM     22  N   UNL     1       9.081  13.234  17.718  0.00  0.00    +0.000 NA
ATOM     23  N   UNL     1       8.504  11.991  17.654  0.00  0.00    +0.000 NA
ATOM     24  C   UNL     1       9.241  11.157  18.361  0.00  0.00    +0.000 A 
ENDBRANCH  18  24
ENDBRANCH  17  18
ENDBRANCH  11  17
ENDBRANCH   1  15
BRANCH   8  25
ATOM     25  C   UNL     1       3.125   7.624  18.170  0.00  0.00    +0.000 C 
ATOM     26  F   UNL     1       4.234   8.400  18.039  0.00  0.00    +0.000 F 
ATOM     27  F   UNL     1       2.258   8.053  17.214  0.00  0.00    +0.000 F 
ATOM     28  F   UNL     1       2.569   7.968  19.366  0.00  0.00    +0.000 F 
ENDBRANCH   8  25
BRANCH   6  29
ATOM     29  C   UNL     1       2.931   3.068  20.351  0.00  0.00    +0.000 C 
BRANCH  29  30
ATOM     30  C   UNL     1       1.581   2.351  20.208  0.00  0.00    +0.000 C 
BRANCH  30  31
ATOM     31  O   UNL     1       0.494   3.255  20.394  0.00  0.00    +0.000 OA
ATOM     32  H   UNL     1      -0.236   2.747  20.788  0.00  0.00    +0.000 HD
ENDBRANCH  30  31
ENDBRANCH  29  30
ENDBRANCH   6  29
TORSDOF 8
ENDMDL
MODEL 9
REMARK VINA RESULT:      -7.9      4.156      6.670
REMARK  Name = 
REMARK  9 active torsions:
REMARK  status: ('A' for Active; 'I' for Inactive)
REMARK    1  A    between atoms: C_1  and  N_2
REMARK    2  A    between atoms: C_6  and  C_7
REMARK    3  A    between atoms: C_7  and  C_8
REMARK    4  A    between atoms: C_8  and  C_9
REMARK    5  A    between atoms: C_13  and  N_14
REMARK    6  A    between atoms: C_19  and  C_20
REMARK    7  A    between atoms: C_20  and  C_21
REMARK    8  A    between atoms: C_21  and  O_22
REMARK    9  A    between atoms: C_24  and  C_25
REMARK                            x       y       z     vdW  Elec       q    Type
REMARK                         _______ _______ _______ _____ _____    ______ ____
ROOT
ATOM      1  N   UNL     1       4.174   4.471  19.002  0.00  0.00    +0.000 N 
ATOM      2  C   UNL     1       5.494   5.129  19.176  0.00  0.00    +0.000 C 
ATOM      3  C   UNL     1       6.073   5.043  17.797  0.00  0.00    +0.000 A 
ATOM      4  C   UNL     1       5.496   3.934  17.172  0.00  0.00    +0.000 A 
ATOM      5  C   UNL     1       5.674   3.640  15.831  0.00  0.00    +0.000 A 
ATOM      6  C   UNL     1       6.470   4.511  15.081  0.00  0.00    +0.000 A 
ATOM      7  C   UNL     1       7.050   5.643  15.706  0.00  0.00    +0.000 A 
ATOM      8  C   UNL     1       6.863   5.932  17.076  0.00  0.00    +0.000 A 
ATOM      9  C   UNL     1       4.385   3.459  18.028  0.00  0.00    +0.000 C 
ATOM     10  O   UNL     1       3.692   2.489  17.780  0.00  0.00    +0.000 OA
ENDROOT
BRANCH   1  15
ATOM     11  C   UNL     1       1.939   7.225  19.763  0.00  0.00    +0.000 A 
ATOM     12  C   UNL     1       2.443   8.133  18.820  0.00  0.00    +0.000 A 
ATOM     13  C   UNL     1       3.113   7.679  17.691  0.00  0.00    +0.000 A 
ATOM     14  C   UNL     1       3.411   6.327  17.564  0.00  0.00    +0.000 A 
ATOM     15  C   UNL     1       3.164   5.466  18.645  0.00  0.00    +0.000 A 
ATOM     16  C   UNL     1       2.277   5.872  19.649  0.00  0.00    +0.000 A 
BRANCH  11  17
ATOM     17  C   UNL     1       1.151   7.715  20.951  0.00  0.00    +0.000 C 
BRANCH  17  18
ATOM     18  C   UNL     1       1.632   9.097  21.404  0.00  0.00    +0.000 C 
BRANCH  18  24
ATOM     19  C   UNL     1      -0.705  10.068  23.214  0.00  0.00    +0.000 C 
ATOM     20  N   UNL     1      -0.396  10.541  21.893  0.00  0.00    +0.000 N 
ATOM     21  C   UNL     1      -1.086  11.480  21.196  0.00  0.00    +0.000 A 
ATOM     22  N   UNL     1      -0.511  11.678  20.033  0.00  0.00    +0.000 NA
ATOM     23  N   UNL     1       0.571  10.837  19.959  0.00  0.00    +0.000 NA
ATOM     24  C   UNL     1       0.639  10.151  21.082  0.00  0.00    +0.000 A 
ENDBRANCH  18  24
ENDBRANCH  17  18
ENDBRANCH  11  17
ENDBRANCH   1  15
BRANCH   8  25
ATOM     25  C   UNL     1       7.420   7.214  17.648  0.00  0.00    +0.000 C 
ATOM     26  F   UNL     1       8.110   7.055  18.809  0.00  0.00    +0.000 F 
ATOM     27  F   UNL     1       8.278   7.827  16.789  0.00  0.00    +0.000 F 
ATOM     28  F   UNL     1       6.442   8.125  17.917  0.00  0.00    +0.000 F 
ENDBRANCH   8  25
BRANCH   6  29
ATOM     29  C   UNL     1       6.657   4.289  13.596  0.00  0.00    +0.000 C 
BRANCH  29  30
ATOM     30  C   UNL     1       5.529   3.487  12.934  0.00  0.00    +0.000 C 
BRANCH  30  31
ATOM     31  O   UNL     1       6.049   2.437  12.122  0.00  0.00    +0.000 OA
ATOM     32  H   UNL     1       5.528   2.425  11.301  0.00  0.00    +0.000 HD
ENDBRANCH  30  31
ENDBRANCH  29  30
ENDBRANCH   6  29
TORSDOF 8
ENDMDL
