MODEL 1
REMARK VINA RESULT:      -8.4      0.000      0.000
REMARK  Name = 
REMARK  6 active torsions:
REMARK  status: ('A' for Active; 'I' for Inactive)
REMARK    1  A    between atoms: C_2  and  C_3
REMARK    2  A    between atoms: C_3  and  C_4
REMARK    3  A    between atoms: C_4  and  C_5
REMARK    4  A    between atoms: C_7  and  C_8
REMARK    5  A    between atoms: N_16  and  C_17
REMARK    6  A    between atoms: C_21  and  N_22
REMARK                            x       y       z     vdW  Elec       q    Type
REMARK                         _______ _______ _______ _____ _____    ______ ____
ROOT
ATOM      1  O   UNL     1       0.501   4.211  20.451  0.00  0.00    +0.000 OA
ATOM      2  C   UNL     1       1.663   4.317  20.826  0.00  0.00    +0.000 C 
ATOM      3  N   UNL     1       2.481   5.429  20.697  0.00  0.00    +0.000 N 
ATOM      4  H   UNL     1       3.436   5.337  21.007  0.00  0.00    +0.000 HD
ENDROOT
BRANCH   3   5
ATOM      5  C   UNL     1       2.144   6.678  20.123  0.00  0.00    +0.000 A 
ATOM      6  C   UNL     1       2.523   7.072  18.848  0.00  0.00    +0.000 A 
ATOM      7  C   UNL     1       2.163   8.331  18.370  0.00  0.00    +0.000 A 
ATOM      8  C   UNL     1       1.413   9.199  19.167  0.00  0.00    +0.000 A 
ATOM      9  C   UNL     1       0.983   8.835  20.448  0.00  0.00    +0.000 A 
ATOM     10  C   UNL     1       1.369   7.560  20.904  0.00  0.00    +0.000 A 
BRANCH   9  11
ATOM     11  N   UNL     1       0.238   9.688  21.227  0.00  0.00    +0.000 N 
ATOM     12  C   UNL     1      -0.356  10.926  20.740  0.00  0.00    +0.000 C 
ATOM     13  C   UNL     1      -0.551  11.727  22.023  0.00  0.00    +0.000 C 
ATOM     14  C   UNL     1      -0.945  10.660  23.033  0.00  0.00    +0.000 C 
ATOM     15  C   UNL     1      -0.128   9.431  22.615  0.00  0.00    +0.000 C 
ENDBRANCH   9  11
ENDBRANCH   3   5
BRANCH   2  16
ATOM     16  C   UNL     1       2.336   3.160  21.543  0.00  0.00    +0.000 C 
BRANCH  16  17
ATOM     17  C   UNL     1       3.008   2.229  20.539  0.00  0.00    +0.000 C 
BRANCH  17  18
ATOM     18  C   UNL     1       3.932   2.979  19.658  0.00  0.00    +0.000 A 
ATOM     19  N   UNL     1       3.800   3.277  18.386  0.00  0.00    +0.000 NA
ATOM     20  C   UNL     1       4.989   3.921  18.109  0.00  0.00    +0.000 A 
ATOM     21  N   UNL     1       5.801   4.044  19.173  0.00  0.00    +0.000 NA
ATOM     22  O   UNL     1       5.101   3.414  20.201  0.00  0.00    +0.000 OA
BRANCH  20  23
ATOM     23  C   UNL     1       5.300   4.417  16.773  0.00  0.00    +0.000 A 
ATOM     24  C   UNL     1       5.841   3.550  15.811  0.00  0.00    +0.000 A 
ATOM     25  C   UNL     1       6.132   4.004  14.524  0.00  0.00    +0.000 A 
ATOM     26  C   UNL     1       5.888   5.335  14.185  0.00  0.00    +0.000 A 
ATOM     27  C   UNL     1       5.358   6.208  15.132  0.00  0.00    +0.000 A 
ATOM     28  C   UNL     1       5.067   5.754  16.421  0.00  0.00    +0.000 A 
ENDBRANCH  20  23
ENDBRANCH  17  18
ENDBRANCH  16  17
ENDBRANCH   2  16
TORSDOF 6
ENDMDL
MODEL 2
REMARK VINA RESULT:      -8.3      1.817      2.478
REMARK  Name = 
REMARK  6 active torsions:
REMARK  status: ('A' for Active; 'I' for Inactive)
REMARK    1  A    between atoms: C_2  and  C_3
REMARK    2  A    between atoms: C_3  and  C_4
REMARK    3  A    between atoms: C_4  and  C_5
REMARK    4  A    between atoms: C_7  and  C_8
REMARK    5  A    between atoms: N_16  and  C_17
REMARK    6  A    between atoms: C_21  and  N_22
REMARK                            x       y       z     vdW  Elec       q    Type
REMARK                         _______ _______ _______ _____ _____    ______ ____
ROOT
ATOM      1  O   UNL     1       2.332   5.002  17.802  0.00  0.00    +0.000 OA
ATOM      2  C   UNL     1       3.014   5.240  18.793  0.00  0.00    +0.000 C 
ATOM      3  N   UNL     1       3.086   6.439  19.485  0.00  0.00    +0.000 N 
ATOM      4  H   UNL     1       3.743   6.492  20.248  0.00  0.00    +0.000 HD
ENDROOT
BRANCH   3   5
ATOM      5  C   UNL     1       2.377   7.632  19.207  0.00  0.00    +0.000 A 
ATOM      6  C   UNL     1       2.391   8.273  17.977  0.00  0.00    +0.000 A 
ATOM      7  C   UNL     1       1.677   9.457  17.798  0.00  0.00    +0.000 A 
ATOM      8  C   UNL     1       0.939  10.001  18.852  0.00  0.00    +0.000 A 
ATOM      9  C   UNL     1       0.871   9.375  20.102  0.00  0.00    +0.000 A 
ATOM     10  C   UNL     1       1.609   8.185  20.252  0.00  0.00    +0.000 A 
BRANCH   9  11
ATOM     11  N   UNL     1       0.137   9.908  21.135  0.00  0.00    +0.000 N 
ATOM     12  C   UNL     1      -0.707  11.089  21.010  0.00  0.00    +0.000 C 
ATOM     13  C   UNL     1      -0.818  11.571  22.452  0.00  0.00    +0.000 C 
ATOM     14  C   UNL     1      -0.883  10.272  23.241  0.00  0.00    +0.000 C 
ATOM     15  C   UNL     1       0.036   9.319  22.465  0.00  0.00    +0.000 C 
ENDBRANCH   9  11
ENDBRANCH   3   5
BRANCH   2  16
ATOM     16  C   UNL     1       3.875   4.147  19.400  0.00  0.00    +0.000 C 
BRANCH  16  17
ATOM     17  C   UNL     1       5.355   4.462  19.205  0.00  0.00    +0.000 C 
BRANCH  17  18
ATOM     18  C   UNL     1       5.627   4.885  17.812  0.00  0.00    +0.000 A 
ATOM     19  N   UNL     1       5.820   4.143  16.746  0.00  0.00    +0.000 NA
ATOM     20  C   UNL     1       6.082   5.085  15.773  0.00  0.00    +0.000 A 
ATOM     21  N   UNL     1       6.019   6.353  16.214  0.00  0.00    +0.000 NA
ATOM     22  O   UNL     1       5.720   6.220  17.569  0.00  0.00    +0.000 OA
BRANCH  20  23
ATOM     23  C   UNL     1       6.390   4.705  14.399  0.00  0.00    +0.000 A 
ATOM     24  C   UNL     1       7.483   5.287  13.738  0.00  0.00    +0.000 A 
ATOM     25  C   UNL     1       7.799   4.924  12.428  0.00  0.00    +0.000 A 
ATOM     26  C   UNL     1       7.023   3.977  11.762  0.00  0.00    +0.000 A 
ATOM     27  C   UNL     1       5.931   3.396  12.404  0.00  0.00    +0.000 A 
ATOM     28  C   UNL     1       5.614   3.759  13.715  0.00  0.00    +0.000 A 
ENDBRANCH  20  23
ENDBRANCH  17  18
ENDBRANCH  16  17
ENDBRANCH   2  16
TORSDOF 6
ENDMDL
MODEL 3
REMARK VINA RESULT:      -8.1      0.829      1.242
REMARK  Name = 
REMARK  6 active torsions:
REMARK  status: ('A' for Active; 'I' for Inactive)
REMARK    1  A    between atoms: C_2  and  C_3
REMARK    2  A    between atoms: C_3  and  C_4
REMARK    3  A    between atoms: C_4  and  C_5
REMARK    4  A    between atoms: C_7  and  C_8
REMARK    5  A    between atoms: N_16  and  C_17
REMARK    6  A    between atoms: C_21  and  N_22
REMARK                            x       y       z     vdW  Elec       q    Type
REMARK                         _______ _______ _______ _____ _____    ______ ____
ROOT
ATOM      1  O   UNL     1       0.932   4.510  19.637  0.00  0.00    +0.000 OA
ATOM      2  C   UNL     1       1.833   4.762  20.429  0.00  0.00    +0.000 C 
ATOM      3  N   UNL     1       2.361   6.011  20.719  0.00  0.00    +0.000 N 
ATOM      4  H   UNL     1       3.143   6.044  21.354  0.00  0.00    +0.000 HD
ENDROOT
BRANCH   3   5
ATOM      5  C   UNL     1       1.961   7.256  20.178  0.00  0.00    +0.000 A 
ATOM      6  C   UNL     1       2.193   7.641  18.866  0.00  0.00    +0.000 A 
ATOM      7  C   UNL     1       1.782   8.896  18.422  0.00  0.00    +0.000 A 
ATOM      8  C   UNL     1       1.127   9.771  19.293  0.00  0.00    +0.000 A 
ATOM      9  C   UNL     1       0.845   9.416  20.617  0.00  0.00    +0.000 A 
ATOM     10  C   UNL     1       1.280   8.144  21.035  0.00  0.00    +0.000 A 
BRANCH   9  11
ATOM     11  N   UNL     1       0.194  10.276  21.470  0.00  0.00    +0.000 N 
ATOM     12  C   UNL     1      -0.203   9.930  22.829  0.00  0.00    +0.000 C 
ATOM     13  C   UNL     1      -1.318  10.930  23.113  0.00  0.00    +0.000 C 
ATOM     14  C   UNL     1      -0.830  12.190  22.415  0.00  0.00    +0.000 C 
ATOM     15  C   UNL     1      -0.111  11.668  21.164  0.00  0.00    +0.000 C 
ENDBRANCH   9  11
ENDBRANCH   3   5
BRANCH   2  16
ATOM     16  C   UNL     1       2.467   3.643  21.236  0.00  0.00    +0.000 C 
BRANCH  16  17
ATOM     17  C   UNL     1       3.095   2.606  20.310  0.00  0.00    +0.000 C 
BRANCH  17  18
ATOM     18  C   UNL     1       4.123   3.225  19.443  0.00  0.00    +0.000 A 
ATOM     19  N   UNL     1       4.148   3.329  18.134  0.00  0.00    +0.000 NA
ATOM     20  C   UNL     1       5.366   3.936  17.908  0.00  0.00    +0.000 A 
ATOM     21  N   UNL     1       6.046   4.225  19.031  0.00  0.00    +0.000 NA
ATOM     22  O   UNL     1       5.222   3.749  20.050  0.00  0.00    +0.000 OA
BRANCH  20  23
ATOM     23  C   UNL     1       5.839   4.229  16.560  0.00  0.00    +0.000 A 
ATOM     24  C   UNL     1       7.089   4.841  16.372  0.00  0.00    +0.000 A 
ATOM     25  C   UNL     1       7.562   5.116  15.088  0.00  0.00    +0.000 A 
ATOM     26  C   UNL     1       6.789   4.786  13.976  0.00  0.00    +0.000 A 
ATOM     27  C   UNL     1       5.543   4.186  14.148  0.00  0.00    +0.000 A 
ATOM     28  C   UNL     1       5.069   3.910  15.433  0.00  0.00    +0.000 A 
ENDBRANCH  20  23
ENDBRANCH  17  18
ENDBRANCH  16  17
ENDBRANCH   2  16
TORSDOF 6
ENDMDL
MODEL 4
REMARK VINA RESULT:      -8.0      6.780      9.006
REMARK  Name = 
REMARK  6 active torsions:
REMARK  status: ('A' for Active; 'I' for Inactive)
REMARK    1  A    between atoms: C_2  and  C_3
REMARK    2  A    between atoms: C_3  and  C_4
REMARK    3  A    between atoms: C_4  and  C_5
REMARK    4  A    between atoms: C_7  and  C_8
REMARK    5  A    between atoms: N_16  and  C_17
REMARK    6  A    between atoms: C_21  and  N_22
REMARK                            x       y       z     vdW  Elec       q    Type
REMARK                         _______ _______ _______ _____ _____    ______ ____
ROOT
ATOM      1  O   UNL     1       8.250   7.141  18.666  0.00  0.00    +0.000 OA
ATOM      2  C   UNL     1       7.710   7.823  17.803  0.00  0.00    +0.000 C 
ATOM      3  N   UNL     1       6.683   7.435  16.957  0.00  0.00    +0.000 N 
ATOM      4  H   UNL     1       6.386   8.098  16.258  0.00  0.00    +0.000 HD
ENDROOT
BRANCH   3   5
ATOM      5  C   UNL     1       6.030   6.180  16.924  0.00  0.00    +0.000 A 
ATOM      6  C   UNL     1       6.285   5.199  15.976  0.00  0.00    +0.000 A 
ATOM      7  C   UNL     1       5.578   3.998  16.007  0.00  0.00    +0.000 A 
ATOM      8  C   UNL     1       4.616   3.771  16.994  0.00  0.00    +0.000 A 
ATOM      9  C   UNL     1       4.345   4.718  17.988  0.00  0.00    +0.000 A 
ATOM     10  C   UNL     1       5.070   5.924  17.925  0.00  0.00    +0.000 A 
BRANCH   9  11
ATOM     11  N   UNL     1       3.403   4.490  18.963  0.00  0.00    +0.000 N 
ATOM     12  C   UNL     1       2.309   5.402  19.269  0.00  0.00    +0.000 C 
ATOM     13  C   UNL     1       1.940   5.011  20.695  0.00  0.00    +0.000 C 
ATOM     14  C   UNL     1       2.121   3.500  20.690  0.00  0.00    +0.000 C 
ATOM     15  C   UNL     1       3.319   3.272  19.760  0.00  0.00    +0.000 C 
ENDBRANCH   9  11
ENDBRANCH   3   5
BRANCH   2  16
ATOM     16  C   UNL     1       8.139   9.266  17.600  0.00  0.00    +0.000 C 
BRANCH  16  17
ATOM     17  C   UNL     1       8.925   9.764  18.809  0.00  0.00    +0.000 C 
BRANCH  17  18
ATOM     18  C   UNL     1       9.626  11.031  18.499  0.00  0.00    +0.000 A 
ATOM     19  N   UNL     1       9.143  12.250  18.444  0.00  0.00    +0.000 NA
ATOM     20  C   UNL     1      10.242  12.987  18.055  0.00  0.00    +0.000 A 
ATOM     21  N   UNL     1      11.362  12.258  17.910  0.00  0.00    +0.000 NA
ATOM     22  O   UNL     1      10.952  10.957  18.201  0.00  0.00    +0.000 OA
BRANCH  20  23
ATOM     23  C   UNL     1      10.163  14.427  17.835  0.00  0.00    +0.000 A 
ATOM     24  C   UNL     1      11.195  15.091  17.154  0.00  0.00    +0.000 A 
ATOM     25  C   UNL     1      11.129  16.466  16.924  0.00  0.00    +0.000 A 
ATOM     26  C   UNL     1      10.030  17.194  17.377  0.00  0.00    +0.000 A 
ATOM     27  C   UNL     1       9.001  16.550  18.061  0.00  0.00    +0.000 A 
ATOM     28  C   UNL     1       9.068  15.173  18.292  0.00  0.00    +0.000 A 
ENDBRANCH  20  23
ENDBRANCH  17  18
ENDBRANCH  16  17
ENDBRANCH   2  16
TORSDOF 6
ENDMDL
MODEL 5
REMARK VINA RESULT:      -8.0      0.945      1.556
REMARK  Name = 
REMARK  6 active torsions:
REMARK  status: ('A' for Active; 'I' for Inactive)
REMARK    1  A    between atoms: C_2  and  C_3
REMARK    2  A    between atoms: C_3  and  C_4
REMARK    3  A    between atoms: C_4  and  C_5
REMARK    4  A    between atoms: C_7  and  C_8
REMARK    5  A    between atoms: N_16  and  C_17
REMARK    6  A    between atoms: C_21  and  N_22
REMARK                            x       y       z     vdW  Elec       q    Type
REMARK                         _______ _______ _______ _____ _____    ______ ____
ROOT
ATOM      1  O   UNL     1       0.394   3.847  20.099  0.00  0.00    +0.000 OA
ATOM      2  C   UNL     1       1.437   3.916  20.739  0.00  0.00    +0.000 C 
ATOM      3  N   UNL     1       2.285   5.009  20.832  0.00  0.00    +0.000 N 
ATOM      4  H   UNL     1       3.139   4.887  21.355  0.00  0.00    +0.000 HD
ENDROOT
BRANCH   3   5
ATOM      5  C   UNL     1       2.117   6.277  20.227  0.00  0.00    +0.000 A 
ATOM      6  C   UNL     1       2.549   6.587  18.945  0.00  0.00    +0.000 A 
ATOM      7  C   UNL     1       2.360   7.870  18.435  0.00  0.00    +0.000 A 
ATOM      8  C   UNL     1       1.729   8.849  19.207  0.00  0.00    +0.000 A 
ATOM      9  C   UNL     1       1.251   8.576  20.493  0.00  0.00    +0.000 A 
ATOM     10  C   UNL     1       1.464   7.273  20.982  0.00  0.00    +0.000 A 
BRANCH   9  11
ATOM     11  N   UNL     1       0.624   9.539  21.248  0.00  0.00    +0.000 N 
ATOM     12  C   UNL     1       0.423   9.443  22.688  0.00  0.00    +0.000 C 
ATOM     13  C   UNL     1      -0.742  10.397  22.924  0.00  0.00    +0.000 C 
ATOM     14  C   UNL     1      -0.462  11.525  21.943  0.00  0.00    +0.000 C 
ATOM     15  C   UNL     1       0.154  10.818  20.729  0.00  0.00    +0.000 C 
ENDBRANCH   9  11
ENDBRANCH   3   5
BRANCH   2  16
ATOM     16  C   UNL     1       1.899   2.729  21.564  0.00  0.00    +0.000 C 
BRANCH  16  17
ATOM     17  C   UNL     1       3.377   2.446  21.312  0.00  0.00    +0.000 C 
BRANCH  17  18
ATOM     18  C   UNL     1       3.734   2.715  19.900  0.00  0.00    +0.000 A 
ATOM     19  N   UNL     1       4.699   3.464  19.420  0.00  0.00    +0.000 NA
ATOM     20  C   UNL     1       4.494   3.375  18.058  0.00  0.00    +0.000 A 
ATOM     21  N   UNL     1       3.468   2.578  17.715  0.00  0.00    +0.000 NA
ATOM     22  O   UNL     1       2.960   2.143  18.938  0.00  0.00    +0.000 OA
BRANCH  20  23
ATOM     23  C   UNL     1       5.338   4.089  17.107  0.00  0.00    +0.000 A 
ATOM     24  C   UNL     1       6.182   5.118  17.552  0.00  0.00    +0.000 A 
ATOM     25  C   UNL     1       7.006   5.803  16.657  0.00  0.00    +0.000 A 
ATOM     26  C   UNL     1       6.992   5.467  15.304  0.00  0.00    +0.000 A 
ATOM     27  C   UNL     1       6.153   4.452  14.847  0.00  0.00    +0.000 A 
ATOM     28  C   UNL     1       5.328   3.767  15.742  0.00  0.00    +0.000 A 
ENDBRANCH  20  23
ENDBRANCH  17  18
ENDBRANCH  16  17
ENDBRANCH   2  16
TORSDOF 6
ENDMDL
MODEL 6
REMARK VINA RESULT:      -8.0      7.047      9.230
REMARK  Name = 
REMARK  6 active torsions:
REMARK  status: ('A' for Active; 'I' for Inactive)
REMARK    1  A    between atoms: C_2  and  C_3
REMARK    2  A    between atoms: C_3  and  C_4
REMARK    3  A    between atoms: C_4  and  C_5
REMARK    4  A    between atoms: C_7  and  C_8
REMARK    5  A    between atoms: N_16  and  C_17
REMARK    6  A    between atoms: C_21  and  N_22
REMARK                            x       y       z     vdW  Elec       q    Type
REMARK                         _______ _______ _______ _____ _____    ______ ____
ROOT
ATOM      1  O   UNL     1       8.207   6.934  18.685  0.00  0.00    +0.000 OA
ATOM      2  C   UNL     1       7.709   7.712  17.880  0.00  0.00    +0.000 C 
ATOM      3  N   UNL     1       6.683   7.443  16.988  0.00  0.00    +0.000 N 
ATOM      4  H   UNL     1       6.424   8.178  16.348  0.00  0.00    +0.000 HD
ENDROOT
BRANCH   3   5
ATOM      5  C   UNL     1       5.983   6.223  16.830  0.00  0.00    +0.000 A 
ATOM      6  C   UNL     1       6.212   5.327  15.796  0.00  0.00    +0.000 A 
ATOM      7  C   UNL     1       5.461   4.156  15.706  0.00  0.00    +0.000 A 
ATOM      8  C   UNL     1       4.480   3.874  16.661  0.00  0.00    +0.000 A 
ATOM      9  C   UNL     1       4.234   4.732  17.738  0.00  0.00    +0.000 A 
ATOM     10  C   UNL     1       5.003   5.910  17.795  0.00  0.00    +0.000 A 
BRANCH   9  11
ATOM     11  N   UNL     1       3.273   4.449  18.679  0.00  0.00    +0.000 N 
ATOM     12  C   UNL     1       2.238   3.437  18.508  0.00  0.00    +0.000 C 
ATOM     13  C   UNL     1       1.165   3.891  19.492  0.00  0.00    +0.000 C 
ATOM     14  C   UNL     1       1.980   4.420  20.663  0.00  0.00    +0.000 C 
ATOM     15  C   UNL     1       3.210   5.056  20.003  0.00  0.00    +0.000 C 
ENDBRANCH   9  11
ENDBRANCH   3   5
BRANCH   2  16
ATOM     16  C   UNL     1       8.195   9.149  17.816  0.00  0.00    +0.000 C 
BRANCH  16  17
ATOM     17  C   UNL     1       9.019   9.489  19.054  0.00  0.00    +0.000 C 
BRANCH  17  18
ATOM     18  C   UNL     1       9.633  10.831  18.929  0.00  0.00    +0.000 A 
ATOM     19  N   UNL     1       9.917  11.701  19.870  0.00  0.00    +0.000 NA
ATOM     20  C   UNL     1      10.408  12.770  19.148  0.00  0.00    +0.000 A 
ATOM     21  N   UNL     1      10.456  12.553  17.822  0.00  0.00    +0.000 NA
ATOM     22  O   UNL     1       9.938  11.266  17.676  0.00  0.00    +0.000 OA
BRANCH  20  23
ATOM     23  C   UNL     1      10.832  14.005  19.796  0.00  0.00    +0.000 A 
ATOM     24  C   UNL     1      11.876  14.764  19.244  0.00  0.00    +0.000 A 
ATOM     25  C   UNL     1      12.286  15.956  19.845  0.00  0.00    +0.000 A 
ATOM     26  C   UNL     1      11.658  16.400  21.008  0.00  0.00    +0.000 A 
ATOM     27  C   UNL     1      10.626  15.652  21.571  0.00  0.00    +0.000 A 
ATOM     28  C   UNL     1      10.216  14.459  20.970  0.00  0.00    +0.000 A 
ENDBRANCH  20  23
ENDBRANCH  17  18
ENDBRANCH  16  17
ENDBRANCH   2  16
TORSDOF 6
ENDMDL
MODEL 7
REMARK VINA RESULT:      -7.9      6.538      8.392
REMARK  Name = 
REMARK  6 active torsions:
REMARK  status: ('A' for Active; 'I' for Inactive)
REMARK    1  A    between atoms: C_2  and  C_3
REMARK    2  A    between atoms: C_3  and  C_4
REMARK    3  A    between atoms: C_4  and  C_5
REMARK    4  A    between atoms: C_7  and  C_8
REMARK    5  A    between atoms: N_16  and  C_17
REMARK    6  A    between atoms: C_21  and  N_22
REMARK                            x       y       z     vdW  Elec       q    Type
REMARK                         _______ _______ _______ _____ _____    ______ ____
ROOT
ATOM      1  O   UNL     1       8.648   7.849  18.973  0.00  0.00    +0.000 OA
ATOM      2  C   UNL     1       8.044   8.519  18.142  0.00  0.00    +0.000 C 
ATOM      3  N   UNL     1       8.193   9.876  17.901  0.00  0.00    +0.000 N 
ATOM      4  H   UNL     1       7.578  10.293  17.220  0.00  0.00    +0.000 HD
ENDROOT
BRANCH   3   5
ATOM      5  C   UNL     1       9.082  10.769  18.547  0.00  0.00    +0.000 A 
ATOM      6  C   UNL     1       9.723  10.491  19.745  0.00  0.00    +0.000 A 
ATOM      7  C   UNL     1      10.568  11.438  20.321  0.00  0.00    +0.000 A 
ATOM      8  C   UNL     1      10.779  12.669  19.693  0.00  0.00    +0.000 A 
ATOM      9  C   UNL     1      10.177  12.982  18.469  0.00  0.00    +0.000 A 
ATOM     10  C   UNL     1       9.324  12.007  17.918  0.00  0.00    +0.000 A 
BRANCH   9  11
ATOM     11  N   UNL     1      10.393  14.190  17.849  0.00  0.00    +0.000 N 
ATOM     12  C   UNL     1      11.508  14.457  16.950  0.00  0.00    +0.000 C 
ATOM     13  C   UNL     1      11.618  15.977  17.002  0.00  0.00    +0.000 C 
ATOM     14  C   UNL     1      10.166  16.420  17.087  0.00  0.00    +0.000 C 
ATOM     15  C   UNL     1       9.494  15.335  17.938  0.00  0.00    +0.000 C 
ENDBRANCH   9  11
ENDBRANCH   3   5
BRANCH   2  16
ATOM     16  C   UNL     1       7.033   7.856  17.224  0.00  0.00    +0.000 C 
BRANCH  16  17
ATOM     17  C   UNL     1       7.350   6.372  17.066  0.00  0.00    +0.000 C 
BRANCH  17  18
ATOM     18  C   UNL     1       6.398   5.542  17.838  0.00  0.00    +0.000 A 
ATOM     19  N   UNL     1       5.093   5.653  17.934  0.00  0.00    +0.000 NA
ATOM     20  C   UNL     1       4.775   4.652  18.829  0.00  0.00    +0.000 A 
ATOM     21  N   UNL     1       5.834   3.934  19.240  0.00  0.00    +0.000 NA
ATOM     22  O   UNL     1       6.913   4.527  18.585  0.00  0.00    +0.000 OA
BRANCH  20  23
ATOM     23  C   UNL     1       3.403   4.418  19.263  0.00  0.00    +0.000 A 
ATOM     24  C   UNL     1       2.696   3.303  18.784  0.00  0.00    +0.000 A 
ATOM     25  C   UNL     1       1.386   3.057  19.200  0.00  0.00    +0.000 A 
ATOM     26  C   UNL     1       0.767   3.925  20.097  0.00  0.00    +0.000 A 
ATOM     27  C   UNL     1       1.454   5.039  20.575  0.00  0.00    +0.000 A 
ATOM     28  C   UNL     1       2.764   5.287  20.158  0.00  0.00    +0.000 A 
ENDBRANCH  20  23
ENDBRANCH  17  18
ENDBRANCH  16  17
ENDBRANCH   2  16
TORSDOF 6
ENDMDL
MODEL 8
REMARK VINA RESULT:      -7.9      6.923      9.156
REMARK  Name = 
REMARK  6 active torsions:
REMARK  status: ('A' for Active; 'I' for Inactive)
REMARK    1  A    between atoms: C_2  and  C_3
REMARK    2  A    between atoms: C_3  and  C_4
REMARK    3  A    between atoms: C_4  and  C_5
REMARK    4  A    between atoms: C_7  and  C_8
REMARK    5  A    between atoms: N_16  and  C_17
REMARK    6  A    between atoms: C_21  and  N_22
REMARK                            x       y       z     vdW  Elec       q    Type
REMARK                         _______ _______ _______ _____ _____    ______ ____
ROOT
ATOM      1  O   UNL     1       8.206   7.050  18.710  0.00  0.00    +0.000 OA
ATOM      2  C   UNL     1       7.725   7.751  17.827  0.00  0.00    +0.000 C 
ATOM      3  N   UNL     1       6.714   7.402  16.946  0.00  0.00    +0.000 N 
ATOM      4  H   UNL     1       6.469   8.075  16.236  0.00  0.00    +0.000 HD
ENDROOT
BRANCH   3   5
ATOM      5  C   UNL     1       6.013   6.174  16.890  0.00  0.00    +0.000 A 
ATOM      6  C   UNL     1       6.278   5.173  15.967  0.00  0.00    +0.000 A 
ATOM      7  C   UNL     1       5.523   4.001  15.971  0.00  0.00    +0.000 A 
ATOM      8  C   UNL     1       4.502   3.824  16.908  0.00  0.00    +0.000 A 
ATOM      9  C   UNL     1       4.217   4.793  17.877  0.00  0.00    +0.000 A 
ATOM     10  C   UNL     1       4.992   5.968  17.840  0.00  0.00    +0.000 A 
BRANCH   9  11
ATOM     11  N   UNL     1       3.217   4.613  18.802  0.00  0.00    +0.000 N 
ATOM     12  C   UNL     1       2.742   3.309  19.247  0.00  0.00    +0.000 C 
ATOM     13  C   UNL     1       1.348   3.626  19.776  0.00  0.00    +0.000 C 
ATOM     14  C   UNL     1       1.533   4.990  20.424  0.00  0.00    +0.000 C 
ATOM     15  C   UNL     1       2.557   5.694  19.524  0.00  0.00    +0.000 C 
ENDBRANCH   9  11
ENDBRANCH   3   5
BRANCH   2  16
ATOM     16  C   UNL     1       8.217   9.175  17.639  0.00  0.00    +0.000 C 
BRANCH  16  17
ATOM     17  C   UNL     1       8.959   9.652  18.884  0.00  0.00    +0.000 C 
BRANCH  17  18
ATOM     18  C   UNL     1       9.593  10.970  18.649  0.00  0.00    +0.000 A 
ATOM     19  N   UNL     1       9.471  12.080  19.339  0.00  0.00    +0.000 NA
ATOM     20  C   UNL     1      10.239  12.967  18.612  0.00  0.00    +0.000 A 
ATOM     21  N   UNL     1      10.836  12.417  17.541  0.00  0.00    +0.000 NA
ATOM     22  O   UNL     1      10.404  11.091  17.563  0.00  0.00    +0.000 OA
BRANCH  20  23
ATOM     23  C   UNL     1      10.374  14.365  19.003  0.00  0.00    +0.000 A 
ATOM     24  C   UNL     1      11.215  14.717  20.071  0.00  0.00    +0.000 A 
ATOM     25  C   UNL     1      11.366  16.052  20.449  0.00  0.00    +0.000 A 
ATOM     26  C   UNL     1      10.675  17.051  19.766  0.00  0.00    +0.000 A 
ATOM     27  C   UNL     1       9.831  16.715  18.709  0.00  0.00    +0.000 A 
ATOM     28  C   UNL     1       9.679  15.379  18.330  0.00  0.00    +0.000 A 
ENDBRANCH  20  23
ENDBRANCH  17  18
ENDBRANCH  16  17
ENDBRANCH   2  16
TORSDOF 6
ENDMDL
MODEL 9
REMARK VINA RESULT:      -7.9      1.031      1.221
REMARK  Name = 
REMARK  6 active torsions:
REMARK  status: ('A' for Active; 'I' for Inactive)
REMARK    1  A    between atoms: C_2  and  C_3
REMARK    2  A    between atoms: C_3  and  C_4
REMARK    3  A    between atoms: C_4  and  C_5
REMARK    4  A    between atoms: C_7  and  C_8
REMARK    5  A    between atoms: N_16  and  C_17
REMARK    6  A    between atoms: C_21  and  N_22
REMARK                            x       y       z     vdW  Elec       q    Type
REMARK                         _______ _______ _______ _____ _____    ______ ____
ROOT
ATOM      1  O   UNL     1       0.828   4.115  19.528  0.00  0.00    +0.000 OA
ATOM      2  C   UNL     1       1.559   4.397  20.470  0.00  0.00    +0.000 C 
ATOM      3  N   UNL     1       2.175   5.616  20.709  0.00  0.00    +0.000 N 
ATOM      4  H   UNL     1       2.796   5.671  21.501  0.00  0.00    +0.000 HD
ENDROOT
BRANCH   3   5
ATOM      5  C   UNL     1       2.075   6.793  19.929  0.00  0.00    +0.000 A 
ATOM      6  C   UNL     1       2.689   6.960  18.697  0.00  0.00    +0.000 A 
ATOM      7  C   UNL     1       2.553   8.163  18.006  0.00  0.00    +0.000 A 
ATOM      8  C   UNL     1       1.793   9.204  18.546  0.00  0.00    +0.000 A 
ATOM      9  C   UNL     1       1.132   9.072  19.772  0.00  0.00    +0.000 A 
ATOM     10  C   UNL     1       1.295   7.848  20.448  0.00  0.00    +0.000 A 
BRANCH   9  11
ATOM     11  N   UNL     1       0.378  10.095  20.297  0.00  0.00    +0.000 N 
ATOM     12  C   UNL     1      -0.906  10.522  19.756  0.00  0.00    +0.000 C 
ATOM     13  C   UNL     1      -1.029  11.947  20.283  0.00  0.00    +0.000 C 
ATOM     14  C   UNL     1      -0.418  11.850  21.672  0.00  0.00    +0.000 C 
ATOM     15  C   UNL     1       0.716  10.830  21.510  0.00  0.00    +0.000 C 
ENDBRANCH   9  11
ENDBRANCH   3   5
BRANCH   2  16
ATOM     16  C   UNL     1       1.844   3.363  21.545  0.00  0.00    +0.000 C 
BRANCH  16  17
ATOM     17  C   UNL     1       3.196   2.700  21.303  0.00  0.00    +0.000 C 
BRANCH  17  18
ATOM     18  C   UNL     1       3.567   2.761  19.870  0.00  0.00    +0.000 A 
ATOM     19  N   UNL     1       4.248   3.684  19.231  0.00  0.00    +0.000 NA
ATOM     20  C   UNL     1       4.217   3.227  17.929  0.00  0.00    +0.000 A 
ATOM     21  N   UNL     1       3.573   2.056  17.780  0.00  0.00    +0.000 NA
ATOM     22  O   UNL     1       3.138   1.748  19.069  0.00  0.00    +0.000 OA
BRANCH  20  23
ATOM     23  C   UNL     1       4.841   3.969  16.840  0.00  0.00    +0.000 A 
ATOM     24  C   UNL     1       5.519   3.281  15.822  0.00  0.00    +0.000 A 
ATOM     25  C   UNL     1       6.111   3.975  14.764  0.00  0.00    +0.000 A 
ATOM     26  C   UNL     1       6.033   5.366  14.716  0.00  0.00    +0.000 A 
ATOM     27  C   UNL     1       5.369   6.062  15.724  0.00  0.00    +0.000 A 
ATOM     28  C   UNL     1       4.777   5.368  16.783  0.00  0.00    +0.000 A 
ENDBRANCH  20  23
ENDBRANCH  17  18
ENDBRANCH  16  17
ENDBRANCH   2  16
TORSDOF 6
ENDMDL
