MODEL 1
REMARK VINA RESULT:      -9.7      0.000      0.000
REMARK  Name = 
REMARK  2 active torsions:
REMARK  status: ('A' for Active; 'I' for Inactive)
REMARK    1  A    between atoms: C_2  and  C_3
REMARK    2  A    between atoms: N_21  and  C_22
REMARK                            x       y       z     vdW  Elec       q    Type
REMARK                         _______ _______ _______ _____ _____    ______ ____
ROOT
ATOM      1  O   UNL     1       3.821   4.071  19.556  0.00  0.00    +0.000 OA
ATOM      2  C   UNL     1       3.907   5.070  18.836  0.00  0.00    +0.000 C 
ATOM      3  N   UNL     1       3.133   6.224  19.083  0.00  0.00    +0.000 N 
ATOM      4  C   UNL     1       2.173   6.096  20.196  0.00  0.00    +0.000 C 
ATOM      5  C   UNL     1       1.598   7.396  20.775  0.00  0.00    +0.000 C 
ATOM      6  C   UNL     1       1.486   8.440  19.736  0.00  0.00    +0.000 A 
ATOM      7  C   UNL     1       2.058   8.349  18.490  0.00  0.00    +0.000 A 
ATOM      8  C   UNL     1       1.583   9.475  17.802  0.00  0.00    +0.000 A 
ATOM      9  N   UNL     1       0.742  10.203  18.540  0.00  0.00    +0.000 NA
ATOM     10  N   UNL     1       0.741   9.598  19.760  0.00  0.00    +0.000 N 
ATOM     11  C   UNL     1       2.910   7.234  18.030  0.00  0.00    +0.000 C 
ENDROOT
BRANCH   2  12
ATOM     12  C   UNL     1       4.923   5.036  17.735  0.00  0.00    +0.000 A 
ATOM     13  C   UNL     1       6.102   5.742  17.927  0.00  0.00    +0.000 A 
ATOM     14  C   UNL     1       7.006   5.808  16.875  0.00  0.00    +0.000 A 
ATOM     15  C   UNL     1       6.709   5.163  15.667  0.00  0.00    +0.000 A 
ATOM     16  C   UNL     1       7.578   5.232  14.567  0.00  0.00    +0.000 A 
ATOM     17  C   UNL     1       7.249   4.583  13.378  0.00  0.00    +0.000 A 
ATOM     18  C   UNL     1       6.058   3.869  13.294  0.00  0.00    +0.000 A 
ATOM     19 CL   UNL     1       5.643   3.076  11.827  0.00  0.00    +0.000 Cl
ATOM     20  C   UNL     1       5.194   3.800  14.385  0.00  0.00    +0.000 A 
ATOM     21  C   UNL     1       5.502   4.439  15.576  0.00  0.00    +0.000 A 
ATOM     22  N   UNL     1       4.632   4.369  16.591  0.00  0.00    +0.000 NA
ENDBRANCH   2  12
BRANCH  10  23
ATOM     23  C   UNL     1      -0.028  10.115  20.831  0.00  0.00    +0.000 A 
ATOM     24  C   UNL     1      -0.005   9.464  22.068  0.00  0.00    +0.000 A 
ATOM     25  C   UNL     1      -0.624  10.056  23.169  0.00  0.00    +0.000 A 
ATOM     26  C   UNL     1      -1.302  11.267  23.029  0.00  0.00    +0.000 A 
ATOM     27  C   UNL     1      -1.393  11.876  21.781  0.00  0.00    +0.000 A 
ATOM     28  C   UNL     1      -0.763  11.298  20.680  0.00  0.00    +0.000 A 
ENDBRANCH  10  23
TORSDOF 2
ENDMDL
MODEL 2
REMARK VINA RESULT:      -9.4      0.830      1.302
REMARK  Name = 
REMARK  2 active torsions:
REMARK  status: ('A' for Active; 'I' for Inactive)
REMARK    1  A    between atoms: C_2  and  C_3
REMARK    2  A    between atoms: N_21  and  C_22
REMARK                            x       y       z     vdW  Elec       q    Type
REMARK                         _______ _______ _______ _____ _____    ______ ____
ROOT
ATOM      1  O   UNL     1       3.080   4.323  20.376  0.00  0.00    +0.000 OA
ATOM      2  C   UNL     1       3.335   5.259  19.615  0.00  0.00    +0.000 C 
ATOM      3  N   UNL     1       2.659   6.494  19.714  0.00  0.00    +0.000 N 
ATOM      4  C   UNL     1       1.587   6.531  20.725  0.00  0.00    +0.000 C 
ATOM      5  C   UNL     1       1.090   7.915  21.166  0.00  0.00    +0.000 C 
ATOM      6  C   UNL     1       1.185   8.892  20.064  0.00  0.00    +0.000 A 
ATOM      7  C   UNL     1       1.864   8.667  18.892  0.00  0.00    +0.000 A 
ATOM      8  C   UNL     1       1.575   9.783  18.095  0.00  0.00    +0.000 A 
ATOM      9  N   UNL     1       0.742  10.634  18.699  0.00  0.00    +0.000 NA
ATOM     10  N   UNL     1       0.561  10.115  19.945  0.00  0.00    +0.000 N 
ATOM     11  C   UNL     1       2.643   7.449  18.588  0.00  0.00    +0.000 C 
ENDROOT
BRANCH   2  12
ATOM     12  C   UNL     1       4.446   5.057  18.629  0.00  0.00    +0.000 A 
ATOM     13  C   UNL     1       5.735   5.362  19.043  0.00  0.00    +0.000 A 
ATOM     14  C   UNL     1       6.760   5.282  18.110  0.00  0.00    +0.000 A 
ATOM     15  C   UNL     1       6.469   4.894  16.795  0.00  0.00    +0.000 A 
ATOM     16  C   UNL     1       7.468   4.833  15.810  0.00  0.00    +0.000 A 
ATOM     17  C   UNL     1       7.142   4.449  14.511  0.00  0.00    +0.000 A 
ATOM     18  C   UNL     1       5.825   4.128  14.201  0.00  0.00    +0.000 A 
ATOM     19 CL   UNL     1       5.417   3.663  12.597  0.00  0.00    +0.000 Cl
ATOM     20  C   UNL     1       4.832   4.188  15.177  0.00  0.00    +0.000 A 
ATOM     21  C   UNL     1       5.134   4.569  16.474  0.00  0.00    +0.000 A 
ATOM     22  N   UNL     1       4.145   4.640  17.374  0.00  0.00    +0.000 NA
ENDBRANCH   2  12
BRANCH  10  23
ATOM     23  C   UNL     1      -0.255  10.771  20.898  0.00  0.00    +0.000 A 
ATOM     24  C   UNL     1      -1.073  11.829  20.487  0.00  0.00    +0.000 A 
ATOM     25  C   UNL     1      -1.999  12.369  21.380  0.00  0.00    +0.000 A 
ATOM     26  C   UNL     1      -2.078  11.891  22.689  0.00  0.00    +0.000 A 
ATOM     27  C   UNL     1      -1.209  10.893  23.121  0.00  0.00    +0.000 A 
ATOM     28  C   UNL     1      -0.294  10.337  22.229  0.00  0.00    +0.000 A 
ENDBRANCH  10  23
TORSDOF 2
ENDMDL
MODEL 3
REMARK VINA RESULT:      -9.2      3.044      4.527
REMARK  Name = 
REMARK  2 active torsions:
REMARK  status: ('A' for Active; 'I' for Inactive)
REMARK    1  A    between atoms: C_2  and  C_3
REMARK    2  A    between atoms: N_21  and  C_22
REMARK                            x       y       z     vdW  Elec       q    Type
REMARK                         _______ _______ _______ _____ _____    ______ ____
ROOT
ATOM      1  O   UNL     1       2.273   9.605  17.117  0.00  0.00    +0.000 OA
ATOM      2  C   UNL     1       2.124   8.908  18.124  0.00  0.00    +0.000 C 
ATOM      3  N   UNL     1       1.431   9.388  19.255  0.00  0.00    +0.000 N 
ATOM      4  C   UNL     1       0.990  10.792  19.159  0.00  0.00    +0.000 C 
ATOM      5  C   UNL     1      -0.091  11.254  20.146  0.00  0.00    +0.000 C 
ATOM      6  C   UNL     1       0.016  10.534  21.431  0.00  0.00    +0.000 A 
ATOM      7  C   UNL     1       0.801   9.425  21.628  0.00  0.00    +0.000 A 
ATOM      8  C   UNL     1       0.708   9.166  23.002  0.00  0.00    +0.000 A 
ATOM      9  N   UNL     1      -0.045  10.067  23.638  0.00  0.00    +0.000 NA
ATOM     10  N   UNL     1      -0.530  10.870  22.650  0.00  0.00    +0.000 N 
ATOM     11  C   UNL     1       1.600   8.758  20.580  0.00  0.00    +0.000 C 
ENDROOT
BRANCH   2  12
ATOM     12  C   UNL     1       2.644   7.504  18.068  0.00  0.00    +0.000 A 
ATOM     13  C   UNL     1       3.930   7.314  17.581  0.00  0.00    +0.000 A 
ATOM     14  C   UNL     1       4.386   6.012  17.423  0.00  0.00    +0.000 A 
ATOM     15  C   UNL     1       3.549   4.940  17.761  0.00  0.00    +0.000 A 
ATOM     16  C   UNL     1       3.955   3.608  17.585  0.00  0.00    +0.000 A 
ATOM     17  C   UNL     1       3.095   2.567  17.927  0.00  0.00    +0.000 A 
ATOM     18  C   UNL     1       1.837   2.858  18.441  0.00  0.00    +0.000 A 
ATOM     19 CL   UNL     1       0.768   1.576  18.855  0.00  0.00    +0.000 Cl
ATOM     20  C   UNL     1       1.430   4.180  18.617  0.00  0.00    +0.000 A 
ATOM     21  C   UNL     1       2.270   5.230  18.282  0.00  0.00    +0.000 A 
ATOM     22  N   UNL     1       1.830   6.485  18.441  0.00  0.00    +0.000 NA
ENDBRANCH   2  12
BRANCH  10  23
ATOM     23  C   UNL     1      -1.407  11.942  22.945  0.00  0.00    +0.000 A 
ATOM     24  C   UNL     1      -2.715  11.665  23.356  0.00  0.00    +0.000 A 
ATOM     25  C   UNL     1      -3.529  12.704  23.807  0.00  0.00    +0.000 A 
ATOM     26  C   UNL     1      -3.060  14.018  23.805  0.00  0.00    +0.000 A 
ATOM     27  C   UNL     1      -1.786  14.304  23.322  0.00  0.00    +0.000 A 
ATOM     28  C   UNL     1      -0.962  13.269  22.886  0.00  0.00    +0.000 A 
ENDBRANCH  10  23
TORSDOF 2
ENDMDL
MODEL 4
REMARK VINA RESULT:      -9.0      3.471      5.255
REMARK  Name = 
REMARK  2 active torsions:
REMARK  status: ('A' for Active; 'I' for Inactive)
REMARK    1  A    between atoms: C_2  and  C_3
REMARK    2  A    between atoms: N_21  and  C_22
REMARK                            x       y       z     vdW  Elec       q    Type
REMARK                         _______ _______ _______ _____ _____    ______ ____
ROOT
ATOM      1  O   UNL     1       2.262   9.537  17.366  0.00  0.00    +0.000 OA
ATOM      2  C   UNL     1       1.972   8.944  18.408  0.00  0.00    +0.000 C 
ATOM      3  N   UNL     1       1.153   9.540  19.390  0.00  0.00    +0.000 N 
ATOM      4  C   UNL     1       0.760  10.932  19.104  0.00  0.00    +0.000 C 
ATOM      5  C   UNL     1      -0.426  11.501  19.896  0.00  0.00    +0.000 C 
ATOM      6  C   UNL     1      -0.497  10.910  21.247  0.00  0.00    +0.000 A 
ATOM      7  C   UNL     1       0.231   9.817  21.649  0.00  0.00    +0.000 A 
ATOM      8  C   UNL     1      -0.040   9.696  23.019  0.00  0.00    +0.000 A 
ATOM      9  N   UNL     1      -0.846  10.663  23.464  0.00  0.00    +0.000 NA
ATOM     10  N   UNL     1      -1.185  11.369  22.349  0.00  0.00    +0.000 N 
ATOM     11  C   UNL     1       1.140   9.042  20.780  0.00  0.00    +0.000 C 
ENDROOT
BRANCH   2  12
ATOM     12  C   UNL     1       2.462   7.535  18.555  0.00  0.00    +0.000 A 
ATOM     13  C   UNL     1       3.369   7.070  17.612  0.00  0.00    +0.000 A 
ATOM     14  C   UNL     1       3.751   5.736  17.672  0.00  0.00    +0.000 A 
ATOM     15  C   UNL     1       3.222   4.910  18.672  0.00  0.00    +0.000 A 
ATOM     16  C   UNL     1       3.553   3.548  18.749  0.00  0.00    +0.000 A 
ATOM     17  C   UNL     1       3.004   2.754  19.754  0.00  0.00    +0.000 A 
ATOM     18  C   UNL     1       2.131   3.321  20.675  0.00  0.00    +0.000 A 
ATOM     19 CL   UNL     1       1.443   2.342  21.911  0.00  0.00    +0.000 Cl
ATOM     20  C   UNL     1       1.800   4.672  20.601  0.00  0.00    +0.000 A 
ATOM     21  C   UNL     1       2.334   5.479  19.608  0.00  0.00    +0.000 A 
ATOM     22  N   UNL     1       1.969   6.766  19.557  0.00  0.00    +0.000 NA
ENDBRANCH   2  12
BRANCH  10  23
ATOM     23  C   UNL     1      -2.067  12.475  22.426  0.00  0.00    +0.000 A 
ATOM     24  C   UNL     1      -3.371  12.346  21.936  0.00  0.00    +0.000 A 
ATOM     25  C   UNL     1      -4.293  13.369  22.157  0.00  0.00    +0.000 A 
ATOM     26  C   UNL     1      -3.906  14.534  22.821  0.00  0.00    +0.000 A 
ATOM     27  C   UNL     1      -2.589  14.695  23.239  0.00  0.00    +0.000 A 
ATOM     28  C   UNL     1      -1.667  13.670  23.036  0.00  0.00    +0.000 A 
ENDBRANCH  10  23
TORSDOF 2
ENDMDL
MODEL 5
REMARK VINA RESULT:      -8.9      1.219      1.581
REMARK  Name = 
REMARK  2 active torsions:
REMARK  status: ('A' for Active; 'I' for Inactive)
REMARK    1  A    between atoms: C_2  and  C_3
REMARK    2  A    between atoms: N_21  and  C_22
REMARK                            x       y       z     vdW  Elec       q    Type
REMARK                         _______ _______ _______ _____ _____    ______ ____
ROOT
ATOM      1  O   UNL     1       2.580   4.715  20.690  0.00  0.00    +0.000 OA
ATOM      2  C   UNL     1       2.943   5.583  19.891  0.00  0.00    +0.000 C 
ATOM      3  N   UNL     1       2.328   6.851  19.852  0.00  0.00    +0.000 N 
ATOM      4  C   UNL     1       1.183   7.010  20.768  0.00  0.00    +0.000 C 
ATOM      5  C   UNL     1       0.727   8.444  21.074  0.00  0.00    +0.000 C 
ATOM      6  C   UNL     1       0.959   9.336  19.921  0.00  0.00    +0.000 A 
ATOM      7  C   UNL     1       1.715   8.996  18.826  0.00  0.00    +0.000 A 
ATOM      8  C   UNL     1       1.547  10.066  17.935  0.00  0.00    +0.000 A 
ATOM      9  N   UNL     1       0.715  10.996  18.411  0.00  0.00    +0.000 NA
ATOM     10  N   UNL     1       0.411  10.575  19.670  0.00  0.00    +0.000 N 
ATOM     11  C   UNL     1       2.449   7.724  18.667  0.00  0.00    +0.000 C 
ENDROOT
BRANCH   2  12
ATOM     12  C   UNL     1       4.115   5.259  19.014  0.00  0.00    +0.000 A 
ATOM     13  C   UNL     1       5.384   5.425  19.552  0.00  0.00    +0.000 A 
ATOM     14  C   UNL     1       6.479   5.232  18.720  0.00  0.00    +0.000 A 
ATOM     15  C   UNL     1       6.275   4.874  17.381  0.00  0.00    +0.000 A 
ATOM     16  C   UNL     1       7.352   4.703  16.496  0.00  0.00    +0.000 A 
ATOM     17  C   UNL     1       7.113   4.352  15.169  0.00  0.00    +0.000 A 
ATOM     18  C   UNL     1       5.805   4.174  14.732  0.00  0.00    +0.000 A 
ATOM     19 CL   UNL     1       5.505   3.751  13.093  0.00  0.00    +0.000 Cl
ATOM     20  C   UNL     1       4.735   4.344  15.608  0.00  0.00    +0.000 A 
ATOM     21  C   UNL     1       4.950   4.694  16.932  0.00  0.00    +0.000 A 
ATOM     22  N   UNL     1       3.893   4.873  17.733  0.00  0.00    +0.000 NA
ENDBRANCH   2  12
BRANCH  10  23
ATOM     23  C   UNL     1      -0.441  11.335  20.508  0.00  0.00    +0.000 A 
ATOM     24  C   UNL     1       0.038  11.786  21.742  0.00  0.00    +0.000 A 
ATOM     25  C   UNL     1      -0.733  12.671  22.497  0.00  0.00    +0.000 A 
ATOM     26  C   UNL     1      -1.993  13.068  22.047  0.00  0.00    +0.000 A 
ATOM     27  C   UNL     1      -2.502  12.557  20.856  0.00  0.00    +0.000 A 
ATOM     28  C   UNL     1      -1.731  11.686  20.090  0.00  0.00    +0.000 A 
ENDBRANCH  10  23
TORSDOF 2
ENDMDL
MODEL 6
REMARK VINA RESULT:      -8.8      2.643      4.387
REMARK  Name = 
REMARK  2 active torsions:
REMARK  status: ('A' for Active; 'I' for Inactive)
REMARK    1  A    between atoms: C_2  and  C_3
REMARK    2  A    between atoms: N_21  and  C_22
REMARK                            x       y       z     vdW  Elec       q    Type
REMARK                         _______ _______ _______ _____ _____    ______ ____
ROOT
ATOM      1  O   UNL     1       2.166   9.971  17.144  0.00  0.00    +0.000 OA
ATOM      2  C   UNL     1       1.981   9.225  18.110  0.00  0.00    +0.000 C 
ATOM      3  N   UNL     1       1.284   9.663  19.255  0.00  0.00    +0.000 N 
ATOM      4  C   UNL     1       0.889  11.084  19.231  0.00  0.00    +0.000 C 
ATOM      5  C   UNL     1      -0.193  11.525  20.228  0.00  0.00    +0.000 C 
ATOM      6  C   UNL     1      -0.127  10.732  21.472  0.00  0.00    +0.000 A 
ATOM      7  C   UNL     1       0.620   9.590  21.618  0.00  0.00    +0.000 A 
ATOM      8  C   UNL     1       0.499   9.259  22.975  0.00  0.00    +0.000 A 
ATOM      9  N   UNL     1      -0.237  10.147  23.649  0.00  0.00    +0.000 NA
ATOM     10  N   UNL     1      -0.682  11.017  22.701  0.00  0.00    +0.000 N 
ATOM     11  C   UNL     1       1.415   8.957  20.545  0.00  0.00    +0.000 C 
ENDROOT
BRANCH   2  12
ATOM     12  C   UNL     1       2.458   7.810  17.983  0.00  0.00    +0.000 A 
ATOM     13  C   UNL     1       1.516   6.800  18.113  0.00  0.00    +0.000 A 
ATOM     14  C   UNL     1       1.959   5.484  18.104  0.00  0.00    +0.000 A 
ATOM     15  C   UNL     1       3.327   5.216  17.960  0.00  0.00    +0.000 A 
ATOM     16  C   UNL     1       3.823   3.903  17.982  0.00  0.00    +0.000 A 
ATOM     17  C   UNL     1       5.190   3.673  17.841  0.00  0.00    +0.000 A 
ATOM     18  C   UNL     1       6.053   4.751  17.681  0.00  0.00    +0.000 A 
ATOM     19 CL   UNL     1       7.742   4.473  17.518  0.00  0.00    +0.000 Cl
ATOM     20  C   UNL     1       5.563   6.056  17.660  0.00  0.00    +0.000 A 
ATOM     21  C   UNL     1       4.207   6.306  17.799  0.00  0.00    +0.000 A 
ATOM     22  N   UNL     1       3.782   7.576  17.801  0.00  0.00    +0.000 NA
ENDBRANCH   2  12
BRANCH  10  23
ATOM     23  C   UNL     1      -1.530  12.098  23.043  0.00  0.00    +0.000 A 
ATOM     24  C   UNL     1      -2.869  11.845  23.359  0.00  0.00    +0.000 A 
ATOM     25  C   UNL     1      -3.665  12.877  23.856  0.00  0.00    +0.000 A 
ATOM     26  C   UNL     1      -3.145  14.165  23.994  0.00  0.00    +0.000 A 
ATOM     27  C   UNL     1      -1.836  14.434  23.605  0.00  0.00    +0.000 A 
ATOM     28  C   UNL     1      -1.030  13.404  23.123  0.00  0.00    +0.000 A 
ENDBRANCH  10  23
TORSDOF 2
ENDMDL
MODEL 7
REMARK VINA RESULT:      -8.7      4.707     10.542
REMARK  Name = 
REMARK  2 active torsions:
REMARK  status: ('A' for Active; 'I' for Inactive)
REMARK    1  A    between atoms: C_2  and  C_3
REMARK    2  A    between atoms: N_21  and  C_22
REMARK                            x       y       z     vdW  Elec       q    Type
REMARK                         _______ _______ _______ _____ _____    ______ ____
ROOT
ATOM      1  O   UNL     1       0.022   9.988  23.834  0.00  0.00    +0.000 OA
ATOM      2  C   UNL     1      -0.109  10.420  22.685  0.00  0.00    +0.000 C 
ATOM      3  N   UNL     1       0.458   9.754  21.579  0.00  0.00    +0.000 N 
ATOM      4  C   UNL     1       1.275   8.575  21.921  0.00  0.00    +0.000 C 
ATOM      5  C   UNL     1       1.583   7.586  20.787  0.00  0.00    +0.000 C 
ATOM      6  C   UNL     1       1.681   8.279  19.487  0.00  0.00    +0.000 A 
ATOM      7  C   UNL     1       1.293   9.579  19.277  0.00  0.00    +0.000 A 
ATOM      8  C   UNL     1       1.690   9.858  17.961  0.00  0.00    +0.000 A 
ATOM      9  N   UNL     1       2.320   8.827  17.393  0.00  0.00    +0.000 NA
ATOM     10  N   UNL     1       2.248   7.827  18.315  0.00  0.00    +0.000 N 
ATOM     11  C   UNL     1       0.671  10.451  20.294  0.00  0.00    +0.000 C 
ENDROOT
BRANCH   2  12
ATOM     12  C   UNL     1      -0.960  11.641  22.506  0.00  0.00    +0.000 A 
ATOM     13  C   UNL     1      -0.361  12.766  21.955  0.00  0.00    +0.000 A 
ATOM     14  C   UNL     1      -1.106  13.935  21.882  0.00  0.00    +0.000 A 
ATOM     15  C   UNL     1      -2.425  13.946  22.354  0.00  0.00    +0.000 A 
ATOM     16  C   UNL     1      -3.202  15.115  22.331  0.00  0.00    +0.000 A 
ATOM     17  C   UNL     1      -4.509  15.091  22.814  0.00  0.00    +0.000 A 
ATOM     18  C   UNL     1      -5.033  13.905  23.315  0.00  0.00    +0.000 A 
ATOM     19 CL   UNL     1      -6.642  13.874  23.921  0.00  0.00    +0.000 Cl
ATOM     20  C   UNL     1      -4.263  12.744  23.339  0.00  0.00    +0.000 A 
ATOM     21  C   UNL     1      -2.961  12.746  22.865  0.00  0.00    +0.000 A 
ATOM     22  N   UNL     1      -2.247  11.615  22.932  0.00  0.00    +0.000 NA
ENDBRANCH   2  12
BRANCH  10  23
ATOM     23  C   UNL     1       2.793   6.548  18.049  0.00  0.00    +0.000 A 
ATOM     24  C   UNL     1       1.953   5.429  18.064  0.00  0.00    +0.000 A 
ATOM     25  C   UNL     1       2.446   4.194  17.642  0.00  0.00    +0.000 A 
ATOM     26  C   UNL     1       3.779   4.063  17.251  0.00  0.00    +0.000 A 
ATOM     27  C   UNL     1       4.635   5.159  17.310  0.00  0.00    +0.000 A 
ATOM     28  C   UNL     1       4.145   6.399  17.716  0.00  0.00    +0.000 A 
ENDBRANCH  10  23
TORSDOF 2
ENDMDL
MODEL 8
REMARK VINA RESULT:      -8.5      4.530     10.196
REMARK  Name = 
REMARK  2 active torsions:
REMARK  status: ('A' for Active; 'I' for Inactive)
REMARK    1  A    between atoms: C_2  and  C_3
REMARK    2  A    between atoms: N_21  and  C_22
REMARK                            x       y       z     vdW  Elec       q    Type
REMARK                         _______ _______ _______ _____ _____    ______ ____
ROOT
ATOM      1  O   UNL     1      -0.262  10.425  23.479  0.00  0.00    +0.000 OA
ATOM      2  C   UNL     1      -0.259  10.768  22.294  0.00  0.00    +0.000 C 
ATOM      3  N   UNL     1       0.357   9.978  21.301  0.00  0.00    +0.000 N 
ATOM      4  C   UNL     1       1.055   8.782  21.809  0.00  0.00    +0.000 C 
ATOM      5  C   UNL     1       1.395   7.686  20.789  0.00  0.00    +0.000 C 
ATOM      6  C   UNL     1       1.658   8.261  19.455  0.00  0.00    +0.000 A 
ATOM      7  C   UNL     1       1.382   9.561  19.109  0.00  0.00    +0.000 A 
ATOM      8  C   UNL     1       1.915   9.704  17.820  0.00  0.00    +0.000 A 
ATOM      9  N   UNL     1       2.519   8.592  17.395  0.00  0.00    +0.000 NA
ATOM     10  N   UNL     1       2.294   7.679  18.380  0.00  0.00    +0.000 N 
ATOM     11  C   UNL     1       0.734  10.551  19.993  0.00  0.00    +0.000 C 
ENDROOT
BRANCH   2  12
ATOM     12  C   UNL     1      -1.002  12.021  21.942  0.00  0.00    +0.000 A 
ATOM     13  C   UNL     1      -0.377  13.233  22.201  0.00  0.00    +0.000 A 
ATOM     14  C   UNL     1      -1.095  14.401  21.979  0.00  0.00    +0.000 A 
ATOM     15  C   UNL     1      -2.409  14.325  21.501  0.00  0.00    +0.000 A 
ATOM     16  C   UNL     1      -3.183  15.478  21.296  0.00  0.00    +0.000 A 
ATOM     17  C   UNL     1      -4.489  15.366  20.824  0.00  0.00    +0.000 A 
ATOM     18  C   UNL     1      -5.016  14.106  20.560  0.00  0.00    +0.000 A 
ATOM     19 CL   UNL     1      -6.631  13.962  19.987  0.00  0.00    +0.000 Cl
ATOM     20  C   UNL     1      -4.251  12.960  20.763  0.00  0.00    +0.000 A 
ATOM     21  C   UNL     1      -2.950  13.050  21.232  0.00  0.00    +0.000 A 
ATOM     22  N   UNL     1      -2.258  11.922  21.439  0.00  0.00    +0.000 NA
ENDBRANCH   2  12
BRANCH  10  23
ATOM     23  C   UNL     1       2.770   6.350  18.266  0.00  0.00    +0.000 A 
ATOM     24  C   UNL     1       1.858   5.312  18.048  0.00  0.00    +0.000 A 
ATOM     25  C   UNL     1       2.330   4.029  17.770  0.00  0.00    +0.000 A 
ATOM     26  C   UNL     1       3.702   3.771  17.754  0.00  0.00    +0.000 A 
ATOM     27  C   UNL     1       4.607   4.786  18.049  0.00  0.00    +0.000 A 
ATOM     28  C   UNL     1       4.142   6.073  18.312  0.00  0.00    +0.000 A 
ENDBRANCH  10  23
TORSDOF 2
ENDMDL
MODEL 9
REMARK VINA RESULT:      -8.4      4.385      9.107
REMARK  Name = 
REMARK  2 active torsions:
REMARK  status: ('A' for Active; 'I' for Inactive)
REMARK    1  A    between atoms: C_2  and  C_3
REMARK    2  A    between atoms: N_21  and  C_22
REMARK                            x       y       z     vdW  Elec       q    Type
REMARK                         _______ _______ _______ _____ _____    ______ ____
ROOT
ATOM      1  O   UNL     1       0.101   9.321  22.357  0.00  0.00    +0.000 OA
ATOM      2  C   UNL     1       0.504   9.544  21.212  0.00  0.00    +0.000 C 
ATOM      3  N   UNL     1       1.154   8.549  20.454  0.00  0.00    +0.000 N 
ATOM      4  C   UNL     1       1.383   7.279  21.169  0.00  0.00    +0.000 C 
ATOM      5  C   UNL     1       1.710   6.045  20.315  0.00  0.00    +0.000 C 
ATOM      6  C   UNL     1       2.449   6.422  19.094  0.00  0.00    +0.000 A 
ATOM      7  C   UNL     1       2.596   7.713  18.651  0.00  0.00    +0.000 A 
ATOM      8  C   UNL     1       3.472   7.615  17.560  0.00  0.00    +0.000 A 
ATOM      9  N   UNL     1       3.883   6.362  17.351  0.00  0.00    +0.000 NA
ATOM     10  N   UNL     1       3.191   5.616  18.257  0.00  0.00    +0.000 N 
ATOM     11  C   UNL     1       1.992   8.900  19.290  0.00  0.00    +0.000 C 
ENDROOT
BRANCH   2  12
ATOM     12  C   UNL     1       0.204  10.893  20.632  0.00  0.00    +0.000 A 
ATOM     13  C   UNL     1      -0.864  10.991  19.751  0.00  0.00    +0.000 A 
ATOM     14  C   UNL     1      -1.088  12.209  19.124  0.00  0.00    +0.000 A 
ATOM     15  C   UNL     1      -0.244  13.294  19.399  0.00  0.00    +0.000 A 
ATOM     16  C   UNL     1      -0.412  14.533  18.762  0.00  0.00    +0.000 A 
ATOM     17  C   UNL     1       0.449  15.589  19.056  0.00  0.00    +0.000 A 
ATOM     18  C   UNL     1       1.470  15.404  19.981  0.00  0.00    +0.000 A 
ATOM     19 CL   UNL     1       2.540  16.701  20.338  0.00  0.00    +0.000 Cl
ATOM     20  C   UNL     1       1.639  14.174  20.614  0.00  0.00    +0.000 A 
ATOM     21  C   UNL     1       0.795  13.111  20.336  0.00  0.00    +0.000 A 
ATOM     22  N   UNL     1       1.009  11.939  20.947  0.00  0.00    +0.000 NA
ENDBRANCH   2  12
BRANCH  10  23
ATOM     23  C   UNL     1       3.347   4.210  18.317  0.00  0.00    +0.000 A 
ATOM     24  C   UNL     1       4.271   3.661  19.212  0.00  0.00    +0.000 A 
ATOM     25  C   UNL     1       4.313   2.279  19.396  0.00  0.00    +0.000 A 
ATOM     26  C   UNL     1       3.470   1.445  18.660  0.00  0.00    +0.000 A 
ATOM     27  C   UNL     1       2.606   1.985  17.713  0.00  0.00    +0.000 A 
ATOM     28  C   UNL     1       2.548   3.366  17.536  0.00  0.00    +0.000 A 
ENDBRANCH  10  23
TORSDOF 2
ENDMDL
