MODEL 1
REMARK VINA RESULT:      -8.4      0.000      0.000
REMARK  Name = 
REMARK  4 active torsions:
REMARK  status: ('A' for Active; 'I' for Inactive)
REMARK    1  A    between atoms: C_1  and  C_2
REMARK    2  A    between atoms: C_4  and  C_5
REMARK    3  A    between atoms: N_7  and  C_8
REMARK    4  A    between atoms: C_8  and  C_9
REMARK                            x       y       z     vdW  Elec       q    Type
REMARK                         _______ _______ _______ _____ _____    ______ ____
ROOT
ATOM      1  C   UNL     1       4.117   6.028  17.612  0.00  0.00    +0.000 C 
ATOM      2  O   UNL     1       4.103   7.119  17.036  0.00  0.00    +0.000 OA
ATOM      3  N   UNL     1       5.083   5.062  17.345  0.00  0.00    +0.000 N 
ATOM      4  H   UNL     1       5.213   4.359  18.076  0.00  0.00    +0.000 HD
ENDROOT
BRANCH   1   8
ATOM      5  C   UNL     1       1.283   7.863  21.241  0.00  0.00    +0.000 C 
ATOM      6  C   UNL     1       1.694   6.698  20.393  0.00  0.00    +0.000 A 
ATOM      7  C   UNL     1       2.678   6.828  19.423  0.00  0.00    +0.000 A 
ATOM      8  C   UNL     1       3.051   5.743  18.603  0.00  0.00    +0.000 A 
ATOM      9  C   UNL     1       2.458   4.483  18.744  0.00  0.00    +0.000 A 
ATOM     10  N   UNL     1       2.789   3.417  17.964  0.00  0.00    +0.000 NA
ATOM     11  C   UNL     1       2.196   2.231  18.203  0.00  0.00    +0.000 A 
ATOM     12  C   UNL     1       1.246   2.020  19.175  0.00  0.00    +0.000 A 
ATOM     13  C   UNL     1       0.886   3.102  19.967  0.00  0.00    +0.000 A 
ATOM     14  C   UNL     1       1.480   4.349  19.764  0.00  0.00    +0.000 A 
ATOM     15  C   UNL     1       1.111   5.444  20.570  0.00  0.00    +0.000 A 
ENDBRANCH   1   8
BRANCH   3  16
ATOM     16  C   UNL     1       6.237   5.495  16.596  0.00  0.00    +0.000 C 
ATOM     17  C   UNL     1       6.047   5.340  15.088  0.00  0.00    +0.000 C 
ATOM     18  C   UNL     1       7.160   4.627  15.739  0.00  0.00    +0.000 C 
BRANCH  16  19
ATOM     19  C   UNL     1       7.031   6.587  17.314  0.00  0.00    +0.000 A 
ATOM     20  N   UNL     1       7.717   6.376  18.420  0.00  0.00    +0.000 NA
ATOM     21  N   UNL     1       8.410   7.536  18.665  0.00  0.00    +0.000 NA
ATOM     22  N   UNL     1       8.129   8.458  17.756  0.00  0.00    +0.000 NA
ATOM     23  N   UNL     1       7.254   7.872  16.925  0.00  0.00    +0.000 N 
ATOM     24  H   UNL     1       6.866   8.392  16.152  0.00  0.00    +0.000 HD
ENDBRANCH  16  19
ENDBRANCH   3  16
TORSDOF 3
ENDMDL
MODEL 2
REMARK VINA RESULT:      -8.2      1.542      2.350
REMARK  Name = 
REMARK  4 active torsions:
REMARK  status: ('A' for Active; 'I' for Inactive)
REMARK    1  A    between atoms: C_1  and  C_2
REMARK    2  A    between atoms: C_4  and  C_5
REMARK    3  A    between atoms: N_7  and  C_8
REMARK    4  A    between atoms: C_8  and  C_9
REMARK                            x       y       z     vdW  Elec       q    Type
REMARK                         _______ _______ _______ _____ _____    ______ ____
ROOT
ATOM      1  C   UNL     1       4.469   5.908  17.971  0.00  0.00    +0.000 C 
ATOM      2  O   UNL     1       4.433   6.862  17.190  0.00  0.00    +0.000 OA
ATOM      3  N   UNL     1       5.570   5.060  18.055  0.00  0.00    +0.000 N 
ATOM      4  H   UNL     1       5.648   4.529  18.924  0.00  0.00    +0.000 HD
ENDROOT
BRANCH   1   8
ATOM      5  C   UNL     1       1.196   7.865  21.137  0.00  0.00    +0.000 C 
ATOM      6  C   UNL     1       1.711   6.671  20.392  0.00  0.00    +0.000 A 
ATOM      7  C   UNL     1       2.811   6.769  19.552  0.00  0.00    +0.000 A 
ATOM      8  C   UNL     1       3.285   5.655  18.827  0.00  0.00    +0.000 A 
ATOM      9  C   UNL     1       2.677   4.400  18.938  0.00  0.00    +0.000 A 
ATOM     10  N   UNL     1       3.104   3.307  18.247  0.00  0.00    +0.000 NA
ATOM     11  C   UNL     1       2.484   2.128  18.452  0.00  0.00    +0.000 A 
ATOM     12  C   UNL     1       1.417   1.951  19.302  0.00  0.00    +0.000 A 
ATOM     13  C   UNL     1       0.959   3.060  20.001  0.00  0.00    +0.000 A 
ATOM     14  C   UNL     1       1.577   4.300  19.829  0.00  0.00    +0.000 A 
ATOM     15  C   UNL     1       1.109   5.423  20.540  0.00  0.00    +0.000 A 
ENDBRANCH   1   8
BRANCH   3  16
ATOM     16  C   UNL     1       6.781   5.513  17.415  0.00  0.00    +0.000 C 
ATOM     17  C   UNL     1       7.924   5.721  18.407  0.00  0.00    +0.000 C 
ATOM     18  C   UNL     1       7.471   6.866  17.598  0.00  0.00    +0.000 C 
BRANCH  16  19
ATOM     19  C   UNL     1       6.897   5.035  15.967  0.00  0.00    +0.000 A 
ATOM     20  N   UNL     1       6.230   4.003  15.488  0.00  0.00    +0.000 NA
ATOM     21  N   UNL     1       6.472   3.988  14.137  0.00  0.00    +0.000 NA
ATOM     22  N   UNL     1       7.302   4.961  13.792  0.00  0.00    +0.000 NA
ATOM     23  N   UNL     1       7.582   5.602  14.937  0.00  0.00    +0.000 N 
ATOM     24  H   UNL     1       8.226   6.379  14.935  0.00  0.00    +0.000 HD
ENDBRANCH  16  19
ENDBRANCH   3  16
TORSDOF 3
ENDMDL
MODEL 3
REMARK VINA RESULT:      -7.9      1.807      2.531
REMARK  Name = 
REMARK  4 active torsions:
REMARK  status: ('A' for Active; 'I' for Inactive)
REMARK    1  A    between atoms: C_1  and  C_2
REMARK    2  A    between atoms: C_4  and  C_5
REMARK    3  A    between atoms: N_7  and  C_8
REMARK    4  A    between atoms: C_8  and  C_9
REMARK                            x       y       z     vdW  Elec       q    Type
REMARK                         _______ _______ _______ _____ _____    ______ ____
ROOT
ATOM      1  C   UNL     1       5.109   5.400  18.945  0.00  0.00    +0.000 C 
ATOM      2  O   UNL     1       5.941   4.542  19.252  0.00  0.00    +0.000 OA
ATOM      3  N   UNL     1       5.453   6.546  18.235  0.00  0.00    +0.000 N 
ATOM      4  H   UNL     1       4.681   7.011  17.753  0.00  0.00    +0.000 HD
ENDROOT
BRANCH   1   8
ATOM      5  C   UNL     1       1.151   7.428  21.133  0.00  0.00    +0.000 C 
ATOM      6  C   UNL     1       1.791   6.246  20.471  0.00  0.00    +0.000 A 
ATOM      7  C   UNL     1       3.102   6.299  20.020  0.00  0.00    +0.000 A 
ATOM      8  C   UNL     1       3.703   5.199  19.373  0.00  0.00    +0.000 A 
ATOM      9  C   UNL     1       3.008   4.000  19.175  0.00  0.00    +0.000 A 
ATOM     10  N   UNL     1       3.556   2.923  18.547  0.00  0.00    +0.000 NA
ATOM     11  C   UNL     1       2.826   1.795  18.442  0.00  0.00    +0.000 A 
ATOM     12  C   UNL     1       1.538   1.658  18.906  0.00  0.00    +0.000 A 
ATOM     13  C   UNL     1       0.961   2.754  19.533  0.00  0.00    +0.000 A 
ATOM     14  C   UNL     1       1.682   3.941  19.675  0.00  0.00    +0.000 A 
ATOM     15  C   UNL     1       1.091   5.051  20.311  0.00  0.00    +0.000 A 
ENDBRANCH   1   8
BRANCH   3  16
ATOM     16  C   UNL     1       6.754   6.550  17.611  0.00  0.00    +0.000 C 
ATOM     17  C   UNL     1       7.890   6.658  18.627  0.00  0.00    +0.000 C 
ATOM     18  C   UNL     1       7.765   7.698  17.592  0.00  0.00    +0.000 C 
BRANCH  16  19
ATOM     19  C   UNL     1       6.776   5.786  16.287  0.00  0.00    +0.000 A 
ATOM     20  N   UNL     1       5.957   6.045  15.286  0.00  0.00    +0.000 NA
ATOM     21  N   UNL     1       6.385   5.272  14.235  0.00  0.00    +0.000 NA
ATOM     22  N   UNL     1       7.417   4.520  14.587  0.00  0.00    +0.000 NA
ATOM     23  N   UNL     1       7.648   4.827  15.873  0.00  0.00    +0.000 N 
ATOM     24  H   UNL     1       8.383   4.357  16.379  0.00  0.00    +0.000 HD
ENDBRANCH  16  19
ENDBRANCH   3  16
TORSDOF 3
ENDMDL
MODEL 4
REMARK VINA RESULT:      -7.9      1.101      1.362
REMARK  Name = 
REMARK  4 active torsions:
REMARK  status: ('A' for Active; 'I' for Inactive)
REMARK    1  A    between atoms: C_1  and  C_2
REMARK    2  A    between atoms: C_4  and  C_5
REMARK    3  A    between atoms: N_7  and  C_8
REMARK    4  A    between atoms: C_8  and  C_9
REMARK                            x       y       z     vdW  Elec       q    Type
REMARK                         _______ _______ _______ _____ _____    ______ ____
ROOT
ATOM      1  C   UNL     1       5.028   5.502  18.896  0.00  0.00    +0.000 C 
ATOM      2  O   UNL     1       5.924   5.446  19.742  0.00  0.00    +0.000 OA
ATOM      3  N   UNL     1       5.289   5.796  17.560  0.00  0.00    +0.000 N 
ATOM      4  H   UNL     1       4.568   5.501  16.898  0.00  0.00    +0.000 HD
ENDROOT
BRANCH   1   8
ATOM      5  C   UNL     1       1.059   7.410  21.169  0.00  0.00    +0.000 C 
ATOM      6  C   UNL     1       1.713   6.254  20.475  0.00  0.00    +0.000 A 
ATOM      7  C   UNL     1       3.018   6.341  20.012  0.00  0.00    +0.000 A 
ATOM      8  C   UNL     1       3.631   5.267  19.334  0.00  0.00    +0.000 A 
ATOM      9  C   UNL     1       2.956   4.060  19.117  0.00  0.00    +0.000 A 
ATOM     10  N   UNL     1       3.516   3.007  18.459  0.00  0.00    +0.000 NA
ATOM     11  C   UNL     1       2.806   1.868  18.337  0.00  0.00    +0.000 A 
ATOM     12  C   UNL     1       1.526   1.698  18.812  0.00  0.00    +0.000 A 
ATOM     13  C   UNL     1       0.936   2.769  19.469  0.00  0.00    +0.000 A 
ATOM     14  C   UNL     1       1.637   3.965  19.629  0.00  0.00    +0.000 A 
ATOM     15  C   UNL     1       1.033   5.050  20.296  0.00  0.00    +0.000 A 
ENDBRANCH   1   8
BRANCH   3  16
ATOM     16  C   UNL     1       6.669   5.737  17.145  0.00  0.00    +0.000 C 
ATOM     17  C   UNL     1       6.855   4.962  15.842  0.00  0.00    +0.000 C 
ATOM     18  C   UNL     1       7.551   4.491  17.051  0.00  0.00    +0.000 C 
BRANCH  16  19
ATOM     19  C   UNL     1       7.481   6.942  17.621  0.00  0.00    +0.000 A 
ATOM     20  N   UNL     1       7.440   8.122  17.033  0.00  0.00    +0.000 NA
ATOM     21  N   UNL     1       8.165   8.971  17.832  0.00  0.00    +0.000 NA
ATOM     22  N   UNL     1       8.679   8.324  18.868  0.00  0.00    +0.000 NA
ATOM     23  N   UNL     1       8.267   7.055  18.725  0.00  0.00    +0.000 N 
ATOM     24  H   UNL     1       8.557   6.354  19.390  0.00  0.00    +0.000 HD
ENDBRANCH  16  19
ENDBRANCH   3  16
TORSDOF 3
ENDMDL
MODEL 5
REMARK VINA RESULT:      -7.2      0.836      1.260
REMARK  Name = 
REMARK  4 active torsions:
REMARK  status: ('A' for Active; 'I' for Inactive)
REMARK    1  A    between atoms: C_1  and  C_2
REMARK    2  A    between atoms: C_4  and  C_5
REMARK    3  A    between atoms: N_7  and  C_8
REMARK    4  A    between atoms: C_8  and  C_9
REMARK                            x       y       z     vdW  Elec       q    Type
REMARK                         _______ _______ _______ _____ _____    ______ ____
ROOT
ATOM      1  C   UNL     1       4.056   5.762  17.739  0.00  0.00    +0.000 C 
ATOM      2  O   UNL     1       4.509   6.899  17.586  0.00  0.00    +0.000 OA
ATOM      3  N   UNL     1       4.551   4.667  17.035  0.00  0.00    +0.000 N 
ATOM      4  H   UNL     1       4.357   3.755  17.453  0.00  0.00    +0.000 HD
ENDROOT
BRANCH   1   8
ATOM      5  C   UNL     1       1.202   7.878  21.195  0.00  0.00    +0.000 C 
ATOM      6  C   UNL     1       1.570   6.665  20.395  0.00  0.00    +0.000 A 
ATOM      7  C   UNL     1       2.600   6.704  19.466  0.00  0.00    +0.000 A 
ATOM      8  C   UNL     1       2.935   5.574  18.691  0.00  0.00    +0.000 A 
ATOM      9  C   UNL     1       2.255   4.360  18.839  0.00  0.00    +0.000 A 
ATOM     10  N   UNL     1       2.548   3.253  18.101  0.00  0.00    +0.000 NA
ATOM     11  C   UNL     1       1.869   2.114  18.345  0.00  0.00    +0.000 A 
ATOM     12  C   UNL     1       0.869   1.993  19.281  0.00  0.00    +0.000 A 
ATOM     13  C   UNL     1       0.548   3.118  20.029  0.00  0.00    +0.000 A 
ATOM     14  C   UNL     1       1.230   4.317  19.819  0.00  0.00    +0.000 A 
ATOM     15  C   UNL     1       0.901   5.457  20.580  0.00  0.00    +0.000 A 
ENDBRANCH   1   8
BRANCH   3  16
ATOM     16  C   UNL     1       5.806   4.856  16.349  0.00  0.00    +0.000 C 
ATOM     17  C   UNL     1       5.620   5.357  14.918  0.00  0.00    +0.000 C 
ATOM     18  C   UNL     1       6.319   4.080  15.135  0.00  0.00    +0.000 C 
BRANCH  16  19
ATOM     19  C   UNL     1       6.953   5.199  17.300  0.00  0.00    +0.000 A 
ATOM     20  N   UNL     1       7.542   6.379  17.330  0.00  0.00    +0.000 NA
ATOM     21  N   UNL     1       8.396   6.350  18.404  0.00  0.00    +0.000 NA
ATOM     22  N   UNL     1       8.369   5.167  19.001  0.00  0.00    +0.000 NA
ATOM     23  N   UNL     1       7.482   4.444  18.300  0.00  0.00    +0.000 N 
ATOM     24  H   UNL     1       7.305   3.483  18.551  0.00  0.00    +0.000 HD
ENDBRANCH  16  19
ENDBRANCH   3  16
TORSDOF 3
ENDMDL
MODEL 6
REMARK VINA RESULT:      -7.0      3.019      4.229
REMARK  Name = 
REMARK  4 active torsions:
REMARK  status: ('A' for Active; 'I' for Inactive)
REMARK    1  A    between atoms: C_1  and  C_2
REMARK    2  A    between atoms: C_4  and  C_5
REMARK    3  A    between atoms: N_7  and  C_8
REMARK    4  A    between atoms: C_8  and  C_9
REMARK                            x       y       z     vdW  Elec       q    Type
REMARK                         _______ _______ _______ _____ _____    ______ ____
ROOT
ATOM      1  C   UNL     1       5.615   4.768  15.280  0.00  0.00    +0.000 C 
ATOM      2  O   UNL     1       5.440   5.855  14.724  0.00  0.00    +0.000 OA
ATOM      3  N   UNL     1       5.856   3.599  14.563  0.00  0.00    +0.000 N 
ATOM      4  H   UNL     1       6.304   2.847  15.090  0.00  0.00    +0.000 HD
ENDROOT
BRANCH   1   8
ATOM      5  C   UNL     1       7.879   5.876  19.548  0.00  0.00    +0.000 C 
ATOM      6  C   UNL     1       6.711   5.273  18.829  0.00  0.00    +0.000 A 
ATOM      7  C   UNL     1       6.650   5.257  17.443  0.00  0.00    +0.000 A 
ATOM      8  C   UNL     1       5.541   4.716  16.761  0.00  0.00    +0.000 A 
ATOM      9  C   UNL     1       4.463   4.152  17.452  0.00  0.00    +0.000 A 
ATOM     10  N   UNL     1       3.374   3.627  16.824  0.00  0.00    +0.000 NA
ATOM     11  C   UNL     1       2.404   3.066  17.572  0.00  0.00    +0.000 A 
ATOM     12  C   UNL     1       2.420   3.006  18.946  0.00  0.00    +0.000 A 
ATOM     13  C   UNL     1       3.516   3.552  19.601  0.00  0.00    +0.000 A 
ATOM     14  C   UNL     1       4.551   4.136  18.868  0.00  0.00    +0.000 A 
ATOM     15  C   UNL     1       5.661   4.689  19.537  0.00  0.00    +0.000 A 
ENDBRANCH   1   8
BRANCH   3  16
ATOM     16  C   UNL     1       6.193   3.757  13.169  0.00  0.00    +0.000 C 
ATOM     17  C   UNL     1       4.997   3.521  12.248  0.00  0.00    +0.000 C 
ATOM     18  C   UNL     1       6.191   2.672  12.091  0.00  0.00    +0.000 C 
BRANCH  16  19
ATOM     19  C   UNL     1       7.342   4.741  12.948  0.00  0.00    +0.000 A 
ATOM     20  N   UNL     1       7.501   5.433  11.836  0.00  0.00    +0.000 NA
ATOM     21  N   UNL     1       8.531   6.308  12.077  0.00  0.00    +0.000 NA
ATOM     22  N   UNL     1       9.028   6.134  13.293  0.00  0.00    +0.000 NA
ATOM     23  N   UNL     1       8.298   5.144  13.829  0.00  0.00    +0.000 N 
ATOM     24  H   UNL     1       8.507   4.809  14.757  0.00  0.00    +0.000 HD
ENDBRANCH  16  19
ENDBRANCH   3  16
TORSDOF 3
ENDMDL
MODEL 7
REMARK VINA RESULT:      -6.8      3.917      5.862
REMARK  Name = 
REMARK  4 active torsions:
REMARK  status: ('A' for Active; 'I' for Inactive)
REMARK    1  A    between atoms: C_1  and  C_2
REMARK    2  A    between atoms: C_4  and  C_5
REMARK    3  A    between atoms: N_7  and  C_8
REMARK    4  A    between atoms: C_8  and  C_9
REMARK                            x       y       z     vdW  Elec       q    Type
REMARK                         _______ _______ _______ _____ _____    ______ ____
ROOT
ATOM      1  C   UNL     1       2.164   8.548  18.222  0.00  0.00    +0.000 C 
ATOM      2  O   UNL     1       1.949   9.134  17.158  0.00  0.00    +0.000 OA
ATOM      3  N   UNL     1       1.749   9.061  19.447  0.00  0.00    +0.000 N 
ATOM      4  H   UNL     1       1.673   8.379  20.204  0.00  0.00    +0.000 HD
ENDROOT
BRANCH   1   8
ATOM      5  C   UNL     1       5.612   5.874  15.870  0.00  0.00    +0.000 C 
ATOM      6  C   UNL     1       4.604   5.990  16.973  0.00  0.00    +0.000 A 
ATOM      7  C   UNL     1       3.840   7.138  17.128  0.00  0.00    +0.000 A 
ATOM      8  C   UNL     1       2.909   7.266  18.180  0.00  0.00    +0.000 A 
ATOM      9  C   UNL     1       2.702   6.233  19.101  0.00  0.00    +0.000 A 
ATOM     10  N   UNL     1       1.817   6.326  20.132  0.00  0.00    +0.000 NA
ATOM     11  C   UNL     1       1.652   5.262  20.942  0.00  0.00    +0.000 A 
ATOM     12  C   UNL     1       2.342   4.079  20.819  0.00  0.00    +0.000 A 
ATOM     13  C   UNL     1       3.261   3.975  19.783  0.00  0.00    +0.000 A 
ATOM     14  C   UNL     1       3.458   5.047  18.911  0.00  0.00    +0.000 A 
ATOM     15  C   UNL     1       4.392   4.937  17.861  0.00  0.00    +0.000 A 
ENDBRANCH   1   8
BRANCH   3  16
ATOM     16  C   UNL     1       0.799  10.146  19.402  0.00  0.00    +0.000 C 
ATOM     17  C   UNL     1      -0.429   9.885  20.272  0.00  0.00    +0.000 C 
ATOM     18  C   UNL     1      -0.618  10.109  18.828  0.00  0.00    +0.000 C 
BRANCH  16  19
ATOM     19  C   UNL     1       1.461  11.497  19.129  0.00  0.00    +0.000 A 
ATOM     20  N   UNL     1       1.626  12.424  20.053  0.00  0.00    +0.000 NA
ATOM     21  N   UNL     1       2.387  13.408  19.472  0.00  0.00    +0.000 NA
ATOM     22  N   UNL     1       2.652  13.119  18.207  0.00  0.00    +0.000 NA
ATOM     23  N   UNL     1       2.058  11.936  17.988  0.00  0.00    +0.000 N 
ATOM     24  H   UNL     1       2.098  11.514  17.073  0.00  0.00    +0.000 HD
ENDBRANCH  16  19
ENDBRANCH   3  16
TORSDOF 3
ENDMDL
MODEL 8
REMARK VINA RESULT:      -6.8      2.112      2.633
REMARK  Name = 
REMARK  4 active torsions:
REMARK  status: ('A' for Active; 'I' for Inactive)
REMARK    1  A    between atoms: C_1  and  C_2
REMARK    2  A    between atoms: C_4  and  C_5
REMARK    3  A    between atoms: N_7  and  C_8
REMARK    4  A    between atoms: C_8  and  C_9
REMARK                            x       y       z     vdW  Elec       q    Type
REMARK                         _______ _______ _______ _____ _____    ______ ____
ROOT
ATOM      1  C   UNL     1       4.552   6.442  17.129  0.00  0.00    +0.000 C 
ATOM      2  O   UNL     1       5.560   7.143  17.003  0.00  0.00    +0.000 OA
ATOM      3  N   UNL     1       4.409   5.225  16.470  0.00  0.00    +0.000 N 
ATOM      4  H   UNL     1       3.726   4.583  16.878  0.00  0.00    +0.000 HD
ENDROOT
BRANCH   1   8
ATOM      5  C   UNL     1       1.444  10.179  18.098  0.00  0.00    +0.000 C 
ATOM      6  C   UNL     1       1.961   8.814  18.438  0.00  0.00    +0.000 A 
ATOM      7  C   UNL     1       2.983   8.231  17.702  0.00  0.00    +0.000 A 
ATOM      8  C   UNL     1       3.457   6.936  17.999  0.00  0.00    +0.000 A 
ATOM      9  C   UNL     1       2.930   6.192  19.060  0.00  0.00    +0.000 A 
ATOM     10  N   UNL     1       3.360   4.936  19.368  0.00  0.00    +0.000 NA
ATOM     11  C   UNL     1       2.824   4.313  20.437  0.00  0.00    +0.000 A 
ATOM     12  C   UNL     1       1.841   4.850  21.235  0.00  0.00    +0.000 A 
ATOM     13  C   UNL     1       1.381   6.122  20.923  0.00  0.00    +0.000 A 
ATOM     14  C   UNL     1       1.913   6.811  19.831  0.00  0.00    +0.000 A 
ATOM     15  C   UNL     1       1.443   8.102  19.518  0.00  0.00    +0.000 A 
ENDBRANCH   1   8
BRANCH   3  16
ATOM     16  C   UNL     1       5.601   4.671  15.874  0.00  0.00    +0.000 C 
ATOM     17  C   UNL     1       5.768   5.079  14.412  0.00  0.00    +0.000 C 
ATOM     18  C   UNL     1       5.676   3.647  14.741  0.00  0.00    +0.000 C 
BRANCH  16  19
ATOM     19  C   UNL     1       6.715   4.434  16.895  0.00  0.00    +0.000 A 
ATOM     20  N   UNL     1       7.987   4.314  16.566  0.00  0.00    +0.000 NA
ATOM     21  N   UNL     1       8.683   4.274  17.748  0.00  0.00    +0.000 NA
ATOM     22  N   UNL     1       7.861   4.326  18.786  0.00  0.00    +0.000 NA
ATOM     23  N   UNL     1       6.632   4.407  18.253  0.00  0.00    +0.000 N 
ATOM     24  H   UNL     1       5.823   4.432  18.854  0.00  0.00    +0.000 HD
ENDBRANCH  16  19
ENDBRANCH   3  16
TORSDOF 3
ENDMDL
MODEL 9
REMARK VINA RESULT:      -6.7      9.022     11.670
REMARK  Name = 
REMARK  4 active torsions:
REMARK  status: ('A' for Active; 'I' for Inactive)
REMARK    1  A    between atoms: C_1  and  C_2
REMARK    2  A    between atoms: C_4  and  C_5
REMARK    3  A    between atoms: N_7  and  C_8
REMARK    4  A    between atoms: C_8  and  C_9
REMARK                            x       y       z     vdW  Elec       q    Type
REMARK                         _______ _______ _______ _____ _____    ______ ____
ROOT
ATOM      1  C   UNL     1      -4.458  12.275  19.348  0.00  0.00    +0.000 C 
ATOM      2  O   UNL     1      -5.618  11.861  19.411  0.00  0.00    +0.000 OA
ATOM      3  N   UNL     1      -4.034  13.402  20.047  0.00  0.00    +0.000 N 
ATOM      4  H   UNL     1      -3.026  13.470  20.198  0.00  0.00    +0.000 HD
ENDROOT
BRANCH   1   8
ATOM      5  C   UNL     1      -3.714  10.148  14.934  0.00  0.00    +0.000 C 
ATOM      6  C   UNL     1      -3.197  10.506  16.294  0.00  0.00    +0.000 A 
ATOM      7  C   UNL     1      -3.989  11.187  17.206  0.00  0.00    +0.000 A 
ATOM      8  C   UNL     1      -3.500  11.551  18.478  0.00  0.00    +0.000 A 
ATOM      9  C   UNL     1      -2.200  11.223  18.882  0.00  0.00    +0.000 A 
ATOM     10  N   UNL     1      -1.695  11.565  20.099  0.00  0.00    +0.000 NA
ATOM     11  C   UNL     1      -0.447  11.167  20.417  0.00  0.00    +0.000 A 
ATOM     12  C   UNL     1       0.376  10.451  19.580  0.00  0.00    +0.000 A 
ATOM     13  C   UNL     1      -0.120  10.110  18.328  0.00  0.00    +0.000 A 
ATOM     14  C   UNL     1      -1.411  10.491  17.958  0.00  0.00    +0.000 A 
ATOM     15  C   UNL     1      -1.909  10.143  16.687  0.00  0.00    +0.000 A 
ENDBRANCH   1   8
BRANCH   3  16
ATOM     16  C   UNL     1      -4.917  13.889  21.079  0.00  0.00    +0.000 C 
ATOM     17  C   UNL     1      -6.124  14.634  20.512  0.00  0.00    +0.000 C 
ATOM     18  C   UNL     1      -5.216  15.350  21.424  0.00  0.00    +0.000 C 
BRANCH  16  19
ATOM     19  C   UNL     1      -4.880  13.029  22.342  0.00  0.00    +0.000 A 
ATOM     20  N   UNL     1      -3.769  12.528  22.845  0.00  0.00    +0.000 NA
ATOM     21  N   UNL     1      -4.117  11.961  24.046  0.00  0.00    +0.000 NA
ATOM     22  N   UNL     1      -5.419  12.072  24.264  0.00  0.00    +0.000 NA
ATOM     23  N   UNL     1      -5.897  12.721  23.192  0.00  0.00    +0.000 N 
ATOM     24  H   UNL     1      -6.886  12.904  23.113  0.00  0.00    +0.000 HD
ENDBRANCH  16  19
ENDBRANCH   3  16
TORSDOF 3
ENDMDL
