MODEL 1
REMARK VINA RESULT:      -9.0      0.000      0.000
REMARK  Name = 
REMARK  6 active torsions:
REMARK  status: ('A' for Active; 'I' for Inactive)
REMARK    1  A    between atoms: S_2  and  C_4
REMARK    2  A    between atoms: S_2  and  N_24
REMARK    3  A    between atoms: C_8  and  C_9
REMARK    4  A    between atoms: C_12  and  S_13
REMARK    5  A    between atoms: S_13  and  C_14
REMARK    6  A    between atoms: C_14  and  C_15
REMARK                            x       y       z     vdW  Elec       q    Type
REMARK                         _______ _______ _______ _____ _____    ______ ____
ROOT
ATOM      1  C   UNL     1       5.422   5.349  16.933  0.00  0.00    +0.000 A 
ATOM      2  C   UNL     1       4.809   4.106  17.116  0.00  0.00    +0.000 A 
ATOM      3  C   UNL     1       3.526   4.053  17.652  0.00  0.00    +0.000 A 
ATOM      4  C   UNL     1       2.853   5.237  17.972  0.00  0.00    +0.000 A 
ATOM      5  C   UNL     1       3.437   6.495  17.736  0.00  0.00    +0.000 A 
ATOM      6  C   UNL     1       4.736   6.539  17.211  0.00  0.00    +0.000 A 
ENDROOT
BRANCH   5   7
ATOM      7  C   UNL     1       2.686   7.707  18.046  0.00  0.00    +0.000 A 
ATOM      8  N   UNL     1       2.509   8.791  17.319  0.00  0.00    +0.000 NA
ATOM      9  N   UNL     1       1.710   9.633  18.063  0.00  0.00    +0.000 NA
ATOM     10  C   UNL     1       1.461   9.018  19.201  0.00  0.00    +0.000 A 
ATOM     11  O   UNL     1       2.054   7.781  19.263  0.00  0.00    +0.000 OA
BRANCH  10  12
ATOM     12  S   UNL     1       0.449   9.692  20.441  0.00  0.00    +0.000 S 
BRANCH  12  13
ATOM     13  C   UNL     1       0.003  11.289  19.713  0.00  0.00    +0.000 C 
BRANCH  13  14
ATOM     14  C   UNL     1      -1.409  11.272  19.171  0.00  0.00    +0.000 A 
ATOM     15  C   UNL     1      -2.361  12.195  19.632  0.00  0.00    +0.000 A 
ATOM     16  C   UNL     1      -3.671  12.172  19.142  0.00  0.00    +0.000 A 
ATOM     17  C   UNL     1      -4.040  11.224  18.193  0.00  0.00    +0.000 A 
ATOM     18 CL   UNL     1      -5.652  11.198  17.590  0.00  0.00    +0.000 Cl
ATOM     19  C   UNL     1      -3.111  10.293  17.731  0.00  0.00    +0.000 A 
ATOM     20  C   UNL     1      -1.801  10.315  18.220  0.00  0.00    +0.000 A 
ENDBRANCH  13  14
ENDBRANCH  12  13
ENDBRANCH  10  12
ENDBRANCH   5   7
BRANCH   1  22
ATOM     21  O   UNL     1       7.524   6.795  16.388  0.00  0.00    +0.000 OA
ATOM     22  S   UNL     1       7.085   5.421  16.286  0.00  0.00    +0.000 S 
ATOM     23  O   UNL     1       7.830   4.346  16.909  0.00  0.00    +0.000 OA
BRANCH  22  24
ATOM     24  N   UNL     1       6.873   5.040  14.633  0.00  0.00    +0.000 NA
ATOM     25  C   UNL     1       8.017   5.347  13.739  0.00  0.00    +0.000 C 
ATOM     26  C   UNL     1       7.577   5.290  12.278  0.00  0.00    +0.000 C 
ATOM     27  C   UNL     1       6.929   3.950  11.944  0.00  0.00    +0.000 C 
ATOM     28  C   UNL     1       5.772   3.677  12.897  0.00  0.00    +0.000 C 
ATOM     29  C   UNL     1       6.237   3.728  14.348  0.00  0.00    +0.000 C 
ENDBRANCH  22  24
ENDBRANCH   1  22
TORSDOF 6
ENDMDL
MODEL 2
REMARK VINA RESULT:      -8.5      0.950      1.305
REMARK  Name = 
REMARK  6 active torsions:
REMARK  status: ('A' for Active; 'I' for Inactive)
REMARK    1  A    between atoms: S_2  and  C_4
REMARK    2  A    between atoms: S_2  and  N_24
REMARK    3  A    between atoms: C_8  and  C_9
REMARK    4  A    between atoms: C_12  and  S_13
REMARK    5  A    between atoms: S_13  and  C_14
REMARK    6  A    between atoms: C_14  and  C_15
REMARK                            x       y       z     vdW  Elec       q    Type
REMARK                         _______ _______ _______ _____ _____    ______ ____
ROOT
ATOM      1  C   UNL     1       5.536   5.089  16.956  0.00  0.00    +0.000 A 
ATOM      2  C   UNL     1       4.963   3.814  16.980  0.00  0.00    +0.000 A 
ATOM      3  C   UNL     1       3.708   3.642  17.555  0.00  0.00    +0.000 A 
ATOM      4  C   UNL     1       3.021   4.745  18.074  0.00  0.00    +0.000 A 
ATOM      5  C   UNL     1       3.561   6.041  18.002  0.00  0.00    +0.000 A 
ATOM      6  C   UNL     1       4.833   6.203  17.435  0.00  0.00    +0.000 A 
ENDROOT
BRANCH   5   7
ATOM      7  C   UNL     1       2.795   7.171  18.517  0.00  0.00    +0.000 A 
ATOM      8  N   UNL     1       2.138   7.289  19.653  0.00  0.00    +0.000 NA
ATOM      9  N   UNL     1       1.598   8.557  19.660  0.00  0.00    +0.000 NA
ATOM     10  C   UNL     1       1.945   9.129  18.525  0.00  0.00    +0.000 A 
ATOM     11  O   UNL     1       2.711   8.301  17.741  0.00  0.00    +0.000 OA
BRANCH  10  12
ATOM     12  S   UNL     1       1.519  10.761  18.116  0.00  0.00    +0.000 S 
BRANCH  12  13
ATOM     13  C   UNL     1       0.357  11.173  19.442  0.00  0.00    +0.000 C 
BRANCH  13  14
ATOM     14  C   UNL     1      -1.073  11.152  18.948  0.00  0.00    +0.000 A 
ATOM     15  C   UNL     1      -1.454  10.294  17.904  0.00  0.00    +0.000 A 
ATOM     16  C   UNL     1      -2.772  10.283  17.436  0.00  0.00    +0.000 A 
ATOM     17  C   UNL     1      -3.717  11.133  18.004  0.00  0.00    +0.000 A 
ATOM     18 CL   UNL     1      -5.339  11.116  17.428  0.00  0.00    +0.000 Cl
ATOM     19  C   UNL     1      -3.355  11.998  19.034  0.00  0.00    +0.000 A 
ATOM     20  C   UNL     1      -2.037  12.010  19.503  0.00  0.00    +0.000 A 
ENDBRANCH  13  14
ENDBRANCH  12  13
ENDBRANCH  10  12
ENDBRANCH   5   7
BRANCH   1  22
ATOM     21  O   UNL     1       7.508   6.705  16.404  0.00  0.00    +0.000 OA
ATOM     22  S   UNL     1       7.165   5.307  16.259  0.00  0.00    +0.000 S 
ATOM     23  O   UNL     1       8.007   4.266  16.811  0.00  0.00    +0.000 OA
BRANCH  22  24
ATOM     24  N   UNL     1       6.921   4.978  14.599  0.00  0.00    +0.000 NA
ATOM     25  C   UNL     1       8.040   5.333  13.691  0.00  0.00    +0.000 C 
ATOM     26  C   UNL     1       7.568   5.317  12.239  0.00  0.00    +0.000 C 
ATOM     27  C   UNL     1       6.934   3.978  11.875  0.00  0.00    +0.000 C 
ATOM     28  C   UNL     1       5.803   3.654  12.843  0.00  0.00    +0.000 C 
ATOM     29  C   UNL     1       6.300   3.665  14.285  0.00  0.00    +0.000 C 
ENDBRANCH  22  24
ENDBRANCH   1  22
TORSDOF 6
ENDMDL
MODEL 3
REMARK VINA RESULT:      -8.4      2.788      3.606
REMARK  Name = 
REMARK  6 active torsions:
REMARK  status: ('A' for Active; 'I' for Inactive)
REMARK    1  A    between atoms: S_2  and  C_4
REMARK    2  A    between atoms: S_2  and  N_24
REMARK    3  A    between atoms: C_8  and  C_9
REMARK    4  A    between atoms: C_12  and  S_13
REMARK    5  A    between atoms: S_13  and  C_14
REMARK    6  A    between atoms: C_14  and  C_15
REMARK                            x       y       z     vdW  Elec       q    Type
REMARK                         _______ _______ _______ _____ _____    ______ ____
ROOT
ATOM      1  C   UNL     1       2.740   4.759  18.799  0.00  0.00    +0.000 A 
ATOM      2  C   UNL     1       2.298   4.415  20.080  0.00  0.00    +0.000 A 
ATOM      3  C   UNL     1       1.800   5.407  20.918  0.00  0.00    +0.000 A 
ATOM      4  C   UNL     1       1.716   6.727  20.464  0.00  0.00    +0.000 A 
ATOM      5  C   UNL     1       2.101   7.075  19.157  0.00  0.00    +0.000 A 
ATOM      6  C   UNL     1       2.617   6.073  18.324  0.00  0.00    +0.000 A 
ENDROOT
BRANCH   5   7
ATOM      7  C   UNL     1       1.960   8.457  18.708  0.00  0.00    +0.000 A 
ATOM      8  N   UNL     1       2.302   9.003  17.560  0.00  0.00    +0.000 NA
ATOM      9  N   UNL     1       1.942  10.331  17.637  0.00  0.00    +0.000 NA
ATOM     10  C   UNL     1       1.416  10.517  18.831  0.00  0.00    +0.000 A 
ATOM     11  O   UNL     1       1.394   9.361  19.573  0.00  0.00    +0.000 OA
BRANCH  10  12
ATOM     12  S   UNL     1       0.776  12.042  19.360  0.00  0.00    +0.000 S 
BRANCH  12  13
ATOM     13  C   UNL     1      -1.005  11.766  19.183  0.00  0.00    +0.000 C 
BRANCH  13  14
ATOM     14  C   UNL     1      -1.725  11.959  20.499  0.00  0.00    +0.000 A 
ATOM     15  C   UNL     1      -2.970  12.607  20.542  0.00  0.00    +0.000 A 
ATOM     16  C   UNL     1      -3.631  12.799  21.759  0.00  0.00    +0.000 A 
ATOM     17  C   UNL     1      -3.051  12.349  22.942  0.00  0.00    +0.000 A 
ATOM     18 CL   UNL     1      -3.868  12.584  24.439  0.00  0.00    +0.000 Cl
ATOM     19  C   UNL     1      -1.813  11.712  22.920  0.00  0.00    +0.000 A 
ATOM     20  C   UNL     1      -1.150  11.520  21.703  0.00  0.00    +0.000 A 
ENDBRANCH  13  14
ENDBRANCH  12  13
ENDBRANCH  10  12
ENDBRANCH   5   7
BRANCH   1  22
ATOM     21  O   UNL     1       3.951   2.458  18.591  0.00  0.00    +0.000 OA
ATOM     22  S   UNL     1       3.421   3.498  17.736  0.00  0.00    +0.000 S 
ATOM     23  O   UNL     1       2.423   3.205  16.729  0.00  0.00    +0.000 OA
BRANCH  22  24
ATOM     24  N   UNL     1       4.730   4.297  16.979  0.00  0.00    +0.000 NA
ATOM     25  C   UNL     1       5.931   4.526  17.820  0.00  0.00    +0.000 C 
ATOM     26  C   UNL     1       6.861   5.535  17.150  0.00  0.00    +0.000 C 
ATOM     27  C   UNL     1       7.225   5.100  15.733  0.00  0.00    +0.000 C 
ATOM     28  C   UNL     1       5.960   4.865  14.917  0.00  0.00    +0.000 C 
ATOM     29  C   UNL     1       5.052   3.847  15.600  0.00  0.00    +0.000 C 
ENDBRANCH  22  24
ENDBRANCH   1  22
TORSDOF 6
ENDMDL
MODEL 4
REMARK VINA RESULT:      -8.4      2.881      3.714
REMARK  Name = 
REMARK  6 active torsions:
REMARK  status: ('A' for Active; 'I' for Inactive)
REMARK    1  A    between atoms: S_2  and  C_4
REMARK    2  A    between atoms: S_2  and  N_24
REMARK    3  A    between atoms: C_8  and  C_9
REMARK    4  A    between atoms: C_12  and  S_13
REMARK    5  A    between atoms: S_13  and  C_14
REMARK    6  A    between atoms: C_14  and  C_15
REMARK                            x       y       z     vdW  Elec       q    Type
REMARK                         _______ _______ _______ _____ _____    ______ ____
ROOT
ATOM      1  C   UNL     1       3.371   4.727  19.355  0.00  0.00    +0.000 A 
ATOM      2  C   UNL     1       2.596   4.315  20.443  0.00  0.00    +0.000 A 
ATOM      3  C   UNL     1       1.694   5.207  21.014  0.00  0.00    +0.000 A 
ATOM      4  C   UNL     1       1.549   6.491  20.478  0.00  0.00    +0.000 A 
ATOM      5  C   UNL     1       2.279   6.897  19.347  0.00  0.00    +0.000 A 
ATOM      6  C   UNL     1       3.197   5.997  18.787  0.00  0.00    +0.000 A 
ENDROOT
BRANCH   5   7
ATOM      7  C   UNL     1       2.068   8.231  18.793  0.00  0.00    +0.000 A 
ATOM      8  N   UNL     1       2.399   8.708  17.611  0.00  0.00    +0.000 NA
ATOM      9  N   UNL     1       1.964  10.016  17.584  0.00  0.00    +0.000 NA
ATOM     10  C   UNL     1       1.409  10.260  18.754  0.00  0.00    +0.000 A 
ATOM     11  O   UNL     1       1.440   9.164  19.581  0.00  0.00    +0.000 OA
BRANCH  10  12
ATOM     12  S   UNL     1       0.678  11.782  19.158  0.00  0.00    +0.000 S 
BRANCH  12  13
ATOM     13  C   UNL     1       0.410  11.590  20.939  0.00  0.00    +0.000 C 
BRANCH  13  14
ATOM     14  C   UNL     1      -1.000  11.977  21.329  0.00  0.00    +0.000 A 
ATOM     15  C   UNL     1      -1.389  11.990  22.677  0.00  0.00    +0.000 A 
ATOM     16  C   UNL     1      -2.695  12.334  23.039  0.00  0.00    +0.000 A 
ATOM     17  C   UNL     1      -3.624  12.662  22.055  0.00  0.00    +0.000 A 
ATOM     18 CL   UNL     1      -5.231  13.088  22.502  0.00  0.00    +0.000 Cl
ATOM     19  C   UNL     1      -3.259  12.645  20.710  0.00  0.00    +0.000 A 
ATOM     20  C   UNL     1      -1.952  12.301  20.348  0.00  0.00    +0.000 A 
ENDBRANCH  13  14
ENDBRANCH  12  13
ENDBRANCH  10  12
ENDBRANCH   5   7
BRANCH   1  22
ATOM     21  O   UNL     1       5.023   2.741  19.714  0.00  0.00    +0.000 OA
ATOM     22  S   UNL     1       4.561   3.600  18.647  0.00  0.00    +0.000 S 
ATOM     23  O   UNL     1       3.965   3.052  17.446  0.00  0.00    +0.000 OA
BRANCH  22  24
ATOM     24  N   UNL     1       5.843   4.633  18.187  0.00  0.00    +0.000 NA
ATOM     25  C   UNL     1       5.684   5.335  16.889  0.00  0.00    +0.000 C 
ATOM     26  C   UNL     1       7.018   5.931  16.444  0.00  0.00    +0.000 C 
ATOM     27  C   UNL     1       7.609   6.836  17.519  0.00  0.00    +0.000 C 
ATOM     28  C   UNL     1       7.739   6.074  18.832  0.00  0.00    +0.000 C 
ATOM     29  C   UNL     1       6.394   5.499  19.262  0.00  0.00    +0.000 C 
ENDBRANCH  22  24
ENDBRANCH   1  22
TORSDOF 6
ENDMDL
MODEL 5
REMARK VINA RESULT:      -8.4      3.285      3.913
REMARK  Name = 
REMARK  6 active torsions:
REMARK  status: ('A' for Active; 'I' for Inactive)
REMARK    1  A    between atoms: S_2  and  C_4
REMARK    2  A    between atoms: S_2  and  N_24
REMARK    3  A    between atoms: C_8  and  C_9
REMARK    4  A    between atoms: C_12  and  S_13
REMARK    5  A    between atoms: S_13  and  C_14
REMARK    6  A    between atoms: C_14  and  C_15
REMARK                            x       y       z     vdW  Elec       q    Type
REMARK                         _______ _______ _______ _____ _____    ______ ____
ROOT
ATOM      1  C   UNL     1       2.829   4.374  18.786  0.00  0.00    +0.000 A 
ATOM      2  C   UNL     1       2.511   4.066  20.111  0.00  0.00    +0.000 A 
ATOM      3  C   UNL     1       2.085   5.081  20.963  0.00  0.00    +0.000 A 
ATOM      4  C   UNL     1       1.949   6.387  20.479  0.00  0.00    +0.000 A 
ATOM      5  C   UNL     1       2.209   6.697  19.132  0.00  0.00    +0.000 A 
ATOM      6  C   UNL     1       2.652   5.672  18.285  0.00  0.00    +0.000 A 
ENDROOT
BRANCH   5   7
ATOM      7  C   UNL     1       2.015   8.063  18.657  0.00  0.00    +0.000 A 
ATOM      8  N   UNL     1       2.373   8.611  17.515  0.00  0.00    +0.000 NA
ATOM      9  N   UNL     1       1.944   9.920  17.559  0.00  0.00    +0.000 NA
ATOM     10  C   UNL     1       1.365  10.095  18.730  0.00  0.00    +0.000 A 
ATOM     11  O   UNL     1       1.373   8.949  19.487  0.00  0.00    +0.000 OA
BRANCH  10  12
ATOM     12  S   UNL     1       0.630  11.592  19.211  0.00  0.00    +0.000 S 
BRANCH  12  13
ATOM     13  C   UNL     1       1.009  11.625  20.982  0.00  0.00    +0.000 C 
BRANCH  13  14
ATOM     14  C   UNL     1      -0.166  12.136  21.787  0.00  0.00    +0.000 A 
ATOM     15  C   UNL     1      -0.405  13.514  21.904  0.00  0.00    +0.000 A 
ATOM     16  C   UNL     1      -1.483  13.988  22.659  0.00  0.00    +0.000 A 
ATOM     17  C   UNL     1      -2.326  13.089  23.306  0.00  0.00    +0.000 A 
ATOM     18 CL   UNL     1      -3.653  13.675  24.233  0.00  0.00    +0.000 Cl
ATOM     19  C   UNL     1      -2.099  11.718  23.208  0.00  0.00    +0.000 A 
ATOM     20  C   UNL     1      -1.022  11.243  22.454  0.00  0.00    +0.000 A 
ENDBRANCH  13  14
ENDBRANCH  12  13
ENDBRANCH  10  12
ENDBRANCH   5   7
BRANCH   1  22
ATOM     21  O   UNL     1       3.669   1.919  18.520  0.00  0.00    +0.000 OA
ATOM     22  S   UNL     1       3.418   3.084  17.701  0.00  0.00    +0.000 S 
ATOM     23  O   UNL     1       2.511   3.029  16.574  0.00  0.00    +0.000 OA
BRANCH  22  24
ATOM     24  N   UNL     1       4.918   3.696  17.154  0.00  0.00    +0.000 NA
ATOM     25  C   UNL     1       4.914   4.336  15.815  0.00  0.00    +0.000 C 
ATOM     26  C   UNL     1       6.344   4.515  15.310  0.00  0.00    +0.000 C 
ATOM     27  C   UNL     1       7.196   5.286  16.314  0.00  0.00    +0.000 C 
ATOM     28  C   UNL     1       7.155   4.597  17.672  0.00  0.00    +0.000 C 
ATOM     29  C   UNL     1       5.720   4.439  18.161  0.00  0.00    +0.000 C 
ENDBRANCH  22  24
ENDBRANCH   1  22
TORSDOF 6
ENDMDL
MODEL 6
REMARK VINA RESULT:      -8.4      2.739      3.466
REMARK  Name = 
REMARK  6 active torsions:
REMARK  status: ('A' for Active; 'I' for Inactive)
REMARK    1  A    between atoms: S_2  and  C_4
REMARK    2  A    between atoms: S_2  and  N_24
REMARK    3  A    between atoms: C_8  and  C_9
REMARK    4  A    between atoms: C_12  and  S_13
REMARK    5  A    between atoms: S_13  and  C_14
REMARK    6  A    between atoms: C_14  and  C_15
REMARK                            x       y       z     vdW  Elec       q    Type
REMARK                         _______ _______ _______ _____ _____    ______ ____
ROOT
ATOM      1  C   UNL     1       2.824   4.624  18.725  0.00  0.00    +0.000 A 
ATOM      2  C   UNL     1       2.458   4.268  20.026  0.00  0.00    +0.000 A 
ATOM      3  C   UNL     1       1.986   5.249  20.893  0.00  0.00    +0.000 A 
ATOM      4  C   UNL     1       1.853   6.569  20.447  0.00  0.00    +0.000 A 
ATOM      5  C   UNL     1       2.161   6.926  19.122  0.00  0.00    +0.000 A 
ATOM      6  C   UNL     1       2.650   5.935  18.260  0.00  0.00    +0.000 A 
ENDROOT
BRANCH   5   7
ATOM      7  C   UNL     1       1.968   8.305  18.685  0.00  0.00    +0.000 A 
ATOM      8  N   UNL     1       2.356   8.893  17.572  0.00  0.00    +0.000 NA
ATOM      9  N   UNL     1       1.913  10.196  17.644  0.00  0.00    +0.000 NA
ATOM     10  C   UNL     1       1.296  10.327  18.801  0.00  0.00    +0.000 A 
ATOM     11  O   UNL     1       1.292   9.159  19.522  0.00  0.00    +0.000 OA
BRANCH  10  12
ATOM     12  S   UNL     1       0.532  11.802  19.306  0.00  0.00    +0.000 S 
BRANCH  12  13
ATOM     13  C   UNL     1       0.313  11.504  21.079  0.00  0.00    +0.000 C 
BRANCH  13  14
ATOM     14  C   UNL     1      -1.071  11.909  21.538  0.00  0.00    +0.000 A 
ATOM     15  C   UNL     1      -1.448  11.759  22.882  0.00  0.00    +0.000 A 
ATOM     16  C   UNL     1      -2.731  12.119  23.306  0.00  0.00    +0.000 A 
ATOM     17  C   UNL     1      -3.648  12.626  22.390  0.00  0.00    +0.000 A 
ATOM     18 CL   UNL     1      -5.226  13.071  22.914  0.00  0.00    +0.000 Cl
ATOM     19  C   UNL     1      -3.295  12.773  21.050  0.00  0.00    +0.000 A 
ATOM     20  C   UNL     1      -2.012  12.413  20.625  0.00  0.00    +0.000 A 
ENDBRANCH  13  14
ENDBRANCH  12  13
ENDBRANCH  10  12
ENDBRANCH   5   7
BRANCH   1  22
ATOM     21  O   UNL     1       4.012   2.318  18.446  0.00  0.00    +0.000 OA
ATOM     22  S   UNL     1       3.472   3.377  17.623  0.00  0.00    +0.000 S 
ATOM     23  O   UNL     1       2.449   3.112  16.633  0.00  0.00    +0.000 OA
BRANCH  22  24
ATOM     24  N   UNL     1       4.770   4.181  16.852  0.00  0.00    +0.000 NA
ATOM     25  C   UNL     1       5.940   4.502  17.707  0.00  0.00    +0.000 C 
ATOM     26  C   UNL     1       6.850   5.505  17.002  0.00  0.00    +0.000 C 
ATOM     27  C   UNL     1       7.265   5.004  15.623  0.00  0.00    +0.000 C 
ATOM     28  C   UNL     1       6.031   4.676  14.791  0.00  0.00    +0.000 C 
ATOM     29  C   UNL     1       5.144   3.666  15.510  0.00  0.00    +0.000 C 
ENDBRANCH  22  24
ENDBRANCH   1  22
TORSDOF 6
ENDMDL
MODEL 7
REMARK VINA RESULT:      -8.3      2.524      3.194
REMARK  Name = 
REMARK  6 active torsions:
REMARK  status: ('A' for Active; 'I' for Inactive)
REMARK    1  A    between atoms: S_2  and  C_4
REMARK    2  A    between atoms: S_2  and  N_24
REMARK    3  A    between atoms: C_8  and  C_9
REMARK    4  A    between atoms: C_12  and  S_13
REMARK    5  A    between atoms: S_13  and  C_14
REMARK    6  A    between atoms: C_14  and  C_15
REMARK                            x       y       z     vdW  Elec       q    Type
REMARK                         _______ _______ _______ _____ _____    ______ ____
ROOT
ATOM      1  C   UNL     1       4.222   4.864  17.049  0.00  0.00    +0.000 A 
ATOM      2  C   UNL     1       3.654   3.588  17.060  0.00  0.00    +0.000 A 
ATOM      3  C   UNL     1       2.600   3.319  17.928  0.00  0.00    +0.000 A 
ATOM      4  C   UNL     1       2.101   4.331  18.755  0.00  0.00    +0.000 A 
ATOM      5  C   UNL     1       2.626   5.635  18.710  0.00  0.00    +0.000 A 
ATOM      6  C   UNL     1       3.698   5.893  17.844  0.00  0.00    +0.000 A 
ENDROOT
BRANCH   5   7
ATOM      7  C   UNL     1       2.051   6.674  19.559  0.00  0.00    +0.000 A 
ATOM      8  N   UNL     1       1.638   6.601  20.807  0.00  0.00    +0.000 NA
ATOM      9  N   UNL     1       1.194   7.861  21.145  0.00  0.00    +0.000 NA
ATOM     10  C   UNL     1       1.350   8.621  20.080  0.00  0.00    +0.000 A 
ATOM     11  O   UNL     1       1.893   7.929  19.025  0.00  0.00    +0.000 OA
BRANCH  10  12
ATOM     12  S   UNL     1       0.962  10.313  20.056  0.00  0.00    +0.000 S 
BRANCH  12  13
ATOM     13  C   UNL     1       0.471  10.545  18.328  0.00  0.00    +0.000 C 
BRANCH  13  14
ATOM     14  C   UNL     1      -1.029  10.682  18.195  0.00  0.00    +0.000 A 
ATOM     15  C   UNL     1      -1.740   9.891  17.280  0.00  0.00    +0.000 A 
ATOM     16  C   UNL     1      -3.125  10.026  17.145  0.00  0.00    +0.000 A 
ATOM     17  C   UNL     1      -3.810  10.957  17.921  0.00  0.00    +0.000 A 
ATOM     18 CL   UNL     1      -5.516  11.120  17.756  0.00  0.00    +0.000 Cl
ATOM     19  C   UNL     1      -3.120  11.758  18.829  0.00  0.00    +0.000 A 
ATOM     20  C   UNL     1      -1.735  11.624  18.963  0.00  0.00    +0.000 A 
ENDBRANCH  13  14
ENDBRANCH  12  13
ENDBRANCH  10  12
ENDBRANCH   5   7
BRANCH   1  22
ATOM     21  O   UNL     1       6.082   3.928  15.477  0.00  0.00    +0.000 OA
ATOM     22  S   UNL     1       5.603   5.202  15.969  0.00  0.00    +0.000 S 
ATOM     23  O   UNL     1       5.185   6.248  15.059  0.00  0.00    +0.000 OA
BRANCH  22  24
ATOM     24  N   UNL     1       6.775   5.849  17.032  0.00  0.00    +0.000 NA
ATOM     25  C   UNL     1       6.733   7.319  17.234  0.00  0.00    +0.000 C 
ATOM     26  C   UNL     1       8.017   7.797  17.906  0.00  0.00    +0.000 C 
ATOM     27  C   UNL     1       8.277   7.044  19.207  0.00  0.00    +0.000 C 
ATOM     28  C   UNL     1       8.297   5.543  18.948  0.00  0.00    +0.000 C 
ATOM     29  C   UNL     1       7.001   5.088  18.287  0.00  0.00    +0.000 C 
ENDBRANCH  22  24
ENDBRANCH   1  22
TORSDOF 6
ENDMDL
MODEL 8
REMARK VINA RESULT:      -8.3      2.551      3.195
REMARK  Name = 
REMARK  6 active torsions:
REMARK  status: ('A' for Active; 'I' for Inactive)
REMARK    1  A    between atoms: S_2  and  C_4
REMARK    2  A    between atoms: S_2  and  N_24
REMARK    3  A    between atoms: C_8  and  C_9
REMARK    4  A    between atoms: C_12  and  S_13
REMARK    5  A    between atoms: S_13  and  C_14
REMARK    6  A    between atoms: C_14  and  C_15
REMARK                            x       y       z     vdW  Elec       q    Type
REMARK                         _______ _______ _______ _____ _____    ______ ____
ROOT
ATOM      1  C   UNL     1       3.890   5.145  19.552  0.00  0.00    +0.000 A 
ATOM      2  C   UNL     1       2.930   4.483  20.321  0.00  0.00    +0.000 A 
ATOM      3  C   UNL     1       1.728   5.123  20.611  0.00  0.00    +0.000 A 
ATOM      4  C   UNL     1       1.481   6.403  20.106  0.00  0.00    +0.000 A 
ATOM      5  C   UNL     1       2.414   7.056  19.281  0.00  0.00    +0.000 A 
ATOM      6  C   UNL     1       3.628   6.411  19.007  0.00  0.00    +0.000 A 
ENDROOT
BRANCH   5   7
ATOM      7  C   UNL     1       2.101   8.375  18.740  0.00  0.00    +0.000 A 
ATOM      8  N   UNL     1       2.194   8.816  17.503  0.00  0.00    +0.000 NA
ATOM      9  N   UNL     1       1.763  10.126  17.523  0.00  0.00    +0.000 NA
ATOM     10  C   UNL     1       1.449  10.407  18.771  0.00  0.00    +0.000 A 
ATOM     11  O   UNL     1       1.639   9.334  19.608  0.00  0.00    +0.000 OA
BRANCH  10  12
ATOM     12  S   UNL     1       0.812  11.944  19.266  0.00  0.00    +0.000 S 
BRANCH  12  13
ATOM     13  C   UNL     1      -0.970  11.665  19.103  0.00  0.00    +0.000 C 
BRANCH  13  14
ATOM     14  C   UNL     1      -1.688  11.911  20.411  0.00  0.00    +0.000 A 
ATOM     15  C   UNL     1      -2.938  12.549  20.430  0.00  0.00    +0.000 A 
ATOM     16  C   UNL     1      -3.597  12.789  21.640  0.00  0.00    +0.000 A 
ATOM     17  C   UNL     1      -3.010  12.398  22.839  0.00  0.00    +0.000 A 
ATOM     18 CL   UNL     1      -3.825  12.692  24.327  0.00  0.00    +0.000 Cl
ATOM     19  C   UNL     1      -1.766  11.771  22.841  0.00  0.00    +0.000 A 
ATOM     20  C   UNL     1      -1.106  11.531  21.632  0.00  0.00    +0.000 A 
ENDBRANCH  13  14
ENDBRANCH  12  13
ENDBRANCH  10  12
ENDBRANCH   5   7
BRANCH   1  22
ATOM     21  O   UNL     1       6.475   5.108  19.893  0.00  0.00    +0.000 OA
ATOM     22  S   UNL     1       5.450   4.346  19.215  0.00  0.00    +0.000 S 
ATOM     23  O   UNL     1       5.269   2.933  19.475  0.00  0.00    +0.000 OA
BRANCH  22  24
ATOM     24  N   UNL     1       5.638   4.563  17.529  0.00  0.00    +0.000 NA
ATOM     25  C   UNL     1       7.035   4.604  17.027  0.00  0.00    +0.000 C 
ATOM     26  C   UNL     1       7.067   5.143  15.599  0.00  0.00    +0.000 C 
ATOM     27  C   UNL     1       6.149   4.342  14.681  0.00  0.00    +0.000 C 
ATOM     28  C   UNL     1       4.734   4.319  15.247  0.00  0.00    +0.000 C 
ATOM     29  C   UNL     1       4.725   3.767  16.669  0.00  0.00    +0.000 C 
ENDBRANCH  22  24
ENDBRANCH   1  22
TORSDOF 6
ENDMDL
MODEL 9
REMARK VINA RESULT:      -8.3      3.761      4.998
REMARK  Name = 
REMARK  6 active torsions:
REMARK  status: ('A' for Active; 'I' for Inactive)
REMARK    1  A    between atoms: S_2  and  C_4
REMARK    2  A    between atoms: S_2  and  N_24
REMARK    3  A    between atoms: C_8  and  C_9
REMARK    4  A    between atoms: C_12  and  S_13
REMARK    5  A    between atoms: S_13  and  C_14
REMARK    6  A    between atoms: C_14  and  C_15
REMARK                            x       y       z     vdW  Elec       q    Type
REMARK                         _______ _______ _______ _____ _____    ______ ____
ROOT
ATOM      1  C   UNL     1       2.351   7.141  19.007  0.00  0.00    +0.000 A 
ATOM      2  C   UNL     1       2.491   7.937  17.867  0.00  0.00    +0.000 A 
ATOM      3  C   UNL     1       1.984   9.233  17.873  0.00  0.00    +0.000 A 
ATOM      4  C   UNL     1       1.369   9.736  19.025  0.00  0.00    +0.000 A 
ATOM      5  C   UNL     1       1.276   8.965  20.198  0.00  0.00    +0.000 A 
ATOM      6  C   UNL     1       1.775   7.656  20.178  0.00  0.00    +0.000 A 
ENDROOT
BRANCH   5   7
ATOM      7  C   UNL     1       0.664   9.541  21.392  0.00  0.00    +0.000 A 
ATOM      8  N   UNL     1       0.990   9.385  22.658  0.00  0.00    +0.000 NA
ATOM      9  N   UNL     1       0.108  10.154  23.385  0.00  0.00    +0.000 NA
ATOM     10  C   UNL     1      -0.710  10.720  22.521  0.00  0.00    +0.000 A 
ATOM     11  O   UNL     1      -0.415  10.374  21.225  0.00  0.00    +0.000 OA
BRANCH  10  12
ATOM     12  S   UNL     1      -1.970  11.820  22.987  0.00  0.00    +0.000 S 
BRANCH  12  13
ATOM     13  C   UNL     1      -1.138  13.419  22.802  0.00  0.00    +0.000 C 
BRANCH  13  14
ATOM     14  C   UNL     1      -0.311  13.465  21.536  0.00  0.00    +0.000 A 
ATOM     15  C   UNL     1      -0.930  13.413  20.277  0.00  0.00    +0.000 A 
ATOM     16  C   UNL     1      -0.167  13.442  19.105  0.00  0.00    +0.000 A 
ATOM     17  C   UNL     1       1.220  13.519  19.183  0.00  0.00    +0.000 A 
ATOM     18 CL   UNL     1       2.158  13.557  17.740  0.00  0.00    +0.000 Cl
ATOM     19  C   UNL     1       1.853  13.563  20.424  0.00  0.00    +0.000 A 
ATOM     20  C   UNL     1       1.091  13.533  21.596  0.00  0.00    +0.000 A 
ENDBRANCH  13  14
ENDBRANCH  12  13
ENDBRANCH  10  12
ENDBRANCH   5   7
BRANCH   1  22
ATOM     21  O   UNL     1       3.104   5.046  20.365  0.00  0.00    +0.000 OA
ATOM     22  S   UNL     1       2.960   5.463  18.988  0.00  0.00    +0.000 S 
ATOM     23  O   UNL     1       2.132   4.720  18.061  0.00  0.00    +0.000 OA
BRANCH  22  24
ATOM     24  N   UNL     1       4.519   5.627  18.305  0.00  0.00    +0.000 NA
ATOM     25  C   UNL     1       5.659   5.260  19.181  0.00  0.00    +0.000 C 
ATOM     26  C   UNL     1       6.968   5.775  18.588  0.00  0.00    +0.000 C 
ATOM     27  C   UNL     1       7.162   5.286  17.157  0.00  0.00    +0.000 C 
ATOM     28  C   UNL     1       5.961   5.675  16.304  0.00  0.00    +0.000 C 
ATOM     29  C   UNL     1       4.667   5.140  16.909  0.00  0.00    +0.000 C 
ENDBRANCH  22  24
ENDBRANCH   1  22
TORSDOF 6
ENDMDL
