MODEL 1
REMARK VINA RESULT:      -8.7      0.000      0.000
REMARK  Name = 
REMARK  4 active torsions:
REMARK  status: ('A' for Active; 'I' for Inactive)
REMARK    1  A    between atoms: C_1  and  C_2
REMARK    2  A    between atoms: C_8  and  S_9
REMARK    3  A    between atoms: S_9  and  N_12
REMARK    4  A    between atoms: C_29  and  C_30
REMARK                            x       y       z     vdW  Elec       q    Type
REMARK                         _______ _______ _______ _____ _____    ______ ____
ROOT
ATOM      1  S   UNL     1       2.649   4.341  18.519  0.00  0.00    +0.000 S 
ATOM      2  O   UNL     1       2.703   3.453  19.661  0.00  0.00    +0.000 OA
ATOM      3  O   UNL     1       1.732   4.103  17.422  0.00  0.00    +0.000 OA
ENDROOT
BRANCH   1   4
ATOM      4  N   UNL     1       4.199   4.508  17.872  0.00  0.00    +0.000 N 
ATOM      5  C   UNL     1       4.817   3.484  16.968  0.00  0.00    +0.000 C 
ATOM      6  C   UNL     1       5.303   4.051  15.568  0.00  0.00    +0.000 C 
ATOM      7  C   UNL     1       6.808   3.831  15.313  0.00  0.00    +0.000 C 
ATOM      8  C   UNL     1       7.261   4.942  14.376  0.00  0.00    +0.000 C 
ATOM      9  C   UNL     1       6.043   5.805  14.121  0.00  0.00    +0.000 C 
ATOM     10  N   UNL     1       5.027   5.438  15.107  0.00  0.00    +0.000 NA
ATOM     11  C   UNL     1       4.874   6.466  16.135  0.00  0.00    +0.000 C 
ATOM     12  C   UNL     1       5.715   6.245  17.367  0.00  0.00    +0.000 A 
ATOM     13  C   UNL     1       7.061   6.595  17.439  0.00  0.00    +0.000 A 
ATOM     14  C   UNL     1       7.811   6.212  18.550  0.00  0.00    +0.000 A 
ATOM     15  C   UNL     1       7.187   5.591  19.634  0.00  0.00    +0.000 A 
ATOM     16  C   UNL     1       5.842   5.217  19.555  0.00  0.00    +0.000 A 
ATOM     17  C   UNL     1       5.146   5.461  18.371  0.00  0.00    +0.000 A 
ENDBRANCH   1   4
BRANCH   1  25
ATOM     18  C   UNL     1       0.287  11.941  21.309  0.00  0.00    +0.000 C 
ATOM     19  C   UNL     1       0.756  10.503  21.377  0.00  0.00    +0.000 C 
ATOM     20  O   UNL     1       0.803   9.939  22.474  0.00  0.00    +0.000 OA
ATOM     21  N   UNL     1       1.069   9.896  20.177  0.00  0.00    +0.000 N 
ATOM     22  C   UNL     1       1.470   8.539  20.031  0.00  0.00    +0.000 A 
ATOM     23  C   UNL     1       1.588   7.506  20.961  0.00  0.00    +0.000 A 
ATOM     24  C   UNL     1       1.990   6.217  20.516  0.00  0.00    +0.000 A 
ATOM     25  C   UNL     1       2.235   5.978  19.151  0.00  0.00    +0.000 A 
ATOM     26  C   UNL     1       2.101   7.022  18.243  0.00  0.00    +0.000 A 
ATOM     27  C   UNL     1       1.765   8.280  18.707  0.00  0.00    +0.000 A 
ATOM     28  C   UNL     1       1.690   9.504  17.854  0.00  0.00    +0.000 C 
ATOM     29  C   UNL     1       1.176  10.563  18.842  0.00  0.00    +0.000 C 
ATOM     30  C   UNL     1      -0.127  11.154  18.299  0.00  0.00    +0.000 C 
ENDBRANCH   1  25
TORSDOF 2
ENDMDL
MODEL 2
REMARK VINA RESULT:      -7.3      3.751     10.148
REMARK  Name = 
REMARK  4 active torsions:
REMARK  status: ('A' for Active; 'I' for Inactive)
REMARK    1  A    between atoms: C_1  and  C_2
REMARK    2  A    between atoms: C_8  and  S_9
REMARK    3  A    between atoms: S_9  and  N_12
REMARK    4  A    between atoms: C_29  and  C_30
REMARK                            x       y       z     vdW  Elec       q    Type
REMARK                         _______ _______ _______ _____ _____    ______ ____
ROOT
ATOM      1  S   UNL     1       0.425  12.637  20.563  0.00  0.00    +0.000 S 
ATOM      2  O   UNL     1       1.266  13.113  21.641  0.00  0.00    +0.000 OA
ATOM      3  O   UNL     1       0.459  13.256  19.253  0.00  0.00    +0.000 OA
ENDROOT
BRANCH   1   4
ATOM      4  N   UNL     1      -1.181  12.608  21.081  0.00  0.00    +0.000 N 
ATOM      5  C   UNL     1      -1.609  11.955  22.361  0.00  0.00    +0.000 C 
ATOM      6  C   UNL     1      -2.399  12.909  23.353  0.00  0.00    +0.000 C 
ATOM      7  C   UNL     1      -3.810  12.392  23.699  0.00  0.00    +0.000 C 
ATOM      8  C   UNL     1      -4.655  13.614  24.030  0.00  0.00    +0.000 C 
ATOM      9  C   UNL     1      -3.753  14.816  23.847  0.00  0.00    +0.000 C 
ATOM     10  N   UNL     1      -2.562  14.370  23.125  0.00  0.00    +0.000 NA
ATOM     11  C   UNL     1      -2.563  14.835  21.739  0.00  0.00    +0.000 C 
ATOM     12  C   UNL     1      -3.155  13.858  20.755  0.00  0.00    +0.000 A 
ATOM     13  C   UNL     1      -4.527  13.727  20.547  0.00  0.00    +0.000 A 
ATOM     14  C   UNL     1      -5.003  12.693  19.744  0.00  0.00    +0.000 A 
ATOM     15  C   UNL     1      -4.106  11.872  19.055  0.00  0.00    +0.000 A 
ATOM     16  C   UNL     1      -2.732  11.985  19.281  0.00  0.00    +0.000 A 
ATOM     17  C   UNL     1      -2.278  12.918  20.213  0.00  0.00    +0.000 A 
ENDBRANCH   1   4
BRANCH   1  25
ATOM     18  C   UNL     1       2.871   4.659  19.336  0.00  0.00    +0.000 C 
ATOM     19  C   UNL     1       2.220   5.839  20.028  0.00  0.00    +0.000 C 
ATOM     20  O   UNL     1       1.795   5.699  21.178  0.00  0.00    +0.000 OA
ATOM     21  N   UNL     1       2.180   7.026  19.323  0.00  0.00    +0.000 N 
ATOM     22  C   UNL     1       1.665   8.253  19.824  0.00  0.00    +0.000 A 
ATOM     23  C   UNL     1       1.158   8.599  21.077  0.00  0.00    +0.000 A 
ATOM     24  C   UNL     1       0.734   9.936  21.307  0.00  0.00    +0.000 A 
ATOM     25  C   UNL     1       0.853  10.906  20.294  0.00  0.00    +0.000 A 
ATOM     26  C   UNL     1       1.370  10.538  19.058  0.00  0.00    +0.000 A 
ATOM     27  C   UNL     1       1.722   9.220  18.839  0.00  0.00    +0.000 A 
ATOM     28  C   UNL     1       2.191   8.674  17.529  0.00  0.00    +0.000 C 
ATOM     29  C   UNL     1       2.539   7.220  17.883  0.00  0.00    +0.000 C 
ATOM     30  C   UNL     1       4.007   6.965  17.534  0.00  0.00    +0.000 C 
ENDBRANCH   1  25
TORSDOF 2
ENDMDL
MODEL 3
REMARK VINA RESULT:      -7.1      2.928      8.215
REMARK  Name = 
REMARK  4 active torsions:
REMARK  status: ('A' for Active; 'I' for Inactive)
REMARK    1  A    between atoms: C_1  and  C_2
REMARK    2  A    between atoms: C_8  and  S_9
REMARK    3  A    between atoms: S_9  and  N_12
REMARK    4  A    between atoms: C_29  and  C_30
REMARK                            x       y       z     vdW  Elec       q    Type
REMARK                         _______ _______ _______ _____ _____    ______ ____
ROOT
ATOM      1  S   UNL     1       0.599   9.284  21.221  0.00  0.00    +0.000 S 
ATOM      2  O   UNL     1      -0.536   8.763  21.952  0.00  0.00    +0.000 OA
ATOM      3  O   UNL     1       1.643  10.038  21.887  0.00  0.00    +0.000 OA
ENDROOT
BRANCH   1   4
ATOM      4  N   UNL     1       0.046  10.204  19.919  0.00  0.00    +0.000 N 
ATOM      5  C   UNL     1      -0.475   9.590  18.654  0.00  0.00    +0.000 C 
ATOM      6  C   UNL     1      -1.940  10.052  18.255  0.00  0.00    +0.000 C 
ATOM      7  C   UNL     1      -2.011  10.718  16.866  0.00  0.00    +0.000 C 
ATOM      8  C   UNL     1      -3.193  11.676  16.898  0.00  0.00    +0.000 C 
ATOM      9  C   UNL     1      -3.775  11.585  18.293  0.00  0.00    +0.000 C 
ATOM     10  N   UNL     1      -2.801  10.888  19.133  0.00  0.00    +0.000 NA
ATOM     11  C   UNL     1      -2.129  11.802  20.055  0.00  0.00    +0.000 C 
ATOM     12  C   UNL     1      -0.828  12.363  19.538  0.00  0.00    +0.000 A 
ATOM     13  C   UNL     1      -0.762  13.445  18.663  0.00  0.00    +0.000 A 
ATOM     14  C   UNL     1       0.463  13.801  18.103  0.00  0.00    +0.000 A 
ATOM     15  C   UNL     1       1.633  13.155  18.511  0.00  0.00    +0.000 A 
ATOM     16  C   UNL     1       1.567  12.054  19.369  0.00  0.00    +0.000 A 
ATOM     17  C   UNL     1       0.316  11.606  19.793  0.00  0.00    +0.000 A 
ENDBRANCH   1   4
BRANCH   1  25
ATOM     18  C   UNL     1       4.061   2.535  17.533  0.00  0.00    +0.000 C 
ATOM     19  C   UNL     1       3.776   3.998  17.802  0.00  0.00    +0.000 C 
ATOM     20  O   UNL     1       4.210   4.846  17.018  0.00  0.00    +0.000 OA
ATOM     21  N   UNL     1       3.000   4.285  18.908  0.00  0.00    +0.000 N 
ATOM     22  C   UNL     1       2.578   5.589  19.289  0.00  0.00    +0.000 A 
ATOM     23  C   UNL     1       2.752   6.831  18.679  0.00  0.00    +0.000 A 
ATOM     24  C   UNL     1       2.183   7.985  19.284  0.00  0.00    +0.000 A 
ATOM     25  C   UNL     1       1.427   7.871  20.467  0.00  0.00    +0.000 A 
ATOM     26  C   UNL     1       1.260   6.620  21.049  0.00  0.00    +0.000 A 
ATOM     27  C   UNL     1       1.872   5.522  20.474  0.00  0.00    +0.000 A 
ATOM     28  C   UNL     1       1.857   4.145  21.055  0.00  0.00    +0.000 C 
ATOM     29  C   UNL     1       2.573   3.323  19.971  0.00  0.00    +0.000 C 
ATOM     30  C   UNL     1       1.641   2.203  19.504  0.00  0.00    +0.000 C 
ENDBRANCH   1  25
TORSDOF 2
ENDMDL
MODEL 4
REMARK VINA RESULT:      -7.1      1.002      1.797
REMARK  Name = 
REMARK  4 active torsions:
REMARK  status: ('A' for Active; 'I' for Inactive)
REMARK    1  A    between atoms: C_1  and  C_2
REMARK    2  A    between atoms: C_8  and  S_9
REMARK    3  A    between atoms: S_9  and  N_12
REMARK    4  A    between atoms: C_29  and  C_30
REMARK                            x       y       z     vdW  Elec       q    Type
REMARK                         _______ _______ _______ _____ _____    ______ ____
ROOT
ATOM      1  S   UNL     1       2.964   4.311  18.950  0.00  0.00    +0.000 S 
ATOM      2  O   UNL     1       3.205   3.776  20.274  0.00  0.00    +0.000 OA
ATOM      3  O   UNL     1       2.046   3.666  18.033  0.00  0.00    +0.000 OA
ENDROOT
BRANCH   1   4
ATOM      4  N   UNL     1       4.439   4.510  18.154  0.00  0.00    +0.000 N 
ATOM      5  C   UNL     1       5.006   3.477  17.227  0.00  0.00    +0.000 C 
ATOM      6  C   UNL     1       5.338   4.013  15.770  0.00  0.00    +0.000 C 
ATOM      7  C   UNL     1       6.819   3.837  15.379  0.00  0.00    +0.000 C 
ATOM      8  C   UNL     1       7.139   4.932  14.371  0.00  0.00    +0.000 C 
ATOM      9  C   UNL     1       5.871   5.743  14.208  0.00  0.00    +0.000 C 
ATOM     10  N   UNL     1       4.967   5.374  15.297  0.00  0.00    +0.000 NA
ATOM     11  C   UNL     1       4.873   6.430  16.303  0.00  0.00    +0.000 C 
ATOM     12  C   UNL     1       5.834   6.280  17.455  0.00  0.00    +0.000 A 
ATOM     13  C   UNL     1       7.168   6.678  17.388  0.00  0.00    +0.000 A 
ATOM     14  C   UNL     1       8.032   6.358  18.433  0.00  0.00    +0.000 A 
ATOM     15  C   UNL     1       7.536   5.753  19.591  0.00  0.00    +0.000 A 
ATOM     16  C   UNL     1       6.206   5.331  19.651  0.00  0.00    +0.000 A 
ATOM     17  C   UNL     1       5.392   5.510  18.532  0.00  0.00    +0.000 A 
ENDBRANCH   1   4
BRANCH   1  25
ATOM     18  C   UNL     1       0.328  12.206  20.313  0.00  0.00    +0.000 C 
ATOM     19  C   UNL     1       0.921  11.032  19.561  0.00  0.00    +0.000 C 
ATOM     20  O   UNL     1       1.453  11.230  18.465  0.00  0.00    +0.000 OA
ATOM     21  N   UNL     1       0.859   9.801  20.184  0.00  0.00    +0.000 N 
ATOM     22  C   UNL     1       1.410   8.598  19.665  0.00  0.00    +0.000 A 
ATOM     23  C   UNL     1       2.161   8.345  18.517  0.00  0.00    +0.000 A 
ATOM     24  C   UNL     1       2.612   7.021  18.263  0.00  0.00    +0.000 A 
ATOM     25  C   UNL     1       2.332   5.985  19.173  0.00  0.00    +0.000 A 
ATOM     26  C   UNL     1       1.591   6.264  20.314  0.00  0.00    +0.000 A 
ATOM     27  C   UNL     1       1.113   7.546  20.511  0.00  0.00    +0.000 A 
ATOM     28  C   UNL     1       0.222   7.954  21.639  0.00  0.00    +0.000 C 
ATOM     29  C   UNL     1       0.102   9.472  21.433  0.00  0.00    +0.000 C 
ATOM     30  C   UNL     1       0.587  10.182  22.698  0.00  0.00    +0.000 C 
ENDBRANCH   1  25
TORSDOF 2
ENDMDL
MODEL 5
REMARK VINA RESULT:      -7.1      2.412      8.274
REMARK  Name = 
REMARK  4 active torsions:
REMARK  status: ('A' for Active; 'I' for Inactive)
REMARK    1  A    between atoms: C_1  and  C_2
REMARK    2  A    between atoms: C_8  and  S_9
REMARK    3  A    between atoms: S_9  and  N_12
REMARK    4  A    between atoms: C_29  and  C_30
REMARK                            x       y       z     vdW  Elec       q    Type
REMARK                         _______ _______ _______ _____ _____    ______ ____
ROOT
ATOM      1  S   UNL     1       0.714   9.122  20.705  0.00  0.00    +0.000 S 
ATOM      2  O   UNL     1      -0.311   8.257  21.249  0.00  0.00    +0.000 OA
ATOM      3  O   UNL     1       1.569   9.911  21.569  0.00  0.00    +0.000 OA
ENDROOT
BRANCH   1   4
ATOM      4  N   UNL     1       0.019  10.163  19.573  0.00  0.00    +0.000 N 
ATOM      5  C   UNL     1      -0.595   9.678  18.294  0.00  0.00    +0.000 C 
ATOM      6  C   UNL     1      -2.104  10.123  18.079  0.00  0.00    +0.000 C 
ATOM      7  C   UNL     1      -2.318  10.940  16.789  0.00  0.00    +0.000 C 
ATOM      8  C   UNL     1      -3.521  11.840  17.035  0.00  0.00    +0.000 C 
ATOM      9  C   UNL     1      -3.972  11.567  18.455  0.00  0.00    +0.000 C 
ATOM     10  N   UNL     1      -2.907  10.817  19.120  0.00  0.00    +0.000 NA
ATOM     11  C   UNL     1      -2.182  11.646  20.082  0.00  0.00    +0.000 C 
ATOM     12  C   UNL     1      -0.951  12.314  19.525  0.00  0.00    +0.000 A 
ATOM     13  C   UNL     1      -0.995  13.491  18.782  0.00  0.00    +0.000 A 
ATOM     14  C   UNL     1       0.163  13.958  18.165  0.00  0.00    +0.000 A 
ATOM     15  C   UNL     1       1.384  13.317  18.393  0.00  0.00    +0.000 A 
ATOM     16  C   UNL     1       1.428  12.123  19.117  0.00  0.00    +0.000 A 
ATOM     17  C   UNL     1       0.235  11.579  19.591  0.00  0.00    +0.000 A 
ENDBRANCH   1   4
BRANCH   1  25
ATOM     18  C   UNL     1       5.542   3.990  16.070  0.00  0.00    +0.000 C 
ATOM     19  C   UNL     1       4.894   5.283  16.520  0.00  0.00    +0.000 C 
ATOM     20  O   UNL     1       5.008   6.288  15.814  0.00  0.00    +0.000 OA
ATOM     21  N   UNL     1       4.171   5.237  17.697  0.00  0.00    +0.000 N 
ATOM     22  C   UNL     1       3.445   6.328  18.249  0.00  0.00    +0.000 A 
ATOM     23  C   UNL     1       3.218   7.620  17.776  0.00  0.00    +0.000 A 
ATOM     24  C   UNL     1       2.412   8.506  18.542  0.00  0.00    +0.000 A 
ATOM     25  C   UNL     1       1.824   8.075  19.746  0.00  0.00    +0.000 A 
ATOM     26  C   UNL     1       2.058   6.779  20.191  0.00  0.00    +0.000 A 
ATOM     27  C   UNL     1       2.892   5.955  19.459  0.00  0.00    +0.000 A 
ATOM     28  C   UNL     1       3.307   4.582  19.878  0.00  0.00    +0.000 C 
ATOM     29  C   UNL     1       4.120   4.098  18.667  0.00  0.00    +0.000 C 
ATOM     30  C   UNL     1       3.491   2.810  18.132  0.00  0.00    +0.000 C 
ENDBRANCH   1  25
TORSDOF 2
ENDMDL
MODEL 6
REMARK VINA RESULT:      -7.0      5.386      8.839
REMARK  Name = 
REMARK  4 active torsions:
REMARK  status: ('A' for Active; 'I' for Inactive)
REMARK    1  A    between atoms: C_1  and  C_2
REMARK    2  A    between atoms: C_8  and  S_9
REMARK    3  A    between atoms: S_9  and  N_12
REMARK    4  A    between atoms: C_29  and  C_30
REMARK                            x       y       z     vdW  Elec       q    Type
REMARK                         _______ _______ _______ _____ _____    ______ ____
ROOT
ATOM      1  S   UNL     1       0.158  13.777  20.641  0.00  0.00    +0.000 S 
ATOM      2  O   UNL     1       0.146  14.993  19.855  0.00  0.00    +0.000 OA
ATOM      3  O   UNL     1       1.142  13.565  21.684  0.00  0.00    +0.000 OA
ENDROOT
BRANCH   1   4
ATOM      4  N   UNL     1       0.205  12.446  19.604  0.00  0.00    +0.000 N 
ATOM      5  C   UNL     1       1.434  12.058  18.838  0.00  0.00    +0.000 C 
ATOM      6  C   UNL     1       1.917  10.565  19.083  0.00  0.00    +0.000 C 
ATOM      7  C   UNL     1       1.972   9.725  17.791  0.00  0.00    +0.000 C 
ATOM      8  C   UNL     1       1.759   8.275  18.203  0.00  0.00    +0.000 C 
ATOM      9  C   UNL     1       1.554   8.285  19.703  0.00  0.00    +0.000 C 
ATOM     10  N   UNL     1       1.315   9.670  20.107  0.00  0.00    +0.000 NA
ATOM     11  C   UNL     1      -0.087   9.898  20.455  0.00  0.00    +0.000 C 
ATOM     12  C   UNL     1      -0.937  10.402  19.316  0.00  0.00    +0.000 A 
ATOM     13  C   UNL     1      -1.477   9.563  18.344  0.00  0.00    +0.000 A 
ATOM     14  C   UNL     1      -2.114  10.119  17.236  0.00  0.00    +0.000 A 
ATOM     15  C   UNL     1      -2.315  11.499  17.164  0.00  0.00    +0.000 A 
ATOM     16  C   UNL     1      -1.753  12.344  18.125  0.00  0.00    +0.000 A 
ATOM     17  C   UNL     1      -0.979  11.786  19.141  0.00  0.00    +0.000 A 
ENDBRANCH   1   4
BRANCH   1  25
ATOM     18  C   UNL     1      -7.508  13.055  24.083  0.00  0.00    +0.000 C 
ATOM     19  C   UNL     1      -6.019  12.835  23.908  0.00  0.00    +0.000 C 
ATOM     20  O   UNL     1      -5.454  11.986  24.602  0.00  0.00    +0.000 OA
ATOM     21  N   UNL     1      -5.391  13.589  22.936  0.00  0.00    +0.000 N 
ATOM     22  C   UNL     1      -4.017  13.484  22.586  0.00  0.00    +0.000 A 
ATOM     23  C   UNL     1      -3.013  12.624  23.032  0.00  0.00    +0.000 A 
ATOM     24  C   UNL     1      -1.712  12.730  22.471  0.00  0.00    +0.000 A 
ATOM     25  C   UNL     1      -1.446  13.669  21.456  0.00  0.00    +0.000 A 
ATOM     26  C   UNL     1      -2.466  14.507  21.023  0.00  0.00    +0.000 A 
ATOM     27  C   UNL     1      -3.708  14.425  21.623  0.00  0.00    +0.000 A 
ATOM     28  C   UNL     1      -4.855  15.335  21.323  0.00  0.00    +0.000 C 
ATOM     29  C   UNL     1      -5.985  14.731  22.172  0.00  0.00    +0.000 C 
ATOM     30  C   UNL     1      -7.153  14.367  21.253  0.00  0.00    +0.000 C 
ENDBRANCH   1  25
TORSDOF 2
ENDMDL
MODEL 7
REMARK VINA RESULT:      -7.0      3.703      8.943
REMARK  Name = 
REMARK  4 active torsions:
REMARK  status: ('A' for Active; 'I' for Inactive)
REMARK    1  A    between atoms: C_1  and  C_2
REMARK    2  A    between atoms: C_8  and  S_9
REMARK    3  A    between atoms: S_9  and  N_12
REMARK    4  A    between atoms: C_29  and  C_30
REMARK                            x       y       z     vdW  Elec       q    Type
REMARK                         _______ _______ _______ _____ _____    ______ ____
ROOT
ATOM      1  S   UNL     1      -0.860  12.064  19.549  0.00  0.00    +0.000 S 
ATOM      2  O   UNL     1      -1.477  12.309  18.263  0.00  0.00    +0.000 OA
ATOM      3  O   UNL     1      -1.656  11.744  20.717  0.00  0.00    +0.000 OA
ENDROOT
BRANCH   1   4
ATOM      4  N   UNL     1       0.139  13.366  19.943  0.00  0.00    +0.000 N 
ATOM      5  C   UNL     1       1.100  13.333  21.093  0.00  0.00    +0.000 C 
ATOM      6  C   UNL     1       2.606  13.645  20.701  0.00  0.00    +0.000 C 
ATOM      7  C   UNL     1       3.191  14.858  21.450  0.00  0.00    +0.000 C 
ATOM      8  C   UNL     1       4.271  15.448  20.554  0.00  0.00    +0.000 C 
ATOM      9  C   UNL     1       4.285  14.606  19.296  0.00  0.00    +0.000 C 
ATOM     10  N   UNL     1       3.070  13.792  19.295  0.00  0.00    +0.000 NA
ATOM     11  C   UNL     1       2.097  14.274  18.316  0.00  0.00    +0.000 C 
ATOM     12  C   UNL     1       1.084  15.244  18.870  0.00  0.00    +0.000 A 
ATOM     13  C   UNL     1       1.348  16.601  19.043  0.00  0.00    +0.000 A 
ATOM     14  C   UNL     1       0.422  17.400  19.710  0.00  0.00    +0.000 A 
ATOM     15  C   UNL     1      -0.813  16.870  20.093  0.00  0.00    +0.000 A 
ATOM     16  C   UNL     1      -1.070  15.505  19.943  0.00  0.00    +0.000 A 
ATOM     17  C   UNL     1      -0.070  14.684  19.422  0.00  0.00    +0.000 A 
ENDBRANCH   1   4
BRANCH   1  25
ATOM     18  C   UNL     1       4.035   5.289  18.421  0.00  0.00    +0.000 C 
ATOM     19  C   UNL     1       3.472   6.673  18.172  0.00  0.00    +0.000 C 
ATOM     20  O   UNL     1       3.807   7.281  17.153  0.00  0.00    +0.000 OA
ATOM     21  N   UNL     1       2.573   7.153  19.105  0.00  0.00    +0.000 N 
ATOM     22  C   UNL     1       1.895   8.400  19.015  0.00  0.00    +0.000 A 
ATOM     23  C   UNL     1       1.891   9.379  18.021  0.00  0.00    +0.000 A 
ATOM     24  C   UNL     1       1.078  10.533  18.191  0.00  0.00    +0.000 A 
ATOM     25  C   UNL     1       0.264  10.671  19.331  0.00  0.00    +0.000 A 
ATOM     26  C   UNL     1       0.280   9.677  20.302  0.00  0.00    +0.000 A 
ATOM     27  C   UNL     1       1.121   8.592  20.143  0.00  0.00    +0.000 A 
ATOM     28  C   UNL     1       1.309   7.510  21.156  0.00  0.00    +0.000 C 
ATOM     29  C   UNL     1       2.243   6.533  20.426  0.00  0.00    +0.000 C 
ATOM     30  C   UNL     1       1.566   5.162  20.356  0.00  0.00    +0.000 C 
ENDBRANCH   1  25
TORSDOF 2
ENDMDL
MODEL 8
REMARK VINA RESULT:      -7.0      7.983      9.738
REMARK  Name = 
REMARK  4 active torsions:
REMARK  status: ('A' for Active; 'I' for Inactive)
REMARK    1  A    between atoms: C_1  and  C_2
REMARK    2  A    between atoms: C_8  and  S_9
REMARK    3  A    between atoms: S_9  and  N_12
REMARK    4  A    between atoms: C_29  and  C_30
REMARK                            x       y       z     vdW  Elec       q    Type
REMARK                         _______ _______ _______ _____ _____    ______ ____
ROOT
ATOM      1  S   UNL     1       0.407  12.187  20.392  0.00  0.00    +0.000 S 
ATOM      2  O   UNL     1       1.219  11.353  21.253  0.00  0.00    +0.000 OA
ATOM      3  O   UNL     1       0.090  11.785  19.036  0.00  0.00    +0.000 OA
ENDROOT
BRANCH   1   4
ATOM      4  N   UNL     1       1.072  13.737  20.331  0.00  0.00    +0.000 N 
ATOM      5  C   UNL     1       1.538  14.469  21.554  0.00  0.00    +0.000 C 
ATOM      6  C   UNL     1       3.050  14.951  21.495  0.00  0.00    +0.000 C 
ATOM      7  C   UNL     1       3.208  16.476  21.653  0.00  0.00    +0.000 C 
ATOM      8  C   UNL     1       4.487  16.863  20.924  0.00  0.00    +0.000 C 
ATOM      9  C   UNL     1       5.038  15.585  20.329  0.00  0.00    +0.000 C 
ATOM     10  N   UNL     1       3.986  14.572  20.402  0.00  0.00    +0.000 NA
ATOM     11  C   UNL     1       3.405  14.298  19.088  0.00  0.00    +0.000 C 
ATOM     12  C   UNL     1       2.179  15.114  18.767  0.00  0.00    +0.000 A 
ATOM     13  C   UNL     1       2.241  16.423  18.293  0.00  0.00    +0.000 A 
ATOM     14  C   UNL     1       1.068  17.166  18.175  0.00  0.00    +0.000 A 
ATOM     15  C   UNL     1      -0.169  16.562  18.412  0.00  0.00    +0.000 A 
ATOM     16  C   UNL     1      -0.233  15.258  18.910  0.00  0.00    +0.000 A 
ATOM     17  C   UNL     1       0.957  14.582  19.180  0.00  0.00    +0.000 A 
ENDBRANCH   1   4
BRANCH   1  25
ATOM     18  C   UNL     1      -7.157  12.784  24.076  0.00  0.00    +0.000 C 
ATOM     19  C   UNL     1      -5.652  12.638  23.970  0.00  0.00    +0.000 C 
ATOM     20  O   UNL     1      -5.005  12.361  24.983  0.00  0.00    +0.000 OA
ATOM     21  N   UNL     1      -5.102  12.791  22.712  0.00  0.00    +0.000 N 
ATOM     22  C   UNL     1      -3.723  12.634  22.403  0.00  0.00    +0.000 A 
ATOM     23  C   UNL     1      -2.637  12.252  23.191  0.00  0.00    +0.000 A 
ATOM     24  C   UNL     1      -1.351  12.149  22.594  0.00  0.00    +0.000 A 
ATOM     25  C   UNL     1      -1.180  12.399  21.220  0.00  0.00    +0.000 A 
ATOM     26  C   UNL     1      -2.280  12.769  20.454  0.00  0.00    +0.000 A 
ATOM     27  C   UNL     1      -3.509  12.919  21.068  0.00  0.00    +0.000 A 
ATOM     28  C   UNL     1      -4.743  13.409  20.383  0.00  0.00    +0.000 C 
ATOM     29  C   UNL     1      -5.808  13.271  21.482  0.00  0.00    +0.000 C 
ATOM     30  C   UNL     1      -6.928  12.361  20.974  0.00  0.00    +0.000 C 
ENDBRANCH   1  25
TORSDOF 2
ENDMDL
MODEL 9
REMARK VINA RESULT:      -6.9      5.358     11.704
REMARK  Name = 
REMARK  4 active torsions:
REMARK  status: ('A' for Active; 'I' for Inactive)
REMARK    1  A    between atoms: C_1  and  C_2
REMARK    2  A    between atoms: C_8  and  S_9
REMARK    3  A    between atoms: S_9  and  N_12
REMARK    4  A    between atoms: C_29  and  C_30
REMARK                            x       y       z     vdW  Elec       q    Type
REMARK                         _______ _______ _______ _____ _____    ______ ____
ROOT
ATOM      1  S   UNL     1      -1.882  13.818  22.341  0.00  0.00    +0.000 S 
ATOM      2  O   UNL     1      -1.474  13.988  23.720  0.00  0.00    +0.000 OA
ATOM      3  O   UNL     1      -1.614  14.838  21.346  0.00  0.00    +0.000 OA
ENDROOT
BRANCH   1   4
ATOM      4  N   UNL     1      -3.531  13.463  22.288  0.00  0.00    +0.000 N 
ATOM      5  C   UNL     1      -4.227  12.682  23.362  0.00  0.00    +0.000 C 
ATOM      6  C   UNL     1      -5.472  13.422  24.010  0.00  0.00    +0.000 C 
ATOM      7  C   UNL     1      -6.790  12.633  23.871  0.00  0.00    +0.000 C 
ATOM      8  C   UNL     1      -7.916  13.657  23.873  0.00  0.00    +0.000 C 
ATOM      9  C   UNL     1      -7.255  15.015  23.980  0.00  0.00    +0.000 C 
ATOM     10  N   UNL     1      -5.829  14.835  23.711  0.00  0.00    +0.000 NA
ATOM     11  C   UNL     1      -5.456  15.356  22.397  0.00  0.00    +0.000 C 
ATOM     12  C   UNL     1      -5.485  14.332  21.291  0.00  0.00    +0.000 A 
ATOM     13  C   UNL     1      -6.655  13.954  20.636  0.00  0.00    +0.000 A 
ATOM     14  C   UNL     1      -6.626  12.887  19.740  0.00  0.00    +0.000 A 
ATOM     15  C   UNL     1      -5.410  12.283  19.411  0.00  0.00    +0.000 A 
ATOM     16  C   UNL     1      -4.239  12.643  20.083  0.00  0.00    +0.000 A 
ATOM     17  C   UNL     1      -4.312  13.600  21.095  0.00  0.00    +0.000 A 
ENDBRANCH   1   4
BRANCH   1  25
ATOM     18  C   UNL     1       2.302   7.082  19.469  0.00  0.00    +0.000 C 
ATOM     19  C   UNL     1       1.545   7.953  20.450  0.00  0.00    +0.000 C 
ATOM     20  O   UNL     1       1.482   7.607  21.633  0.00  0.00    +0.000 OA
ATOM     21  N   UNL     1       0.998   9.118  19.950  0.00  0.00    +0.000 N 
ATOM     22  C   UNL     1       0.305  10.089  20.723  0.00  0.00    +0.000 A 
ATOM     23  C   UNL     1       0.056  10.172  22.094  0.00  0.00    +0.000 A 
ATOM     24  C   UNL     1      -0.652  11.295  22.601  0.00  0.00    +0.000 A 
ATOM     25  C   UNL     1      -1.070  12.326  21.738  0.00  0.00    +0.000 A 
ATOM     26  C   UNL     1      -0.801  12.224  20.378  0.00  0.00    +0.000 A 
ATOM     27  C   UNL     1      -0.162  11.095  19.900  0.00  0.00    +0.000 A 
ATOM     28  C   UNL     1       0.094  10.816  18.454  0.00  0.00    +0.000 C 
ATOM     29  C   UNL     1       0.912   9.516  18.510  0.00  0.00    +0.000 C 
ATOM     30  C   UNL     1       2.255   9.748  17.814  0.00  0.00    +0.000 C 
ENDBRANCH   1  25
TORSDOF 2
ENDMDL
