MODEL 1
REMARK VINA RESULT:      -8.7      0.000      0.000
REMARK  Name = 
REMARK  6 active torsions:
REMARK  status: ('A' for Active; 'I' for Inactive)
REMARK    1  A    between atoms: C_1  and  C_2
REMARK    2  A    between atoms: C_4  and  C_5
REMARK    3  A    between atoms: C_6  and  C_7
REMARK    4  A    between atoms: C_7  and  N_8
REMARK    5  A    between atoms: C_9  and  C_11
REMARK    6  A    between atoms: C_13  and  C_14
REMARK                            x       y       z     vdW  Elec       q    Type
REMARK                         _______ _______ _______ _____ _____    ______ ____
ROOT
ATOM      1  C   UNL     1       2.502   6.513  19.788  0.00  0.00    +0.000 A 
ATOM      2  C   UNL     1       3.569   6.799  18.926  0.00  0.00    +0.000 A 
ATOM      3  C   UNL     1       4.423   5.761  18.582  0.00  0.00    +0.000 A 
ATOM      4  N   UNL     1       4.379   4.587  19.254  0.00  0.00    +0.000 NA
ATOM      5  C   UNL     1       3.266   4.270  19.917  0.00  0.00    +0.000 A 
ATOM      6  C   UNL     1       3.105   2.952  20.294  0.00  0.00    +0.000 A 
ATOM      7  C   UNL     1       1.831   2.409  20.355  0.00  0.00    +0.000 A 
ATOM      8  C   UNL     1       0.733   3.258  20.406  0.00  0.00    +0.000 A 
ATOM      9  C   UNL     1       0.934   4.638  20.420  0.00  0.00    +0.000 A 
ATOM     10  C   UNL     1       2.208   5.166  20.090  0.00  0.00    +0.000 A 
ENDROOT
BRANCH   3  11
ATOM     11  C   UNL     1       5.295   5.720  17.379  0.00  0.00    +0.000 A 
ATOM     12  C   UNL     1       6.528   6.391  17.373  0.00  0.00    +0.000 A 
ATOM     13  C   UNL     1       7.423   6.200  16.330  0.00  0.00    +0.000 A 
ATOM     14  N   UNL     1       7.179   5.397  15.279  0.00  0.00    +0.000 NA
ATOM     15  C   UNL     1       6.000   4.750  15.278  0.00  0.00    +0.000 A 
ATOM     16  C   UNL     1       5.038   4.878  16.283  0.00  0.00    +0.000 A 
ENDBRANCH   3  11
BRANCH   1  18
ATOM     17  N   UNL     1       1.258   8.541  19.325  0.00  0.00    +0.000 N 
ATOM     18  C   UNL     1       1.668   7.640  20.287  0.00  0.00    +0.000 C 
ATOM     19  O   UNL     1       1.337   7.693  21.463  0.00  0.00    +0.000 OA
ATOM     20  H   UNL     1       1.444   8.354  18.345  0.00  0.00    +0.000 HD
BRANCH  17  21
ATOM     21  C   UNL     1       0.409   9.693  19.586  0.00  0.00    +0.000 C 
BRANCH  21  27
ATOM     22  C   UNL     1       3.476  14.415  18.041  0.00  0.00    +0.000 C 
ATOM     23  C   UNL     1       2.645  13.245  18.496  0.00  0.00    +0.000 A 
ATOM     24  C   UNL     1       1.860  13.284  19.583  0.00  0.00    +0.000 A 
ATOM     25  C   UNL     1       1.076  12.124  19.978  0.00  0.00    +0.000 A 
ATOM     26  C   UNL     1       0.289  12.268  21.254  0.00  0.00    +0.000 C 
ATOM     27  C   UNL     1       1.101  10.985  19.244  0.00  0.00    +0.000 A 
ATOM     28  C   UNL     1       1.997  10.938  18.037  0.00  0.00    +0.000 A 
ATOM     29  O   UNL     1       2.109   9.941  17.356  0.00  0.00    +0.000 OA
ATOM     30  N   UNL     1       2.706  12.101  17.751  0.00  0.00    +0.000 N 
ATOM     31  H   UNL     1       3.295  12.043  16.935  0.00  0.00    +0.000 HD
ENDBRANCH  21  27
ENDBRANCH  17  21
ENDBRANCH   1  18
TORSDOF 4
ENDMDL
MODEL 2
REMARK VINA RESULT:      -8.2      2.012      2.227
REMARK  Name = 
REMARK  6 active torsions:
REMARK  status: ('A' for Active; 'I' for Inactive)
REMARK    1  A    between atoms: C_1  and  C_2
REMARK    2  A    between atoms: C_4  and  C_5
REMARK    3  A    between atoms: C_6  and  C_7
REMARK    4  A    between atoms: C_7  and  N_8
REMARK    5  A    between atoms: C_9  and  C_11
REMARK    6  A    between atoms: C_13  and  C_14
REMARK                            x       y       z     vdW  Elec       q    Type
REMARK                         _______ _______ _______ _____ _____    ______ ____
ROOT
ATOM      1  C   UNL     1       2.705   5.474  19.496  0.00  0.00    +0.000 A 
ATOM      2  C   UNL     1       3.828   5.876  18.761  0.00  0.00    +0.000 A 
ATOM      3  C   UNL     1       4.555   4.898  18.098  0.00  0.00    +0.000 A 
ATOM      4  N   UNL     1       4.340   3.588  18.361  0.00  0.00    +0.000 NA
ATOM      5  C   UNL     1       3.174   3.226  18.898  0.00  0.00    +0.000 A 
ATOM      6  C   UNL     1       2.835   1.889  18.837  0.00  0.00    +0.000 A 
ATOM      7  C   UNL     1       1.502   1.526  18.732  0.00  0.00    +0.000 A 
ATOM      8  C   UNL     1       0.518   2.451  19.060  0.00  0.00    +0.000 A 
ATOM      9  C   UNL     1       0.892   3.717  19.512  0.00  0.00    +0.000 A 
ATOM     10  C   UNL     1       2.233   4.151  19.356  0.00  0.00    +0.000 A 
ENDROOT
BRANCH   3  11
ATOM     11  C   UNL     1       5.455   5.127  16.936  0.00  0.00    +0.000 A 
ATOM     12  C   UNL     1       6.475   6.089  17.008  0.00  0.00    +0.000 A 
ATOM     13  C   UNL     1       7.429   6.173  16.004  0.00  0.00    +0.000 A 
ATOM     14  N   UNL     1       7.439   5.375  14.921  0.00  0.00    +0.000 NA
ATOM     15  C   UNL     1       6.466   4.450  14.846  0.00  0.00    +0.000 A 
ATOM     16  C   UNL     1       5.465   4.290  15.807  0.00  0.00    +0.000 A 
ENDBRANCH   3  11
BRANCH   1  18
ATOM     17  N   UNL     1       2.315   7.799  20.057  0.00  0.00    +0.000 N 
ATOM     18  C   UNL     1       2.004   6.484  20.334  0.00  0.00    +0.000 C 
ATOM     19  O   UNL     1       1.169   6.134  21.158  0.00  0.00    +0.000 OA
ATOM     20  H   UNL     1       2.903   8.022  19.259  0.00  0.00    +0.000 HD
BRANCH  17  21
ATOM     21  C   UNL     1       1.721   8.945  20.728  0.00  0.00    +0.000 C 
BRANCH  21  27
ATOM     22  C   UNL     1      -2.240  11.405  17.214  0.00  0.00    +0.000 C 
ATOM     23  C   UNL     1      -1.271  10.782  18.184  0.00  0.00    +0.000 A 
ATOM     24  C   UNL     1      -1.445  10.817  19.514  0.00  0.00    +0.000 A 
ATOM     25  C   UNL     1      -0.478  10.198  20.408  0.00  0.00    +0.000 A 
ATOM     26  C   UNL     1      -0.746  10.365  21.881  0.00  0.00    +0.000 C 
ATOM     27  C   UNL     1       0.607   9.551  19.918  0.00  0.00    +0.000 A 
ATOM     28  C   UNL     1       0.809   9.531  18.428  0.00  0.00    +0.000 A 
ATOM     29  O   UNL     1       1.777   9.012  17.915  0.00  0.00    +0.000 OA
ATOM     30  N   UNL     1      -0.173  10.156  17.664  0.00  0.00    +0.000 N 
ATOM     31  H   UNL     1      -0.016  10.123  16.670  0.00  0.00    +0.000 HD
ENDBRANCH  21  27
ENDBRANCH  17  21
ENDBRANCH   1  18
TORSDOF 4
ENDMDL
MODEL 3
REMARK VINA RESULT:      -8.1      1.831      2.285
REMARK  Name = 
REMARK  6 active torsions:
REMARK  status: ('A' for Active; 'I' for Inactive)
REMARK    1  A    between atoms: C_1  and  C_2
REMARK    2  A    between atoms: C_4  and  C_5
REMARK    3  A    between atoms: C_6  and  C_7
REMARK    4  A    between atoms: C_7  and  N_8
REMARK    5  A    between atoms: C_9  and  C_11
REMARK    6  A    between atoms: C_13  and  C_14
REMARK                            x       y       z     vdW  Elec       q    Type
REMARK                         _______ _______ _______ _____ _____    ______ ____
ROOT
ATOM      1  C   UNL     1       2.422   6.466  19.947  0.00  0.00    +0.000 A 
ATOM      2  C   UNL     1       3.501   6.808  19.121  0.00  0.00    +0.000 A 
ATOM      3  C   UNL     1       4.343   5.791  18.695  0.00  0.00    +0.000 A 
ATOM      4  N   UNL     1       4.276   4.564  19.264  0.00  0.00    +0.000 NA
ATOM      5  C   UNL     1       3.154   4.208  19.889  0.00  0.00    +0.000 A 
ATOM      6  C   UNL     1       2.971   2.866  20.151  0.00  0.00    +0.000 A 
ATOM      7  C   UNL     1       1.689   2.338  20.155  0.00  0.00    +0.000 A 
ATOM      8  C   UNL     1       0.602   3.195  20.271  0.00  0.00    +0.000 A 
ATOM      9  C   UNL     1       0.823   4.566  20.406  0.00  0.00    +0.000 A 
ATOM     10  C   UNL     1       2.107   5.102  20.131  0.00  0.00    +0.000 A 
ENDROOT
BRANCH   3  11
ATOM     11  C   UNL     1       5.224   5.841  17.499  0.00  0.00    +0.000 A 
ATOM     12  C   UNL     1       6.542   6.310  17.608  0.00  0.00    +0.000 A 
ATOM     13  C   UNL     1       7.420   6.182  16.542  0.00  0.00    +0.000 A 
ATOM     14  N   UNL     1       7.082   5.628  15.363  0.00  0.00    +0.000 NA
ATOM     15  C   UNL     1       5.821   5.175  15.251  0.00  0.00    +0.000 A 
ATOM     16  C   UNL     1       4.868   5.259  16.269  0.00  0.00    +0.000 A 
ENDBRANCH   3  11
BRANCH   1  18
ATOM     17  N   UNL     1       1.720   8.784  19.914  0.00  0.00    +0.000 N 
ATOM     18  C   UNL     1       1.601   7.558  20.535  0.00  0.00    +0.000 C 
ATOM     19  O   UNL     1       0.836   7.328  21.462  0.00  0.00    +0.000 OA
ATOM     20  H   UNL     1       2.257   8.867  19.057  0.00  0.00    +0.000 HD
BRANCH  17  21
ATOM     21  C   UNL     1       0.981   9.977  20.301  0.00  0.00    +0.000 C 
BRANCH  21  27
ATOM     22  C   UNL     1      -3.118  11.034  16.280  0.00  0.00    +0.000 C 
ATOM     23  C   UNL     1      -2.113  10.791  17.375  0.00  0.00    +0.000 A 
ATOM     24  C   UNL     1      -2.271  11.248  18.626  0.00  0.00    +0.000 A 
ATOM     25  C   UNL     1      -1.269  10.985  19.647  0.00  0.00    +0.000 A 
ATOM     26  C   UNL     1      -1.526  11.610  20.994  0.00  0.00    +0.000 C 
ATOM     27  C   UNL     1      -0.166  10.250  19.366  0.00  0.00    +0.000 A 
ATOM     28  C   UNL     1       0.018   9.756  17.958  0.00  0.00    +0.000 A 
ATOM     29  O   UNL     1       0.999   9.132  17.616  0.00  0.00    +0.000 OA
ATOM     30  N   UNL     1      -0.998  10.067  17.058  0.00  0.00    +0.000 N 
ATOM     31  H   UNL     1      -0.852   9.720  16.124  0.00  0.00    +0.000 HD
ENDBRANCH  21  27
ENDBRANCH  17  21
ENDBRANCH   1  18
TORSDOF 4
ENDMDL
MODEL 4
REMARK VINA RESULT:      -8.1      4.853      9.810
REMARK  Name = 
REMARK  6 active torsions:
REMARK  status: ('A' for Active; 'I' for Inactive)
REMARK    1  A    between atoms: C_1  and  C_2
REMARK    2  A    between atoms: C_4  and  C_5
REMARK    3  A    between atoms: C_6  and  C_7
REMARK    4  A    between atoms: C_7  and  N_8
REMARK    5  A    between atoms: C_9  and  C_11
REMARK    6  A    between atoms: C_13  and  C_14
REMARK                            x       y       z     vdW  Elec       q    Type
REMARK                         _______ _______ _______ _____ _____    ______ ____
ROOT
ATOM      1  C   UNL     1      -2.382  11.547  18.598  0.00  0.00    +0.000 A 
ATOM      2  C   UNL     1      -3.324  11.916  19.567  0.00  0.00    +0.000 A 
ATOM      3  C   UNL     1      -4.649  12.036  19.175  0.00  0.00    +0.000 A 
ATOM      4  N   UNL     1      -4.976  12.050  17.861  0.00  0.00    +0.000 NA
ATOM      5  C   UNL     1      -4.123  11.518  16.984  0.00  0.00    +0.000 A 
ATOM      6  C   UNL     1      -4.606  11.226  15.725  0.00  0.00    +0.000 A 
ATOM      7  C   UNL     1      -4.086  10.148  15.026  0.00  0.00    +0.000 A 
ATOM      8  C   UNL     1      -2.863   9.615  15.412  0.00  0.00    +0.000 A 
ATOM      9  C   UNL     1      -2.172  10.189  16.479  0.00  0.00    +0.000 A 
ATOM     10  C   UNL     1      -2.837  11.102  17.337  0.00  0.00    +0.000 A 
ENDROOT
BRANCH   3  11
ATOM     11  C   UNL     1      -5.829  11.959  20.076  0.00  0.00    +0.000 A 
ATOM     12  C   UNL     1      -6.817  10.984  19.868  0.00  0.00    +0.000 A 
ATOM     13  C   UNL     1      -7.816  10.789  20.811  0.00  0.00    +0.000 A 
ATOM     14  N   UNL     1      -7.914  11.501  21.947  0.00  0.00    +0.000 NA
ATOM     15  C   UNL     1      -6.970  12.436  22.154  0.00  0.00    +0.000 A 
ATOM     16  C   UNL     1      -5.927  12.704  21.264  0.00  0.00    +0.000 A 
ENDBRANCH   3  11
BRANCH   1  18
ATOM     17  N   UNL     1      -0.551  10.589  19.861  0.00  0.00    +0.000 N 
ATOM     18  C   UNL     1      -0.941  11.561  18.963  0.00  0.00    +0.000 C 
ATOM     19  O   UNL     1      -0.174  12.353  18.433  0.00  0.00    +0.000 OA
ATOM     20  H   UNL     1      -1.208   9.869  20.145  0.00  0.00    +0.000 HD
BRANCH  17  21
ATOM     21  C   UNL     1       0.815  10.398  20.327  0.00  0.00    +0.000 C 
BRANCH  21  27
ATOM     22  C   UNL     1       2.950   5.018  19.560  0.00  0.00    +0.000 C 
ATOM     23  C   UNL     1       2.406   6.417  19.675  0.00  0.00    +0.000 A 
ATOM     24  C   UNL     1       2.421   7.292  18.659  0.00  0.00    +0.000 A 
ATOM     25  C   UNL     1       1.881   8.634  18.824  0.00  0.00    +0.000 A 
ATOM     26  C   UNL     1       2.019   9.546  17.633  0.00  0.00    +0.000 C 
ATOM     27  C   UNL     1       1.329   9.022  19.998  0.00  0.00    +0.000 A 
ATOM     28  C   UNL     1       1.332   8.045  21.141  0.00  0.00    +0.000 A 
ATOM     29  O   UNL     1       0.898   8.331  22.236  0.00  0.00    +0.000 OA
ATOM     30  N   UNL     1       1.876   6.790  20.878  0.00  0.00    +0.000 N 
ATOM     31  H   UNL     1       1.861   6.154  21.659  0.00  0.00    +0.000 HD
ENDBRANCH  21  27
ENDBRANCH  17  21
ENDBRANCH   1  18
TORSDOF 4
ENDMDL
MODEL 5
REMARK VINA RESULT:      -8.1      5.084      8.401
REMARK  Name = 
REMARK  6 active torsions:
REMARK  status: ('A' for Active; 'I' for Inactive)
REMARK    1  A    between atoms: C_1  and  C_2
REMARK    2  A    between atoms: C_4  and  C_5
REMARK    3  A    between atoms: C_6  and  C_7
REMARK    4  A    between atoms: C_7  and  N_8
REMARK    5  A    between atoms: C_9  and  C_11
REMARK    6  A    between atoms: C_13  and  C_14
REMARK                            x       y       z     vdW  Elec       q    Type
REMARK                         _______ _______ _______ _____ _____    ______ ____
ROOT
ATOM      1  C   UNL     1      -0.677  11.645  20.833  0.00  0.00    +0.000 A 
ATOM      2  C   UNL     1      -1.506  11.841  19.720  0.00  0.00    +0.000 A 
ATOM      3  C   UNL     1      -1.326  11.015  18.621  0.00  0.00    +0.000 A 
ATOM      4  N   UNL     1      -0.228  10.228  18.529  0.00  0.00    +0.000 NA
ATOM      5  C   UNL     1       0.431   9.915  19.645  0.00  0.00    +0.000 A 
ATOM      6  C   UNL     1       1.315   8.856  19.586  0.00  0.00    +0.000 A 
ATOM      7  C   UNL     1       1.512   8.067  20.707  0.00  0.00    +0.000 A 
ATOM      8  C   UNL     1       1.130   8.548  21.953  0.00  0.00    +0.000 A 
ATOM      9  C   UNL     1       0.578   9.825  22.053  0.00  0.00    +0.000 A 
ATOM     10  C   UNL     1       0.142  10.497  20.882  0.00  0.00    +0.000 A 
ENDROOT
BRANCH   3  11
ATOM     11  C   UNL     1      -2.340  10.738  17.570  0.00  0.00    +0.000 A 
ATOM     12  C   UNL     1      -3.529  11.482  17.519  0.00  0.00    +0.000 A 
ATOM     13  C   UNL     1      -4.387  11.356  16.435  0.00  0.00    +0.000 A 
ATOM     14  N   UNL     1      -4.155  10.533  15.396  0.00  0.00    +0.000 NA
ATOM     15  C   UNL     1      -3.017   9.819  15.437  0.00  0.00    +0.000 A 
ATOM     16  C   UNL     1      -2.094   9.880  16.484  0.00  0.00    +0.000 A 
ENDBRANCH   3  11
BRANCH   1  18
ATOM     17  N   UNL     1      -1.949  12.628  22.646  0.00  0.00    +0.000 N 
ATOM     18  C   UNL     1      -0.753  12.616  21.957  0.00  0.00    +0.000 C 
ATOM     19  O   UNL     1       0.220  13.293  22.260  0.00  0.00    +0.000 OA
ATOM     20  H   UNL     1      -2.660  11.934  22.437  0.00  0.00    +0.000 HD
BRANCH  17  21
ATOM     21  C   UNL     1      -2.226  13.470  23.800  0.00  0.00    +0.000 C 
BRANCH  21  27
ATOM     22  C   UNL     1      -7.905  14.827  23.760  0.00  0.00    +0.000 C 
ATOM     23  C   UNL     1      -6.423  14.557  23.755  0.00  0.00    +0.000 A 
ATOM     24  C   UNL     1      -5.518  15.462  23.354  0.00  0.00    +0.000 A 
ATOM     25  C   UNL     1      -4.096  15.150  23.369  0.00  0.00    +0.000 A 
ATOM     26  C   UNL     1      -3.185  16.222  22.830  0.00  0.00    +0.000 C 
ATOM     27  C   UNL     1      -3.653  13.949  23.812  0.00  0.00    +0.000 A 
ATOM     28  C   UNL     1      -4.672  12.930  24.241  0.00  0.00    +0.000 A 
ATOM     29  O   UNL     1      -4.357  11.818  24.606  0.00  0.00    +0.000 OA
ATOM     30  N   UNL     1      -6.004  13.329  24.183  0.00  0.00    +0.000 N 
ATOM     31  H   UNL     1      -6.665  12.629  24.481  0.00  0.00    +0.000 HD
ENDBRANCH  21  27
ENDBRANCH  17  21
ENDBRANCH   1  18
TORSDOF 4
ENDMDL
MODEL 6
REMARK VINA RESULT:      -8.0      4.828      8.175
REMARK  Name = 
REMARK  6 active torsions:
REMARK  status: ('A' for Active; 'I' for Inactive)
REMARK    1  A    between atoms: C_1  and  C_2
REMARK    2  A    between atoms: C_4  and  C_5
REMARK    3  A    between atoms: C_6  and  C_7
REMARK    4  A    between atoms: C_7  and  N_8
REMARK    5  A    between atoms: C_9  and  C_11
REMARK    6  A    between atoms: C_13  and  C_14
REMARK                            x       y       z     vdW  Elec       q    Type
REMARK                         _______ _______ _______ _____ _____    ______ ____
ROOT
ATOM      1  C   UNL     1      -0.691  11.027  21.047  0.00  0.00    +0.000 A 
ATOM      2  C   UNL     1      -1.531  11.474  20.019  0.00  0.00    +0.000 A 
ATOM      3  C   UNL     1      -1.275  11.031  18.730  0.00  0.00    +0.000 A 
ATOM      4  N   UNL     1      -0.111  10.404  18.440  0.00  0.00    +0.000 NA
ATOM      5  C   UNL     1       0.571   9.830  19.432  0.00  0.00    +0.000 A 
ATOM      6  C   UNL     1       1.546   8.916  19.087  0.00  0.00    +0.000 A 
ATOM      7  C   UNL     1       1.811   7.848  19.929  0.00  0.00    +0.000 A 
ATOM      8  C   UNL     1       1.384   7.902  21.250  0.00  0.00    +0.000 A 
ATOM      9  C   UNL     1       0.720   9.040  21.708  0.00  0.00    +0.000 A 
ATOM     10  C   UNL     1       0.228   9.990  20.777  0.00  0.00    +0.000 A 
ENDROOT
BRANCH   3  11
ATOM     11  C   UNL     1      -2.259  10.995  17.616  0.00  0.00    +0.000 A 
ATOM     12  C   UNL     1      -2.058  10.140  16.521  0.00  0.00    +0.000 A 
ATOM     13  C   UNL     1      -3.060   9.966  15.577  0.00  0.00    +0.000 A 
ATOM     14  N   UNL     1      -4.251  10.590  15.634  0.00  0.00    +0.000 NA
ATOM     15  C   UNL     1      -4.451  11.410  16.681  0.00  0.00    +0.000 A 
ATOM     16  C   UNL     1      -3.503  11.647  17.680  0.00  0.00    +0.000 A 
ENDBRANCH   3  11
BRANCH   1  18
ATOM     17  N   UNL     1      -1.417  12.869  22.444  0.00  0.00    +0.000 N 
ATOM     18  C   UNL     1      -0.856  11.609  22.406  0.00  0.00    +0.000 C 
ATOM     19  O   UNL     1      -0.563  10.957  23.400  0.00  0.00    +0.000 OA
ATOM     20  H   UNL     1      -1.775  13.289  21.592  0.00  0.00    +0.000 HD
BRANCH  17  21
ATOM     21  C   UNL     1      -1.702  13.607  23.665  0.00  0.00    +0.000 C 
BRANCH  21  27
ATOM     22  C   UNL     1      -7.401  14.874  23.749  0.00  0.00    +0.000 C 
ATOM     23  C   UNL     1      -5.916  14.629  23.720  0.00  0.00    +0.000 A 
ATOM     24  C   UNL     1      -5.024  15.582  23.411  0.00  0.00    +0.000 A 
ATOM     25  C   UNL     1      -3.598  15.292  23.398  0.00  0.00    +0.000 A 
ATOM     26  C   UNL     1      -2.703  16.426  22.969  0.00  0.00    +0.000 C 
ATOM     27  C   UNL     1      -3.136  14.060  23.721  0.00  0.00    +0.000 A 
ATOM     28  C   UNL     1      -4.139  12.989  24.047  0.00  0.00    +0.000 A 
ATOM     29  O   UNL     1      -3.808  11.851  24.301  0.00  0.00    +0.000 OA
ATOM     30  N   UNL     1      -5.478  13.371  24.027  0.00  0.00    +0.000 N 
ATOM     31  H   UNL     1      -6.128  12.635  24.253  0.00  0.00    +0.000 HD
ENDBRANCH  21  27
ENDBRANCH  17  21
ENDBRANCH   1  18
TORSDOF 4
ENDMDL
MODEL 7
REMARK VINA RESULT:      -7.9      1.927      2.316
REMARK  Name = 
REMARK  6 active torsions:
REMARK  status: ('A' for Active; 'I' for Inactive)
REMARK    1  A    between atoms: C_1  and  C_2
REMARK    2  A    between atoms: C_4  and  C_5
REMARK    3  A    between atoms: C_6  and  C_7
REMARK    4  A    between atoms: C_7  and  N_8
REMARK    5  A    between atoms: C_9  and  C_11
REMARK    6  A    between atoms: C_13  and  C_14
REMARK                            x       y       z     vdW  Elec       q    Type
REMARK                         _______ _______ _______ _____ _____    ______ ____
ROOT
ATOM      1  C   UNL     1       2.625   5.756  19.911  0.00  0.00    +0.000 A 
ATOM      2  C   UNL     1       3.844   6.110  19.318  0.00  0.00    +0.000 A 
ATOM      3  C   UNL     1       4.635   5.096  18.801  0.00  0.00    +0.000 A 
ATOM      4  N   UNL     1       4.362   3.801  19.087  0.00  0.00    +0.000 NA
ATOM      5  C   UNL     1       3.128   3.478  19.476  0.00  0.00    +0.000 A 
ATOM      6  C   UNL     1       2.774   2.145  19.426  0.00  0.00    +0.000 A 
ATOM      7  C   UNL     1       1.461   1.795  19.157  0.00  0.00    +0.000 A 
ATOM      8  C   UNL     1       0.460   2.746  19.310  0.00  0.00    +0.000 A 
ATOM      9  C   UNL     1       0.793   4.025  19.755  0.00  0.00    +0.000 A 
ATOM     10  C   UNL     1       2.151   4.435  19.764  0.00  0.00    +0.000 A 
ENDROOT
BRANCH   3  11
ATOM     11  C   UNL     1       5.687   5.261  17.763  0.00  0.00    +0.000 A 
ATOM     12  C   UNL     1       5.673   4.467  16.606  0.00  0.00    +0.000 A 
ATOM     13  C   UNL     1       6.537   4.746  15.557  0.00  0.00    +0.000 A 
ATOM     14  N   UNL     1       7.426   5.755  15.574  0.00  0.00    +0.000 NA
ATOM     15  C   UNL     1       7.444   6.521  16.679  0.00  0.00    +0.000 A 
ATOM     16  C   UNL     1       6.614   6.318  17.784  0.00  0.00    +0.000 A 
ENDBRANCH   3  11
BRANCH   1  18
ATOM     17  N   UNL     1       2.221   8.108  20.333  0.00  0.00    +0.000 N 
ATOM     18  C   UNL     1       1.837   6.811  20.604  0.00  0.00    +0.000 C 
ATOM     19  O   UNL     1       0.881   6.510  21.306  0.00  0.00    +0.000 OA
ATOM     20  H   UNL     1       2.925   8.289  19.624  0.00  0.00    +0.000 HD
BRANCH  17  21
ATOM     21  C   UNL     1       1.567   9.290  20.873  0.00  0.00    +0.000 C 
BRANCH  21  27
ATOM     22  C   UNL     1      -2.328  11.273  17.001  0.00  0.00    +0.000 C 
ATOM     23  C   UNL     1      -1.379  10.778  18.061  0.00  0.00    +0.000 A 
ATOM     24  C   UNL     1      -1.598  10.944  19.373  0.00  0.00    +0.000 A 
ATOM     25  C   UNL     1      -0.648  10.445  20.356  0.00  0.00    +0.000 A 
ATOM     26  C   UNL     1      -0.971  10.754  21.795  0.00  0.00    +0.000 C 
ATOM     27  C   UNL     1       0.467   9.780  19.970  0.00  0.00    +0.000 A 
ATOM     28  C   UNL     1       0.720   9.614  18.497  0.00  0.00    +0.000 A 
ATOM     29  O   UNL     1       1.716   9.071  18.071  0.00  0.00    +0.000 OA
ATOM     30  N   UNL     1      -0.250  10.131  17.643  0.00  0.00    +0.000 N 
ATOM     31  H   UNL     1      -0.058  10.002  16.662  0.00  0.00    +0.000 HD
ENDBRANCH  21  27
ENDBRANCH  17  21
ENDBRANCH   1  18
TORSDOF 4
ENDMDL
MODEL 8
REMARK VINA RESULT:      -7.9      2.322      2.836
REMARK  Name = 
REMARK  6 active torsions:
REMARK  status: ('A' for Active; 'I' for Inactive)
REMARK    1  A    between atoms: C_1  and  C_2
REMARK    2  A    between atoms: C_4  and  C_5
REMARK    3  A    between atoms: C_6  and  C_7
REMARK    4  A    between atoms: C_7  and  N_8
REMARK    5  A    between atoms: C_9  and  C_11
REMARK    6  A    between atoms: C_13  and  C_14
REMARK                            x       y       z     vdW  Elec       q    Type
REMARK                         _______ _______ _______ _____ _____    ______ ____
ROOT
ATOM      1  C   UNL     1       2.728   5.397  19.765  0.00  0.00    +0.000 A 
ATOM      2  C   UNL     1       3.946   5.837  19.229  0.00  0.00    +0.000 A 
ATOM      3  C   UNL     1       4.779   4.893  18.646  0.00  0.00    +0.000 A 
ATOM      4  N   UNL     1       4.543   3.571  18.820  0.00  0.00    +0.000 NA
ATOM      5  C   UNL     1       3.313   3.179  19.155  0.00  0.00    +0.000 A 
ATOM      6  C   UNL     1       3.004   1.844  18.988  0.00  0.00    +0.000 A 
ATOM      7  C   UNL     1       1.708   1.478  18.664  0.00  0.00    +0.000 A 
ATOM      8  C   UNL     1       0.674   2.381  18.874  0.00  0.00    +0.000 A 
ATOM      9  C   UNL     1       0.957   3.629  19.429  0.00  0.00    +0.000 A 
ATOM     10  C   UNL     1       2.300   4.078  19.500  0.00  0.00    +0.000 A 
ENDROOT
BRANCH   3  11
ATOM     11  C   UNL     1       5.843   5.177  17.648  0.00  0.00    +0.000 A 
ATOM     12  C   UNL     1       6.001   4.350  16.525  0.00  0.00    +0.000 A 
ATOM     13  C   UNL     1       6.863   4.717  15.502  0.00  0.00    +0.000 A 
ATOM     14  N   UNL     1       7.594   5.846  15.516  0.00  0.00    +0.000 NA
ATOM     15  C   UNL     1       7.448   6.644  16.588  0.00  0.00    +0.000 A 
ATOM     16  C   UNL     1       6.604   6.359  17.664  0.00  0.00    +0.000 A 
ENDBRANCH   3  11
BRANCH   1  18
ATOM     17  N   UNL     1       2.257   7.690  20.391  0.00  0.00    +0.000 N 
ATOM     18  C   UNL     1       1.894   6.365  20.526  0.00  0.00    +0.000 C 
ATOM     19  O   UNL     1       0.923   5.981  21.163  0.00  0.00    +0.000 OA
ATOM     20  H   UNL     1       2.979   7.951  19.727  0.00  0.00    +0.000 HD
BRANCH  17  21
ATOM     21  C   UNL     1       1.558   8.803  21.015  0.00  0.00    +0.000 C 
BRANCH  21  27
ATOM     22  C   UNL     1      -2.218  11.582  17.535  0.00  0.00    +0.000 C 
ATOM     23  C   UNL     1      -1.195  10.854  18.366  0.00  0.00    +0.000 A 
ATOM     24  C   UNL     1      -0.152  10.200  17.833  0.00  0.00    +0.000 A 
ATOM     25  C   UNL     1       0.809   9.512  18.682  0.00  0.00    +0.000 A 
ATOM     26  C   UNL     1       1.895   8.756  17.963  0.00  0.00    +0.000 C 
ATOM     27  C   UNL     1       0.688   9.538  20.032  0.00  0.00    +0.000 A 
ATOM     28  C   UNL     1      -0.493  10.255  20.625  0.00  0.00    +0.000 A 
ATOM     29  O   UNL     1      -0.697  10.284  21.819  0.00  0.00    +0.000 OA
ATOM     30  N   UNL     1      -1.354  10.875  19.723  0.00  0.00    +0.000 N 
ATOM     31  H   UNL     1      -2.134  11.352  20.148  0.00  0.00    +0.000 HD
ENDBRANCH  21  27
ENDBRANCH  17  21
ENDBRANCH   1  18
TORSDOF 4
ENDMDL
MODEL 9
REMARK VINA RESULT:      -7.8      3.026      8.935
REMARK  Name = 
REMARK  6 active torsions:
REMARK  status: ('A' for Active; 'I' for Inactive)
REMARK    1  A    between atoms: C_1  and  C_2
REMARK    2  A    between atoms: C_4  and  C_5
REMARK    3  A    between atoms: C_6  and  C_7
REMARK    4  A    between atoms: C_7  and  N_8
REMARK    5  A    between atoms: C_9  and  C_11
REMARK    6  A    between atoms: C_13  and  C_14
REMARK                            x       y       z     vdW  Elec       q    Type
REMARK                         _______ _______ _______ _____ _____    ______ ____
ROOT
ATOM      1  C   UNL     1       0.582  10.649  18.744  0.00  0.00    +0.000 A 
ATOM      2  C   UNL     1      -0.707  10.391  18.260  0.00  0.00    +0.000 A 
ATOM      3  C   UNL     1      -1.773  11.025  18.879  0.00  0.00    +0.000 A 
ATOM      4  N   UNL     1      -1.599  11.660  20.063  0.00  0.00    +0.000 NA
ATOM      5  C   UNL     1      -0.370  12.053  20.404  0.00  0.00    +0.000 A 
ATOM      6  C   UNL     1      -0.259  12.984  21.416  0.00  0.00    +0.000 A 
ATOM      7  C   UNL     1       0.782  13.899  21.392  0.00  0.00    +0.000 A 
ATOM      8  C   UNL     1       1.888  13.647  20.591  0.00  0.00    +0.000 A 
ATOM      9  C   UNL     1       1.941  12.470  19.846  0.00  0.00    +0.000 A 
ATOM     10  C   UNL     1       0.767  11.692  19.677  0.00  0.00    +0.000 A 
ENDROOT
BRANCH   3  11
ATOM     11  C   UNL     1      -3.110  11.262  18.274  0.00  0.00    +0.000 A 
ATOM     12  C   UNL     1      -4.119  11.902  19.011  0.00  0.00    +0.000 A 
ATOM     13  C   UNL     1      -5.298  12.292  18.391  0.00  0.00    +0.000 A 
ATOM     14  N   UNL     1      -5.556  12.083  17.087  0.00  0.00    +0.000 NA
ATOM     15  C   UNL     1      -4.593  11.471  16.374  0.00  0.00    +0.000 A 
ATOM     16  C   UNL     1      -3.376  11.045  16.911  0.00  0.00    +0.000 A 
ENDBRANCH   3  11
BRANCH   1  18
ATOM     17  N   UNL     1       1.793   8.553  18.618  0.00  0.00    +0.000 N 
ATOM     18  C   UNL     1       1.720   9.864  18.193  0.00  0.00    +0.000 C 
ATOM     19  O   UNL     1       2.478  10.363  17.373  0.00  0.00    +0.000 OA
ATOM     20  H   UNL     1       1.044   8.162  19.181  0.00  0.00    +0.000 HD
BRANCH  17  21
ATOM     21  C   UNL     1       2.800   7.600  18.177  0.00  0.00    +0.000 C 
BRANCH  21  27
ATOM     22  C   UNL     1       2.421   2.815  21.502  0.00  0.00    +0.000 C 
ATOM     23  C   UNL     1       2.542   4.000  20.581  0.00  0.00    +0.000 A 
ATOM     24  C   UNL     1       3.098   3.924  19.363  0.00  0.00    +0.000 A 
ATOM     25  C   UNL     1       3.190   5.101  18.511  0.00  0.00    +0.000 A 
ATOM     26  C   UNL     1       3.896   4.904  17.195  0.00  0.00    +0.000 C 
ATOM     27  C   UNL     1       2.694   6.295  18.919  0.00  0.00    +0.000 A 
ATOM     28  C   UNL     1       2.091   6.381  20.293  0.00  0.00    +0.000 A 
ATOM     29  O   UNL     1       1.667   7.421  20.748  0.00  0.00    +0.000 OA
ATOM     30  N   UNL     1       2.056   5.197  21.026  0.00  0.00    +0.000 N 
ATOM     31  H   UNL     1       1.642   5.282  21.941  0.00  0.00    +0.000 HD
ENDBRANCH  21  27
ENDBRANCH  17  21
ENDBRANCH   1  18
TORSDOF 4
ENDMDL
