MODEL 1
REMARK VINA RESULT:      -7.6      0.000      0.000
REMARK  Name = 
REMARK  6 active torsions:
REMARK  status: ('A' for Active; 'I' for Inactive)
REMARK    1  A    between atoms: N_1  and  C_2
REMARK    2  A    between atoms: C_2  and  C_3
REMARK    3  A    between atoms: C_7  and  N_8
REMARK    4  A    between atoms: C_13  and  C_14
REMARK    5  A    between atoms: C_14  and  N_15
REMARK    6  A    between atoms: C_21  and  C_22
REMARK                            x       y       z     vdW  Elec       q    Type
REMARK                         _______ _______ _______ _____ _____    ______ ____
ROOT
ATOM      1  N   UNL     1       2.738   7.073  19.510  0.00  0.00    +0.000 N 
ATOM      2  C   UNL     1       2.350   7.885  20.696  0.00  0.00    +0.000 C 
ATOM      3  C   UNL     1       1.292   8.786  20.137  0.00  0.00    +0.000 A 
ATOM      4  C   UNL     1       1.521   8.880  18.766  0.00  0.00    +0.000 A 
ATOM      5  C   UNL     1       0.633   9.467  17.894  0.00  0.00    +0.000 A 
ATOM      6  C   UNL     1      -0.497  10.090  18.429  0.00  0.00    +0.000 A 
ATOM      7  C   UNL     1      -0.737  10.004  19.823  0.00  0.00    +0.000 A 
ATOM      8  C   UNL     1       0.143   9.330  20.699  0.00  0.00    +0.000 A 
ATOM      9  C   UNL     1       2.587   7.929  18.399  0.00  0.00    +0.000 C 
ATOM     10  O   UNL     1       3.045   7.823  17.275  0.00  0.00    +0.000 OA
ENDROOT
BRANCH   1  15
ATOM     11  C   UNL     1       2.011   3.597  18.600  0.00  0.00    +0.000 A 
ATOM     12  C   UNL     1       1.585   3.130  19.856  0.00  0.00    +0.000 A 
ATOM     13  C   UNL     1       1.181   4.032  20.837  0.00  0.00    +0.000 A 
ATOM     14  C   UNL     1       1.282   5.399  20.611  0.00  0.00    +0.000 A 
ATOM     15  C   UNL     1       1.942   5.859  19.452  0.00  0.00    +0.000 A 
ATOM     16  C   UNL     1       2.181   4.975  18.401  0.00  0.00    +0.000 A 
BRANCH  11  17
ATOM     17  C   UNL     1       2.388   2.632  17.512  0.00  0.00    +0.000 C 
BRANCH  17  18
ATOM     18  N   UNL     1       3.122   1.493  18.056  0.00  0.00    +0.000 NA
ATOM     19  H   UNL     1       3.138   1.577  19.070  0.00  0.00    +0.000 HD
ATOM     20  H   UNL     1       4.084   1.539  17.744  0.00  0.00    +0.000 HD
ENDBRANCH  17  18
ENDBRANCH  11  17
ENDBRANCH   1  15
BRANCH   8  21
ATOM     21  C   UNL     1      -0.244   9.153  22.146  0.00  0.00    +0.000 C 
ATOM     22  F   UNL     1      -1.024  10.150  22.641  0.00  0.00    +0.000 F 
ATOM     23  F   UNL     1      -0.933   8.001  22.364  0.00  0.00    +0.000 F 
ATOM     24  F   UNL     1       0.846   9.092  22.966  0.00  0.00    +0.000 F 
ENDBRANCH   8  21
BRANCH   6  25
ATOM     25  C   UNL     1      -1.432  10.849  17.510  0.00  0.00    +0.000 C 
BRANCH  25  26
ATOM     26  N   UNL     1      -2.598  10.105  17.009  0.00  0.00    +0.000 NA
ATOM     27  C   UNL     1      -2.777  10.160  15.561  0.00  0.00    +0.000 C 
ATOM     28  C   UNL     1      -3.924  11.111  15.414  0.00  0.00    +0.000 C 
ATOM     29  N   UNL     1      -4.567  11.410  16.496  0.00  0.00    +0.000 NA
ATOM     30  C   UNL     1      -3.864  10.628  17.529  0.00  0.00    +0.000 C 
ENDBRANCH  25  26
ENDBRANCH   6  25
TORSDOF 6
ENDMDL
MODEL 2
REMARK VINA RESULT:      -7.4      4.609      6.301
REMARK  Name = 
REMARK  6 active torsions:
REMARK  status: ('A' for Active; 'I' for Inactive)
REMARK    1  A    between atoms: N_1  and  C_2
REMARK    2  A    between atoms: C_2  and  C_3
REMARK    3  A    between atoms: C_7  and  N_8
REMARK    4  A    between atoms: C_13  and  C_14
REMARK    5  A    between atoms: C_14  and  N_15
REMARK    6  A    between atoms: C_21  and  C_22
REMARK                            x       y       z     vdW  Elec       q    Type
REMARK                         _______ _______ _______ _____ _____    ______ ____
ROOT
ATOM      1  N   UNL     1       6.237   5.233  16.871  0.00  0.00    +0.000 N 
ATOM      2  C   UNL     1       5.329   4.360  17.664  0.00  0.00    +0.000 C 
ATOM      3  C   UNL     1       4.152   5.254  17.906  0.00  0.00    +0.000 A 
ATOM      4  C   UNL     1       4.611   6.565  17.811  0.00  0.00    +0.000 A 
ATOM      5  C   UNL     1       3.773   7.656  17.783  0.00  0.00    +0.000 A 
ATOM      6  C   UNL     1       2.406   7.436  17.967  0.00  0.00    +0.000 A 
ATOM      7  C   UNL     1       1.927   6.107  18.069  0.00  0.00    +0.000 A 
ATOM      8  C   UNL     1       2.792   4.989  18.018  0.00  0.00    +0.000 A 
ATOM      9  C   UNL     1       6.010   6.543  17.343  0.00  0.00    +0.000 C 
ATOM     10  O   UNL     1       6.700   7.538  17.216  0.00  0.00    +0.000 OA
ENDROOT
BRANCH   1  15
ATOM     11  C   UNL     1       7.158   4.940  13.335  0.00  0.00    +0.000 A 
ATOM     12  C   UNL     1       6.443   3.771  13.021  0.00  0.00    +0.000 A 
ATOM     13  C   UNL     1       5.398   3.351  13.839  0.00  0.00    +0.000 A 
ATOM     14  C   UNL     1       5.116   4.034  15.016  0.00  0.00    +0.000 A 
ATOM     15  C   UNL     1       5.992   5.050  15.450  0.00  0.00    +0.000 A 
ATOM     16  C   UNL     1       6.920   5.585  14.557  0.00  0.00    +0.000 A 
BRANCH  11  17
ATOM     17  C   UNL     1       8.245   5.439  12.425  0.00  0.00    +0.000 C 
BRANCH  17  18
ATOM     18  N   UNL     1       9.283   6.132  13.183  0.00  0.00    +0.000 NA
ATOM     19  H   UNL     1       9.335   7.092  12.852  0.00  0.00    +0.000 HD
ATOM     20  H   UNL     1      10.179   5.705  12.986  0.00  0.00    +0.000 HD
ENDBRANCH  17  18
ENDBRANCH  11  17
ENDBRANCH   1  15
BRANCH   8  21
ATOM     21  C   UNL     1       2.205   3.601  17.988  0.00  0.00    +0.000 C 
ATOM     22  F   UNL     1       2.430   2.923  16.832  0.00  0.00    +0.000 F 
ATOM     23  F   UNL     1       2.690   2.808  18.982  0.00  0.00    +0.000 F 
ATOM     24  F   UNL     1       0.849   3.612  18.154  0.00  0.00    +0.000 F 
ENDBRANCH   8  21
BRANCH   6  25
ATOM     25  C   UNL     1       1.469   8.623  18.063  0.00  0.00    +0.000 C 
BRANCH  25  26
ATOM     26  N   UNL     1       1.578   9.443  19.279  0.00  0.00    +0.000 NA
ATOM     27  C   UNL     1       1.227   8.747  20.514  0.00  0.00    +0.000 C 
ATOM     28  C   UNL     1      -0.122   9.315  20.831  0.00  0.00    +0.000 C 
ATOM     29  N   UNL     1      -0.485  10.353  20.151  0.00  0.00    +0.000 NA
ATOM     30  C   UNL     1       0.669  10.593  19.265  0.00  0.00    +0.000 C 
ENDBRANCH  25  26
ENDBRANCH   6  25
TORSDOF 6
ENDMDL
MODEL 3
REMARK VINA RESULT:      -7.2      4.944      7.552
REMARK  Name = 
REMARK  6 active torsions:
REMARK  status: ('A' for Active; 'I' for Inactive)
REMARK    1  A    between atoms: N_1  and  C_2
REMARK    2  A    between atoms: C_2  and  C_3
REMARK    3  A    between atoms: C_7  and  N_8
REMARK    4  A    between atoms: C_13  and  C_14
REMARK    5  A    between atoms: C_14  and  N_15
REMARK    6  A    between atoms: C_21  and  C_22
REMARK                            x       y       z     vdW  Elec       q    Type
REMARK                         _______ _______ _______ _____ _____    ______ ____
ROOT
ATOM      1  N   UNL     1       6.093   5.596  15.533  0.00  0.00    +0.000 N 
ATOM      2  C   UNL     1       4.894   6.432  15.811  0.00  0.00    +0.000 C 
ATOM      3  C   UNL     1       4.090   5.552  16.719  0.00  0.00    +0.000 A 
ATOM      4  C   UNL     1       4.482   4.239  16.463  0.00  0.00    +0.000 A 
ATOM      5  C   UNL     1       4.099   3.174  17.244  0.00  0.00    +0.000 A 
ATOM      6  C   UNL     1       3.189   3.413  18.276  0.00  0.00    +0.000 A 
ATOM      7  C   UNL     1       2.780   4.743  18.543  0.00  0.00    +0.000 A 
ATOM      8  C   UNL     1       3.242   5.840  17.782  0.00  0.00    +0.000 A 
ATOM      9  C   UNL     1       5.636   4.262  15.544  0.00  0.00    +0.000 C 
ATOM     10  O   UNL     1       6.165   3.262  15.093  0.00  0.00    +0.000 OA
ENDROOT
BRANCH   1  15
ATOM     11  C   UNL     1       7.968   7.670  17.904  0.00  0.00    +0.000 A 
ATOM     12  C   UNL     1       8.016   6.772  18.986  0.00  0.00    +0.000 A 
ATOM     13  C   UNL     1       7.791   5.414  18.777  0.00  0.00    +0.000 A 
ATOM     14  C   UNL     1       7.430   4.953  17.516  0.00  0.00    +0.000 A 
ATOM     15  C   UNL     1       7.140   5.886  16.498  0.00  0.00    +0.000 A 
ATOM     16  C   UNL     1       7.534   7.214  16.651  0.00  0.00    +0.000 A 
BRANCH  11  17
ATOM     17  C   UNL     1       8.272   9.127  18.106  0.00  0.00    +0.000 C 
BRANCH  17  18
ATOM     18  N   UNL     1       9.100   9.328  19.292  0.00  0.00    +0.000 NA
ATOM     19  H   UNL     1      10.068   9.137  19.042  0.00  0.00    +0.000 HD
ATOM     20  H   UNL     1       8.841   8.649  19.997  0.00  0.00    +0.000 HD
ENDBRANCH  17  18
ENDBRANCH  11  17
ENDBRANCH   1  15
BRANCH   8  21
ATOM     21  C   UNL     1       2.882   7.241  18.207  0.00  0.00    +0.000 C 
ATOM     22  F   UNL     1       1.805   7.761  17.563  0.00  0.00    +0.000 F 
ATOM     23  F   UNL     1       2.596   7.325  19.535  0.00  0.00    +0.000 F 
ATOM     24  F   UNL     1       3.904   8.122  17.993  0.00  0.00    +0.000 F 
ENDBRANCH   8  21
BRANCH   6  25
ATOM     25  C   UNL     1       2.653   2.245  19.079  0.00  0.00    +0.000 C 
BRANCH  25  26
ATOM     26  N   UNL     1       1.594   2.555  20.052  0.00  0.00    +0.000 NA
ATOM     27  C   UNL     1       1.341   3.981  20.243  0.00  0.00    +0.000 C 
ATOM     28  C   UNL     1       1.975   4.245  21.573  0.00  0.00    +0.000 C 
ATOM     29  N   UNL     1       2.320   3.207  22.264  0.00  0.00    +0.000 NA
ATOM     30  C   UNL     1       1.914   2.081  21.402  0.00  0.00    +0.000 C 
ENDBRANCH  25  26
ENDBRANCH   6  25
TORSDOF 6
ENDMDL
MODEL 4
REMARK VINA RESULT:      -7.2      4.926      7.517
REMARK  Name = 
REMARK  6 active torsions:
REMARK  status: ('A' for Active; 'I' for Inactive)
REMARK    1  A    between atoms: N_1  and  C_2
REMARK    2  A    between atoms: C_2  and  C_3
REMARK    3  A    between atoms: C_7  and  N_8
REMARK    4  A    between atoms: C_13  and  C_14
REMARK    5  A    between atoms: C_14  and  N_15
REMARK    6  A    between atoms: C_21  and  C_22
REMARK                            x       y       z     vdW  Elec       q    Type
REMARK                         _______ _______ _______ _____ _____    ______ ____
ROOT
ATOM      1  N   UNL     1       6.206   5.650  15.551  0.00  0.00    +0.000 N 
ATOM      2  C   UNL     1       5.101   6.615  15.803  0.00  0.00    +0.000 C 
ATOM      3  C   UNL     1       4.106   5.778  16.548  0.00  0.00    +0.000 A 
ATOM      4  C   UNL     1       4.351   4.451  16.202  0.00  0.00    +0.000 A 
ATOM      5  C   UNL     1       3.760   3.386  16.841  0.00  0.00    +0.000 A 
ATOM      6  C   UNL     1       2.789   3.658  17.808  0.00  0.00    +0.000 A 
ATOM      7  C   UNL     1       2.529   5.005  18.165  0.00  0.00    +0.000 A 
ATOM      8  C   UNL     1       3.200   6.089  17.555  0.00  0.00    +0.000 A 
ATOM      9  C   UNL     1       5.583   4.394  15.393  0.00  0.00    +0.000 C 
ATOM     10  O   UNL     1       6.023   3.373  14.896  0.00  0.00    +0.000 OA
ENDROOT
BRANCH   1  15
ATOM     11  C   UNL     1       8.022   7.215  18.324  0.00  0.00    +0.000 A 
ATOM     12  C   UNL     1       7.894   6.187  19.274  0.00  0.00    +0.000 A 
ATOM     13  C   UNL     1       7.576   4.895  18.866  0.00  0.00    +0.000 A 
ATOM     14  C   UNL     1       7.295   4.635  17.530  0.00  0.00    +0.000 A 
ATOM     15  C   UNL     1       7.180   5.713  16.627  0.00  0.00    +0.000 A 
ATOM     16  C   UNL     1       7.668   6.967  16.990  0.00  0.00    +0.000 A 
BRANCH  11  17
ATOM     17  C   UNL     1       8.428   8.599  18.745  0.00  0.00    +0.000 C 
BRANCH  17  18
ATOM     18  N   UNL     1       8.035   9.586  17.743  0.00  0.00    +0.000 NA
ATOM     19  H   UNL     1       7.320   9.172  17.150  0.00  0.00    +0.000 HD
ATOM     20  H   UNL     1       8.829   9.788  17.147  0.00  0.00    +0.000 HD
ENDBRANCH  17  18
ENDBRANCH  11  17
ENDBRANCH   1  15
BRANCH   8  21
ATOM     21  C   UNL     1       2.981   7.485  18.081  0.00  0.00    +0.000 C 
ATOM     22  F   UNL     1       4.072   8.291  18.000  0.00  0.00    +0.000 F 
ATOM     23  F   UNL     1       1.987   8.140  17.422  0.00  0.00    +0.000 F 
ATOM     24  F   UNL     1       2.614   7.487  19.397  0.00  0.00    +0.000 F 
ENDBRANCH   8  21
BRANCH   6  25
ATOM     25  C   UNL     1       2.032   2.511  18.445  0.00  0.00    +0.000 C 
BRANCH  25  26
ATOM     26  N   UNL     1       2.401   2.176  19.828  0.00  0.00    +0.000 NA
ATOM     27  C   UNL     1       1.354   2.431  20.815  0.00  0.00    +0.000 C 
ATOM     28  C   UNL     1       1.846   3.673  21.493  0.00  0.00    +0.000 C 
ATOM     29  N   UNL     1       3.066   4.022  21.242  0.00  0.00    +0.000 NA
ATOM     30  C   UNL     1       3.531   2.972  20.317  0.00  0.00    +0.000 C 
ENDBRANCH  25  26
ENDBRANCH   6  25
TORSDOF 6
ENDMDL
MODEL 5
REMARK VINA RESULT:      -7.2      4.692      6.260
REMARK  Name = 
REMARK  6 active torsions:
REMARK  status: ('A' for Active; 'I' for Inactive)
REMARK    1  A    between atoms: N_1  and  C_2
REMARK    2  A    between atoms: C_2  and  C_3
REMARK    3  A    between atoms: C_7  and  N_8
REMARK    4  A    between atoms: C_13  and  C_14
REMARK    5  A    between atoms: C_14  and  N_15
REMARK    6  A    between atoms: C_21  and  C_22
REMARK                            x       y       z     vdW  Elec       q    Type
REMARK                         _______ _______ _______ _____ _____    ______ ____
ROOT
ATOM      1  N   UNL     1       6.307   5.008  16.774  0.00  0.00    +0.000 N 
ATOM      2  C   UNL     1       5.248   4.272  17.517  0.00  0.00    +0.000 C 
ATOM      3  C   UNL     1       4.230   5.342  17.772  0.00  0.00    +0.000 A 
ATOM      4  C   UNL     1       4.904   6.561  17.734  0.00  0.00    +0.000 A 
ATOM      5  C   UNL     1       4.260   7.777  17.733  0.00  0.00    +0.000 A 
ATOM      6  C   UNL     1       2.872   7.783  17.884  0.00  0.00    +0.000 A 
ATOM      7  C   UNL     1       2.176   6.549  17.927  0.00  0.00    +0.000 A 
ATOM      8  C   UNL     1       2.843   5.305  17.849  0.00  0.00    +0.000 A 
ATOM      9  C   UNL     1       6.290   6.320  17.291  0.00  0.00    +0.000 C 
ATOM     10  O   UNL     1       7.140   7.190  17.215  0.00  0.00    +0.000 OA
ENDROOT
BRANCH   1  15
ATOM     11  C   UNL     1       7.242   4.979  13.230  0.00  0.00    +0.000 A 
ATOM     12  C   UNL     1       6.554   3.819  12.834  0.00  0.00    +0.000 A 
ATOM     13  C   UNL     1       5.517   3.320  13.617  0.00  0.00    +0.000 A 
ATOM     14  C   UNL     1       5.217   3.915  14.838  0.00  0.00    +0.000 A 
ATOM     15  C   UNL     1       6.070   4.918  15.343  0.00  0.00    +0.000 A 
ATOM     16  C   UNL     1       6.988   5.533  14.493  0.00  0.00    +0.000 A 
BRANCH  11  17
ATOM     17  C   UNL     1       8.320   5.562  12.361  0.00  0.00    +0.000 C 
BRANCH  17  18
ATOM     18  N   UNL     1       9.356   6.196  13.169  0.00  0.00    +0.000 NA
ATOM     19  H   UNL     1      10.240   6.126  12.670  0.00  0.00    +0.000 HD
ATOM     20  H   UNL     1       9.467   5.679  14.033  0.00  0.00    +0.000 HD
ENDBRANCH  17  18
ENDBRANCH  11  17
ENDBRANCH   1  15
BRANCH   8  21
ATOM     21  C   UNL     1       2.034   4.036  17.756  0.00  0.00    +0.000 C 
ATOM     22  F   UNL     1       0.702   4.235  17.571  0.00  0.00    +0.000 F 
ATOM     23  F   UNL     1       2.435   3.236  16.732  0.00  0.00    +0.000 F 
ATOM     24  F   UNL     1       2.142   3.274  18.884  0.00  0.00    +0.000 F 
ENDBRANCH   8  21
BRANCH   6  25
ATOM     25  C   UNL     1       2.144   9.105  18.008  0.00  0.00    +0.000 C 
BRANCH  25  26
ATOM     26  N   UNL     1       0.872   9.082  18.747  0.00  0.00    +0.000 NA
ATOM     27  C   UNL     1      -0.064  10.142  18.380  0.00  0.00    +0.000 C 
ATOM     28  C   UNL     1       0.041  11.081  19.541  0.00  0.00    +0.000 C 
ATOM     29  N   UNL     1       0.667  10.641  20.584  0.00  0.00    +0.000 NA
ATOM     30  C   UNL     1       1.056   9.275  20.188  0.00  0.00    +0.000 C 
ENDBRANCH  25  26
ENDBRANCH   6  25
TORSDOF 6
ENDMDL
MODEL 6
REMARK VINA RESULT:      -7.1      0.779      1.075
REMARK  Name = 
REMARK  6 active torsions:
REMARK  status: ('A' for Active; 'I' for Inactive)
REMARK    1  A    between atoms: N_1  and  C_2
REMARK    2  A    between atoms: C_2  and  C_3
REMARK    3  A    between atoms: C_7  and  N_8
REMARK    4  A    between atoms: C_13  and  C_14
REMARK    5  A    between atoms: C_14  and  N_15
REMARK    6  A    between atoms: C_21  and  C_22
REMARK                            x       y       z     vdW  Elec       q    Type
REMARK                         _______ _______ _______ _____ _____    ______ ____
ROOT
ATOM      1  N   UNL     1       2.581   7.565  19.410  0.00  0.00    +0.000 N 
ATOM      2  C   UNL     1       2.206   8.290  20.655  0.00  0.00    +0.000 C 
ATOM      3  C   UNL     1       1.070   9.152  20.196  0.00  0.00    +0.000 A 
ATOM      4  C   UNL     1       1.224   9.330  18.823  0.00  0.00    +0.000 A 
ATOM      5  C   UNL     1       0.261   9.905  18.026  0.00  0.00    +0.000 A 
ATOM      6  C   UNL     1      -0.876  10.429  18.647  0.00  0.00    +0.000 A 
ATOM      7  C   UNL     1      -1.041  10.257  20.044  0.00  0.00    +0.000 A 
ATOM      8  C   UNL     1      -0.080   9.594  20.840  0.00  0.00    +0.000 A 
ATOM      9  C   UNL     1       2.325   8.467  18.356  0.00  0.00    +0.000 C 
ATOM     10  O   UNL     1       2.732   8.446  17.208  0.00  0.00    +0.000 OA
ENDROOT
BRANCH   1  15
ATOM     11  C   UNL     1       2.047   4.081  18.404  0.00  0.00    +0.000 A 
ATOM     12  C   UNL     1       1.662   3.553  19.649  0.00  0.00    +0.000 A 
ATOM     13  C   UNL     1       1.218   4.401  20.660  0.00  0.00    +0.000 A 
ATOM     14  C   UNL     1       1.237   5.778  20.474  0.00  0.00    +0.000 A 
ATOM     15  C   UNL     1       1.856   6.310  19.323  0.00  0.00    +0.000 A 
ATOM     16  C   UNL     1       2.134   5.472  18.244  0.00  0.00    +0.000 A 
BRANCH  11  17
ATOM     17  C   UNL     1       2.466   3.172  17.284  0.00  0.00    +0.000 C 
BRANCH  17  18
ATOM     18  N   UNL     1       2.099   1.789  17.570  0.00  0.00    +0.000 NA
ATOM     19  H   UNL     1       1.750   1.367  16.713  0.00  0.00    +0.000 HD
ATOM     20  H   UNL     1       1.334   1.778  18.233  0.00  0.00    +0.000 HD
ENDBRANCH  17  18
ENDBRANCH  11  17
ENDBRANCH   1  15
BRANCH   8  21
ATOM     21  C   UNL     1      -0.383   9.320  22.291  0.00  0.00    +0.000 C 
ATOM     22  F   UNL     1       0.713   9.277  23.093  0.00  0.00    +0.000 F 
ATOM     23  F   UNL     1      -1.206  10.256  22.838  0.00  0.00    +0.000 F 
ATOM     24  F   UNL     1      -1.018   8.124  22.466  0.00  0.00    +0.000 F 
ENDBRANCH   8  21
BRANCH   6  25
ATOM     25  C   UNL     1      -1.899  11.175  17.816  0.00  0.00    +0.000 C 
BRANCH  25  26
ATOM     26  N   UNL     1      -3.256  10.608  17.790  0.00  0.00    +0.000 NA
ATOM     27  C   UNL     1      -3.933  10.710  16.500  0.00  0.00    +0.000 C 
ATOM     28  C   UNL     1      -4.917  11.813  16.739  0.00  0.00    +0.000 C 
ATOM     29  N   UNL     1      -5.083  12.181  17.968  0.00  0.00    +0.000 NA
ATOM     30  C   UNL     1      -4.169  11.293  18.709  0.00  0.00    +0.000 C 
ENDBRANCH  25  26
ENDBRANCH   6  25
TORSDOF 6
ENDMDL
MODEL 7
REMARK VINA RESULT:      -7.1      4.257      6.963
REMARK  Name = 
REMARK  6 active torsions:
REMARK  status: ('A' for Active; 'I' for Inactive)
REMARK    1  A    between atoms: N_1  and  C_2
REMARK    2  A    between atoms: C_2  and  C_3
REMARK    3  A    between atoms: C_7  and  N_8
REMARK    4  A    between atoms: C_13  and  C_14
REMARK    5  A    between atoms: C_14  and  N_15
REMARK    6  A    between atoms: C_21  and  C_22
REMARK                            x       y       z     vdW  Elec       q    Type
REMARK                         _______ _______ _______ _____ _____    ______ ____
ROOT
ATOM      1  N   UNL     1      -0.293  11.261  18.270  0.00  0.00    +0.000 N 
ATOM      2  C   UNL     1       0.410  10.439  19.293  0.00  0.00    +0.000 C 
ATOM      3  C   UNL     1       0.027  11.119  20.572  0.00  0.00    +0.000 A 
ATOM      4  C   UNL     1      -0.296  12.436  20.250  0.00  0.00    +0.000 A 
ATOM      5  C   UNL     1      -0.881  13.306  21.142  0.00  0.00    +0.000 A 
ATOM      6  C   UNL     1      -1.055  12.875  22.459  0.00  0.00    +0.000 A 
ATOM      7  C   UNL     1      -0.726  11.539  22.798  0.00  0.00    +0.000 A 
ATOM      8  C   UNL     1      -0.199  10.630  21.853  0.00  0.00    +0.000 A 
ATOM      9  C   UNL     1      -0.302  12.576  18.782  0.00  0.00    +0.000 C 
ATOM     10  O   UNL     1      -0.496  13.628  18.201  0.00  0.00    +0.000 OA
ENDROOT
BRANCH   1  15
ATOM     11  C   UNL     1      -3.915  11.375  17.724  0.00  0.00    +0.000 A 
ATOM     12  C   UNL     1      -3.982  10.600  16.553  0.00  0.00    +0.000 A 
ATOM     13  C   UNL     1      -2.927   9.759  16.211  0.00  0.00    +0.000 A 
ATOM     14  C   UNL     1      -1.766   9.749  16.977  0.00  0.00    +0.000 A 
ATOM     15  C   UNL     1      -1.608  10.707  18.000  0.00  0.00    +0.000 A 
ATOM     16  C   UNL     1      -2.718  11.418  18.453  0.00  0.00    +0.000 A 
BRANCH  11  17
ATOM     17  C   UNL     1      -5.074  12.237  18.138  0.00  0.00    +0.000 C 
BRANCH  17  18
ATOM     18  N   UNL     1      -6.163  12.147  17.170  0.00  0.00    +0.000 NA
ATOM     19  H   UNL     1      -6.004  11.331  16.585  0.00  0.00    +0.000 HD
ATOM     20  H   UNL     1      -6.133  12.955  16.560  0.00  0.00    +0.000 HD
ENDBRANCH  17  18
ENDBRANCH  11  17
ENDBRANCH   1  15
BRANCH   8  21
ATOM     21  C   UNL     1      -0.004   9.186  22.242  0.00  0.00    +0.000 C 
ATOM     22  F   UNL     1      -0.856   8.323  21.630  0.00  0.00    +0.000 F 
ATOM     23  F   UNL     1       1.248   8.734  21.961  0.00  0.00    +0.000 F 
ATOM     24  F   UNL     1      -0.175   8.989  23.583  0.00  0.00    +0.000 F 
ENDBRANCH   8  21
BRANCH   6  25
ATOM     25  C   UNL     1      -1.584  13.845  23.495  0.00  0.00    +0.000 C 
BRANCH  25  26
ATOM     26  N   UNL     1      -3.035  14.084  23.483  0.00  0.00    +0.000 NA
ATOM     27  C   UNL     1      -3.671  14.025  24.797  0.00  0.00    +0.000 C 
ATOM     28  C   UNL     1      -4.373  12.702  24.755  0.00  0.00    +0.000 C 
ATOM     29  N   UNL     1      -4.449  12.126  23.600  0.00  0.00    +0.000 NA
ATOM     30  C   UNL     1      -3.764  13.078  22.706  0.00  0.00    +0.000 C 
ENDBRANCH  25  26
ENDBRANCH   6  25
TORSDOF 6
ENDMDL
MODEL 8
REMARK VINA RESULT:      -6.9      4.294      6.918
REMARK  Name = 
REMARK  6 active torsions:
REMARK  status: ('A' for Active; 'I' for Inactive)
REMARK    1  A    between atoms: N_1  and  C_2
REMARK    2  A    between atoms: C_2  and  C_3
REMARK    3  A    between atoms: C_7  and  N_8
REMARK    4  A    between atoms: C_13  and  C_14
REMARK    5  A    between atoms: C_14  and  N_15
REMARK    6  A    between atoms: C_21  and  C_22
REMARK                            x       y       z     vdW  Elec       q    Type
REMARK                         _______ _______ _______ _____ _____    ______ ____
ROOT
ATOM      1  N   UNL     1      -0.250  11.285  18.370  0.00  0.00    +0.000 N 
ATOM      2  C   UNL     1       0.438  10.488  19.423  0.00  0.00    +0.000 C 
ATOM      3  C   UNL     1      -0.004  11.167  20.682  0.00  0.00    +0.000 A 
ATOM      4  C   UNL     1      -0.350  12.473  20.340  0.00  0.00    +0.000 A 
ATOM      5  C   UNL     1      -0.986  13.334  21.204  0.00  0.00    +0.000 A 
ATOM      6  C   UNL     1      -1.194  12.908  22.518  0.00  0.00    +0.000 A 
ATOM      7  C   UNL     1      -0.842  11.584  22.879  0.00  0.00    +0.000 A 
ATOM      8  C   UNL     1      -0.261  10.681  21.959  0.00  0.00    +0.000 A 
ATOM      9  C   UNL     1      -0.309  12.602  18.871  0.00  0.00    +0.000 C 
ATOM     10  O   UNL     1      -0.510  13.645  18.275  0.00  0.00    +0.000 OA
ENDROOT
BRANCH   1  15
ATOM     11  C   UNL     1      -3.865  11.293  17.769  0.00  0.00    +0.000 A 
ATOM     12  C   UNL     1      -3.887  10.555  16.572  0.00  0.00    +0.000 A 
ATOM     13  C   UNL     1      -2.798   9.763  16.220  0.00  0.00    +0.000 A 
ATOM     14  C   UNL     1      -1.650   9.767  17.004  0.00  0.00    +0.000 A 
ATOM     15  C   UNL     1      -1.541  10.695  18.060  0.00  0.00    +0.000 A 
ATOM     16  C   UNL     1      -2.682  11.353  18.518  0.00  0.00    +0.000 A 
BRANCH  11  17
ATOM     17  C   UNL     1      -5.059  12.101  18.191  0.00  0.00    +0.000 C 
BRANCH  17  18
ATOM     18  N   UNL     1      -6.138  11.987  17.214  0.00  0.00    +0.000 NA
ATOM     19  H   UNL     1      -5.726  11.932  16.287  0.00  0.00    +0.000 HD
ATOM     20  H   UNL     1      -6.697  12.832  17.236  0.00  0.00    +0.000 HD
ENDBRANCH  17  18
ENDBRANCH  11  17
ENDBRANCH   1  15
BRANCH   8  21
ATOM     21  C   UNL     1      -0.044   9.246  22.367  0.00  0.00    +0.000 C 
ATOM     22  F   UNL     1      -0.238   9.005  23.690  0.00  0.00    +0.000 F 
ATOM     23  F   UNL     1      -0.868   8.387  21.709  0.00  0.00    +0.000 F 
ATOM     24  F   UNL     1       1.225   8.821  22.094  0.00  0.00    +0.000 F 
ENDBRANCH   8  21
BRANCH   6  25
ATOM     25  C   UNL     1      -1.781  13.873  23.528  0.00  0.00    +0.000 C 
BRANCH  25  26
ATOM     26  N   UNL     1      -3.128  13.554  24.025  0.00  0.00    +0.000 NA
ATOM     27  C   UNL     1      -4.086  13.178  22.989  0.00  0.00    +0.000 C 
ATOM     28  C   UNL     1      -4.939  14.404  22.879  0.00  0.00    +0.000 C 
ATOM     29  N   UNL     1      -4.794  15.293  23.807  0.00  0.00    +0.000 NA
ATOM     30  C   UNL     1      -3.769  14.697  24.684  0.00  0.00    +0.000 C 
ENDBRANCH  25  26
ENDBRANCH   6  25
TORSDOF 6
ENDMDL
MODEL 9
REMARK VINA RESULT:      -6.8      4.413      7.440
REMARK  Name = 
REMARK  6 active torsions:
REMARK  status: ('A' for Active; 'I' for Inactive)
REMARK    1  A    between atoms: N_1  and  C_2
REMARK    2  A    between atoms: C_2  and  C_3
REMARK    3  A    between atoms: C_7  and  N_8
REMARK    4  A    between atoms: C_13  and  C_14
REMARK    5  A    between atoms: C_14  and  N_15
REMARK    6  A    between atoms: C_21  and  C_22
REMARK                            x       y       z     vdW  Elec       q    Type
REMARK                         _______ _______ _______ _____ _____    ______ ____
ROOT
ATOM      1  N   UNL     1      -0.250  11.423  18.490  0.00  0.00    +0.000 N 
ATOM      2  C   UNL     1       0.434  10.677  19.580  0.00  0.00    +0.000 C 
ATOM      3  C   UNL     1      -0.071  11.367  20.810  0.00  0.00    +0.000 A 
ATOM      4  C   UNL     1      -0.454  12.651  20.427  0.00  0.00    +0.000 A 
ATOM      5  C   UNL     1      -1.147  13.506  21.252  0.00  0.00    +0.000 A 
ATOM      6  C   UNL     1      -1.379  13.102  22.569  0.00  0.00    +0.000 A 
ATOM      7  C   UNL     1      -0.990  11.800  22.971  0.00  0.00    +0.000 A 
ATOM      8  C   UNL     1      -0.348  10.900  22.090  0.00  0.00    +0.000 A 
ATOM      9  C   UNL     1      -0.373  12.748  18.958  0.00  0.00    +0.000 C 
ATOM     10  O   UNL     1      -0.595  13.770  18.332  0.00  0.00    +0.000 OA
ENDROOT
BRANCH   1  15
ATOM     11  C   UNL     1      -3.837  11.289  17.743  0.00  0.00    +0.000 A 
ATOM     12  C   UNL     1      -3.786  10.497  16.582  0.00  0.00    +0.000 A 
ATOM     13  C   UNL     1      -2.660   9.725  16.311  0.00  0.00    +0.000 A 
ATOM     14  C   UNL     1      -1.546   9.802  17.140  0.00  0.00    +0.000 A 
ATOM     15  C   UNL     1      -1.509  10.780  18.155  0.00  0.00    +0.000 A 
ATOM     16  C   UNL     1      -2.688  11.420  18.537  0.00  0.00    +0.000 A 
BRANCH  11  17
ATOM     17  C   UNL     1      -5.071  12.076  18.079  0.00  0.00    +0.000 C 
BRANCH  17  18
ATOM     18  N   UNL     1      -6.269  11.407  17.580  0.00  0.00    +0.000 NA
ATOM     19  H   UNL     1      -6.294  11.510  16.568  0.00  0.00    +0.000 HD
ATOM     20  H   UNL     1      -7.088  11.878  17.943  0.00  0.00    +0.000 HD
ENDBRANCH  17  18
ENDBRANCH  11  17
ENDBRANCH   1  15
BRANCH   8  21
ATOM     21  C   UNL     1      -0.091   9.483  22.537  0.00  0.00    +0.000 C 
ATOM     22  F   UNL     1      -0.787   8.544  21.844  0.00  0.00    +0.000 F 
ATOM     23  F   UNL     1       1.218   9.131  22.426  0.00  0.00    +0.000 F 
ATOM     24  F   UNL     1      -0.415   9.292  23.850  0.00  0.00    +0.000 F 
ENDBRANCH   8  21
BRANCH   6  25
ATOM     25  C   UNL     1      -2.032  14.066  23.538  0.00  0.00    +0.000 C 
BRANCH  25  26
ATOM     26  N   UNL     1      -1.129  14.783  24.451  0.00  0.00    +0.000 NA
ATOM     27  C   UNL     1      -1.757  15.252  25.684  0.00  0.00    +0.000 C 
ATOM     28  C   UNL     1      -1.894  16.723  25.436  0.00  0.00    +0.000 C 
ATOM     29  N   UNL     1      -1.255  17.197  24.416  0.00  0.00    +0.000 NA
ATOM     30  C   UNL     1      -0.585  16.008  23.858  0.00  0.00    +0.000 C 
ENDBRANCH  25  26
ENDBRANCH   6  25
TORSDOF 6
ENDMDL
