MODEL 1
REMARK VINA RESULT:      -8.8      0.000      0.000
REMARK  Name = 
REMARK  6 active torsions:
REMARK  status: ('A' for Active; 'I' for Inactive)
REMARK    1  A    between atoms: C_1  and  N_2
REMARK    2  A    between atoms: N_2  and  C_3
REMARK    3  A    between atoms: C_3  and  C_4
REMARK    4  A    between atoms: C_11  and  C_13
REMARK    5  A    between atoms: C_16  and  C_17
REMARK    6  A    between atoms: C_17  and  N_18
REMARK                            x       y       z     vdW  Elec       q    Type
REMARK                         _______ _______ _______ _____ _____    ______ ____
ROOT
ATOM      1  C   UNL     1       2.190   5.118  18.998  0.00  0.00    +0.000 A 
ATOM      2  C   UNL     1       1.931   5.626  20.271  0.00  0.00    +0.000 A 
ATOM      3  C   UNL     1       1.819   7.003  20.478  0.00  0.00    +0.000 A 
ATOM      4  C   UNL     1       2.007   7.902  19.418  0.00  0.00    +0.000 A 
ATOM      5  C   UNL     1       2.340   7.396  18.156  0.00  0.00    +0.000 A 
ATOM      6  C   UNL     1       2.423   6.017  17.948  0.00  0.00    +0.000 A 
ENDROOT
BRANCH   1   9
ATOM      7  C   UNL     1       3.539   1.574  18.449  0.00  0.00    +0.000 C 
ATOM      8  N   UNL     1       3.563   3.000  18.748  0.00  0.00    +0.000 N 
ATOM      9  C   UNL     1       2.331   3.664  18.702  0.00  0.00    +0.000 C 
ATOM     10  O   UNL     1       1.290   3.052  18.433  0.00  0.00    +0.000 OA
BRANCH   8  11
ATOM     11  C   UNL     1       4.792   3.507  19.358  0.00  0.00    +0.000 C 
BRANCH  11  12
ATOM     12  C   UNL     1       5.634   4.381  18.445  0.00  0.00    +0.000 A 
ATOM     13  C   UNL     1       5.531   4.357  17.042  0.00  0.00    +0.000 A 
ATOM     14  C   UNL     1       6.284   5.228  16.247  0.00  0.00    +0.000 A 
ATOM     15  C   UNL     1       7.161   6.130  16.843  0.00  0.00    +0.000 A 
ATOM     16  C   UNL     1       7.284   6.147  18.225  0.00  0.00    +0.000 A 
ATOM     17  F   UNL     1       8.125   7.016  18.802  0.00  0.00    +0.000 F 
ATOM     18  C   UNL     1       6.537   5.285  19.026  0.00  0.00    +0.000 A 
ENDBRANCH  11  12
ENDBRANCH   8  11
ENDBRANCH   1   9
BRANCH   4  19
ATOM     19  C   UNL     1       1.789   9.375  19.624  0.00  0.00    +0.000 C 
BRANCH  19  20
ATOM     20  N   UNL     1       0.395   9.778  19.732  0.00  0.00    +0.000 N 
ATOM     21  N   UNL     1      -0.154  10.466  18.704  0.00  0.00    +0.000 NA
ATOM     22  N   UNL     1      -0.991  11.356  19.219  0.00  0.00    +0.000 NA
ATOM     23  C   UNL     1      -1.026  11.172  20.573  0.00  0.00    +0.000 A 
ATOM     24  C   UNL     1      -1.660  11.911  21.583  0.00  0.00    +0.000 A 
ATOM     25  C   UNL     1      -1.531  11.477  22.909  0.00  0.00    +0.000 A 
ATOM     26  C   UNL     1      -0.814  10.318  23.218  0.00  0.00    +0.000 A 
ATOM     27  C   UNL     1      -0.143   9.590  22.227  0.00  0.00    +0.000 A 
ATOM     28  C   UNL     1      -0.247  10.074  20.917  0.00  0.00    +0.000 A 
ENDBRANCH  19  20
ENDBRANCH   4  19
TORSDOF 5
ENDMDL
MODEL 2
REMARK VINA RESULT:      -8.6      0.898      1.273
REMARK  Name = 
REMARK  6 active torsions:
REMARK  status: ('A' for Active; 'I' for Inactive)
REMARK    1  A    between atoms: C_1  and  N_2
REMARK    2  A    between atoms: N_2  and  C_3
REMARK    3  A    between atoms: C_3  and  C_4
REMARK    4  A    between atoms: C_11  and  C_13
REMARK    5  A    between atoms: C_16  and  C_17
REMARK    6  A    between atoms: C_17  and  N_18
REMARK                            x       y       z     vdW  Elec       q    Type
REMARK                         _______ _______ _______ _____ _____    ______ ____
ROOT
ATOM      1  C   UNL     1       2.197   5.031  18.951  0.00  0.00    +0.000 A 
ATOM      2  C   UNL     1       1.929   5.523  20.228  0.00  0.00    +0.000 A 
ATOM      3  C   UNL     1       1.829   6.899  20.455  0.00  0.00    +0.000 A 
ATOM      4  C   UNL     1       2.038   7.811  19.410  0.00  0.00    +0.000 A 
ATOM      5  C   UNL     1       2.381   7.319  18.145  0.00  0.00    +0.000 A 
ATOM      6  C   UNL     1       2.451   5.942  17.917  0.00  0.00    +0.000 A 
ENDROOT
BRANCH   1   9
ATOM      7  C   UNL     1       3.513   1.479  18.375  0.00  0.00    +0.000 C 
ATOM      8  N   UNL     1       3.548   2.900  18.697  0.00  0.00    +0.000 N 
ATOM      9  C   UNL     1       2.326   3.580  18.635  0.00  0.00    +0.000 C 
ATOM     10  O   UNL     1       1.284   2.985  18.335  0.00  0.00    +0.000 OA
BRANCH   8  11
ATOM     11  C   UNL     1       4.771   3.382  19.340  0.00  0.00    +0.000 C 
BRANCH  11  12
ATOM     12  C   UNL     1       5.577   4.363  18.506  0.00  0.00    +0.000 A 
ATOM     13  C   UNL     1       6.331   5.412  19.063  0.00  0.00    +0.000 A 
ATOM     14  C   UNL     1       7.107   6.250  18.255  0.00  0.00    +0.000 A 
ATOM     15  C   UNL     1       7.133   6.059  16.877  0.00  0.00    +0.000 A 
ATOM     16  C   UNL     1       6.376   5.039  16.318  0.00  0.00    +0.000 A 
ATOM     17  F   UNL     1       6.401   4.850  14.992  0.00  0.00    +0.000 F 
ATOM     18  C   UNL     1       5.601   4.197  17.113  0.00  0.00    +0.000 A 
ENDBRANCH  11  12
ENDBRANCH   8  11
ENDBRANCH   1   9
BRANCH   4  19
ATOM     19  C   UNL     1       1.834   9.283  19.636  0.00  0.00    +0.000 C 
BRANCH  19  20
ATOM     20  N   UNL     1       0.442   9.698  19.740  0.00  0.00    +0.000 N 
ATOM     21  N   UNL     1      -0.099  10.385  18.708  0.00  0.00    +0.000 NA
ATOM     22  N   UNL     1      -0.930  11.285  19.218  0.00  0.00    +0.000 NA
ATOM     23  C   UNL     1      -0.967  11.108  20.573  0.00  0.00    +0.000 A 
ATOM     24  C   UNL     1      -1.596  11.857  21.579  0.00  0.00    +0.000 A 
ATOM     25  C   UNL     1      -1.472  11.429  22.906  0.00  0.00    +0.000 A 
ATOM     26  C   UNL     1      -0.765  10.265  23.222  0.00  0.00    +0.000 A 
ATOM     27  C   UNL     1      -0.099   9.527  22.236  0.00  0.00    +0.000 A 
ATOM     28  C   UNL     1      -0.198  10.005  20.923  0.00  0.00    +0.000 A 
ENDBRANCH  19  20
ENDBRANCH   4  19
TORSDOF 5
ENDMDL
MODEL 3
REMARK VINA RESULT:      -8.6      3.872      8.349
REMARK  Name = 
REMARK  6 active torsions:
REMARK  status: ('A' for Active; 'I' for Inactive)
REMARK    1  A    between atoms: C_1  and  N_2
REMARK    2  A    between atoms: N_2  and  C_3
REMARK    3  A    between atoms: C_3  and  C_4
REMARK    4  A    between atoms: C_11  and  C_13
REMARK    5  A    between atoms: C_16  and  C_17
REMARK    6  A    between atoms: C_17  and  N_18
REMARK                            x       y       z     vdW  Elec       q    Type
REMARK                         _______ _______ _______ _____ _____    ______ ____
ROOT
ATOM      1  C   UNL     1       1.392   9.423  19.262  0.00  0.00    +0.000 A 
ATOM      2  C   UNL     1       1.560   8.353  20.141  0.00  0.00    +0.000 A 
ATOM      3  C   UNL     1       2.243   7.202  19.738  0.00  0.00    +0.000 A 
ATOM      4  C   UNL     1       2.734   7.085  18.430  0.00  0.00    +0.000 A 
ATOM      5  C   UNL     1       2.500   8.127  17.526  0.00  0.00    +0.000 A 
ATOM      6  C   UNL     1       1.842   9.288  17.941  0.00  0.00    +0.000 A 
ENDROOT
BRANCH   1   9
ATOM      7  C   UNL     1      -1.256  12.150  19.747  0.00  0.00    +0.000 C 
ATOM      8  N   UNL     1      -0.685  10.877  19.324  0.00  0.00    +0.000 N 
ATOM      9  C   UNL     1       0.670  10.678  19.617  0.00  0.00    +0.000 C 
ATOM     10  O   UNL     1       1.324  11.542  20.214  0.00  0.00    +0.000 OA
BRANCH   8  11
ATOM     11  C   UNL     1      -1.643   9.844  18.931  0.00  0.00    +0.000 C 
BRANCH  11  12
ATOM     12  C   UNL     1      -2.539  10.226  17.766  0.00  0.00    +0.000 A 
ATOM     13  C   UNL     1      -3.753  10.919  17.921  0.00  0.00    +0.000 A 
ATOM     14  C   UNL     1      -4.512  11.304  16.810  0.00  0.00    +0.000 A 
ATOM     15  C   UNL     1      -4.073  10.993  15.526  0.00  0.00    +0.000 A 
ATOM     16  C   UNL     1      -2.886  10.293  15.365  0.00  0.00    +0.000 A 
ATOM     17  F   UNL     1      -2.458   9.995  14.131  0.00  0.00    +0.000 F 
ATOM     18  C   UNL     1      -2.121   9.906  16.464  0.00  0.00    +0.000 A 
ENDBRANCH  11  12
ENDBRANCH   8  11
ENDBRANCH   1   9
BRANCH   4  19
ATOM     19  C   UNL     1       3.551   5.888  18.031  0.00  0.00    +0.000 C 
BRANCH  19  20
ATOM     20  N   UNL     1       2.842   4.617  18.085  0.00  0.00    +0.000 N 
ATOM     21  N   UNL     1       1.868   4.388  17.175  0.00  0.00    +0.000 NA
ATOM     22  N   UNL     1       0.905   3.707  17.780  0.00  0.00    +0.000 NA
ATOM     23  C   UNL     1       1.313   3.440  19.058  0.00  0.00    +0.000 A 
ATOM     24  C   UNL     1       0.633   2.850  20.133  0.00  0.00    +0.000 A 
ATOM     25  C   UNL     1       1.314   2.689  21.347  0.00  0.00    +0.000 A 
ATOM     26  C   UNL     1       2.651   3.077  21.476  0.00  0.00    +0.000 A 
ATOM     27  C   UNL     1       3.333   3.703  20.425  0.00  0.00    +0.000 A 
ATOM     28  C   UNL     1       2.613   3.896  19.240  0.00  0.00    +0.000 A 
ENDBRANCH  19  20
ENDBRANCH   4  19
TORSDOF 5
ENDMDL
MODEL 4
REMARK VINA RESULT:      -8.5      4.074      8.839
REMARK  Name = 
REMARK  6 active torsions:
REMARK  status: ('A' for Active; 'I' for Inactive)
REMARK    1  A    between atoms: C_1  and  N_2
REMARK    2  A    between atoms: N_2  and  C_3
REMARK    3  A    between atoms: C_3  and  C_4
REMARK    4  A    between atoms: C_11  and  C_13
REMARK    5  A    between atoms: C_16  and  C_17
REMARK    6  A    between atoms: C_17  and  N_18
REMARK                            x       y       z     vdW  Elec       q    Type
REMARK                         _______ _______ _______ _____ _____    ______ ____
ROOT
ATOM      1  C   UNL     1       1.151   9.843  19.547  0.00  0.00    +0.000 A 
ATOM      2  C   UNL     1       1.392   8.704  20.314  0.00  0.00    +0.000 A 
ATOM      3  C   UNL     1       2.103   7.624  19.782  0.00  0.00    +0.000 A 
ATOM      4  C   UNL     1       2.549   7.651  18.452  0.00  0.00    +0.000 A 
ATOM      5  C   UNL     1       2.243   8.763  17.660  0.00  0.00    +0.000 A 
ATOM      6  C   UNL     1       1.557   9.851  18.206  0.00  0.00    +0.000 A 
ENDROOT
BRANCH   1   9
ATOM      7  C   UNL     1      -1.578  12.402  20.375  0.00  0.00    +0.000 C 
ATOM      8  N   UNL     1      -0.975  11.200  19.814  0.00  0.00    +0.000 N 
ATOM      9  C   UNL     1       0.396  11.029  20.044  0.00  0.00    +0.000 C 
ATOM     10  O   UNL     1       1.037  11.857  20.701  0.00  0.00    +0.000 OA
BRANCH   8  11
ATOM     11  C   UNL     1      -1.906  10.171  19.352  0.00  0.00    +0.000 C 
BRANCH  11  12
ATOM     12  C   UNL     1      -2.512  10.438  17.985  0.00  0.00    +0.000 A 
ATOM     13  C   UNL     1      -1.996   9.897  16.793  0.00  0.00    +0.000 A 
ATOM     14  C   UNL     1      -2.629  10.122  15.565  0.00  0.00    +0.000 A 
ATOM     15  C   UNL     1      -3.782  10.900  15.509  0.00  0.00    +0.000 A 
ATOM     16  C   UNL     1      -4.287  11.453  16.678  0.00  0.00    +0.000 A 
ATOM     17  F   UNL     1      -5.398  12.199  16.628  0.00  0.00    +0.000 F 
ATOM     18  C   UNL     1      -3.666  11.234  17.906  0.00  0.00    +0.000 A 
ENDBRANCH  11  12
ENDBRANCH   8  11
ENDBRANCH   1   9
BRANCH   4  19
ATOM     19  C   UNL     1       3.396   6.531  17.914  0.00  0.00    +0.000 C 
BRANCH  19  20
ATOM     20  N   UNL     1       3.632   5.440  18.848  0.00  0.00    +0.000 N 
ATOM     21  N   UNL     1       4.907   5.177  19.216  0.00  0.00    +0.000 NA
ATOM     22  N   UNL     1       5.025   3.862  19.344  0.00  0.00    +0.000 NA
ATOM     23  C   UNL     1       3.796   3.303  19.130  0.00  0.00    +0.000 A 
ATOM     24  C   UNL     1       3.402   1.960  19.041  0.00  0.00    +0.000 A 
ATOM     25  C   UNL     1       2.049   1.674  18.822  0.00  0.00    +0.000 A 
ATOM     26  C   UNL     1       1.105   2.700  18.725  0.00  0.00    +0.000 A 
ATOM     27  C   UNL     1       1.486   4.047  18.773  0.00  0.00    +0.000 A 
ATOM     28  C   UNL     1       2.852   4.305  18.942  0.00  0.00    +0.000 A 
ENDBRANCH  19  20
ENDBRANCH   4  19
TORSDOF 5
ENDMDL
MODEL 5
REMARK VINA RESULT:      -8.4      3.813      9.018
REMARK  Name = 
REMARK  6 active torsions:
REMARK  status: ('A' for Active; 'I' for Inactive)
REMARK    1  A    between atoms: C_1  and  N_2
REMARK    2  A    between atoms: N_2  and  C_3
REMARK    3  A    between atoms: C_3  and  C_4
REMARK    4  A    between atoms: C_11  and  C_13
REMARK    5  A    between atoms: C_16  and  C_17
REMARK    6  A    between atoms: C_17  and  N_18
REMARK                            x       y       z     vdW  Elec       q    Type
REMARK                         _______ _______ _______ _____ _____    ______ ____
ROOT
ATOM      1  C   UNL     1       1.317   9.961  19.284  0.00  0.00    +0.000 A 
ATOM      2  C   UNL     1       1.264   9.168  20.430  0.00  0.00    +0.000 A 
ATOM      3  C   UNL     1       1.757   7.861  20.416  0.00  0.00    +0.000 A 
ATOM      4  C   UNL     1       2.276   7.307  19.236  0.00  0.00    +0.000 A 
ATOM      5  C   UNL     1       2.262   8.077  18.067  0.00  0.00    +0.000 A 
ATOM      6  C   UNL     1       1.794   9.393  18.094  0.00  0.00    +0.000 A 
ENDROOT
BRANCH   1   9
ATOM      7  C   UNL     1      -0.892  13.073  18.953  0.00  0.00    +0.000 C 
ATOM      8  N   UNL     1      -0.539  11.660  18.967  0.00  0.00    +0.000 N 
ATOM      9  C   UNL     1       0.805  11.359  19.221  0.00  0.00    +0.000 C 
ATOM     10  O   UNL     1       1.628  12.259  19.432  0.00  0.00    +0.000 OA
BRANCH   8  11
ATOM     11  C   UNL     1      -1.658  10.719  19.027  0.00  0.00    +0.000 C 
BRANCH  11  12
ATOM     12  C   UNL     1      -2.559  10.735  17.804  0.00  0.00    +0.000 A 
ATOM     13  C   UNL     1      -3.831  11.337  17.791  0.00  0.00    +0.000 A 
ATOM     14  C   UNL     1      -4.597  11.380  16.621  0.00  0.00    +0.000 A 
ATOM     15  C   UNL     1      -4.107  10.813  15.448  0.00  0.00    +0.000 A 
ATOM     16  C   UNL     1      -2.862  10.201  15.457  0.00  0.00    +0.000 A 
ATOM     17  F   UNL     1      -2.386   9.657  14.329  0.00  0.00    +0.000 F 
ATOM     18  C   UNL     1      -2.090  10.154  16.616  0.00  0.00    +0.000 A 
ENDBRANCH  11  12
ENDBRANCH   8  11
ENDBRANCH   1   9
BRANCH   4  19
ATOM     19  C   UNL     1       2.894   5.937  19.249  0.00  0.00    +0.000 C 
BRANCH  19  20
ATOM     20  N   UNL     1       3.132   5.361  17.934  0.00  0.00    +0.000 N 
ATOM     21  N   UNL     1       2.438   4.253  17.585  0.00  0.00    +0.000 NA
ATOM     22  N   UNL     1       3.244   3.485  16.865  0.00  0.00    +0.000 NA
ATOM     23  C   UNL     1       4.426   4.151  16.695  0.00  0.00    +0.000 A 
ATOM     24  C   UNL     1       5.635   3.742  16.113  0.00  0.00    +0.000 A 
ATOM     25  C   UNL     1       6.697   4.654  16.067  0.00  0.00    +0.000 A 
ATOM     26  C   UNL     1       6.549   5.954  16.561  0.00  0.00    +0.000 A 
ATOM     27  C   UNL     1       5.362   6.366  17.181  0.00  0.00    +0.000 A 
ATOM     28  C   UNL     1       4.334   5.419  17.258  0.00  0.00    +0.000 A 
ENDBRANCH  19  20
ENDBRANCH   4  19
TORSDOF 5
ENDMDL
MODEL 6
REMARK VINA RESULT:      -8.3      0.714      1.188
REMARK  Name = 
REMARK  6 active torsions:
REMARK  status: ('A' for Active; 'I' for Inactive)
REMARK    1  A    between atoms: C_1  and  N_2
REMARK    2  A    between atoms: N_2  and  C_3
REMARK    3  A    between atoms: C_3  and  C_4
REMARK    4  A    between atoms: C_11  and  C_13
REMARK    5  A    between atoms: C_16  and  C_17
REMARK    6  A    between atoms: C_17  and  N_18
REMARK                            x       y       z     vdW  Elec       q    Type
REMARK                         _______ _______ _______ _____ _____    ______ ____
ROOT
ATOM      1  C   UNL     1       2.181   4.911  19.075  0.00  0.00    +0.000 A 
ATOM      2  C   UNL     1       2.182   5.775  17.980  0.00  0.00    +0.000 A 
ATOM      3  C   UNL     1       2.031   7.153  18.160  0.00  0.00    +0.000 A 
ATOM      4  C   UNL     1       1.832   7.687  19.441  0.00  0.00    +0.000 A 
ATOM      5  C   UNL     1       1.757   6.813  20.532  0.00  0.00    +0.000 A 
ATOM      6  C   UNL     1       1.937   5.440  20.350  0.00  0.00    +0.000 A 
ENDROOT
BRANCH   1   9
ATOM      7  C   UNL     1       3.556   1.358  18.676  0.00  0.00    +0.000 C 
ATOM      8  N   UNL     1       3.567   2.813  18.751  0.00  0.00    +0.000 N 
ATOM      9  C   UNL     1       2.329   3.433  18.961  0.00  0.00    +0.000 C 
ATOM     10  O   UNL     1       1.297   2.762  19.086  0.00  0.00    +0.000 OA
BRANCH   8  11
ATOM     11  C   UNL     1       4.881   3.437  18.910  0.00  0.00    +0.000 C 
BRANCH  11  12
ATOM     12  C   UNL     1       5.289   4.347  17.765  0.00  0.00    +0.000 A 
ATOM     13  C   UNL     1       5.139   3.998  16.410  0.00  0.00    +0.000 A 
ATOM     14  C   UNL     1       5.472   4.899  15.392  0.00  0.00    +0.000 A 
ATOM     15  C   UNL     1       5.969   6.159  15.712  0.00  0.00    +0.000 A 
ATOM     16  C   UNL     1       6.138   6.504  17.046  0.00  0.00    +0.000 A 
ATOM     17  F   UNL     1       6.613   7.717  17.358  0.00  0.00    +0.000 F 
ATOM     18  C   UNL     1       5.808   5.616  18.068  0.00  0.00    +0.000 A 
ENDBRANCH  11  12
ENDBRANCH   8  11
ENDBRANCH   1   9
BRANCH   4  19
ATOM     19  C   UNL     1       1.768   9.176  19.641  0.00  0.00    +0.000 C 
BRANCH  19  20
ATOM     20  N   UNL     1       0.423   9.723  19.734  0.00  0.00    +0.000 N 
ATOM     21  N   UNL     1      -0.012  10.527  18.736  0.00  0.00    +0.000 NA
ATOM     22  N   UNL     1      -0.765  11.473  19.282  0.00  0.00    +0.000 NA
ATOM     23  C   UNL     1      -0.868  11.213  20.620  0.00  0.00    +0.000 A 
ATOM     24  C   UNL     1      -1.453  11.956  21.657  0.00  0.00    +0.000 A 
ATOM     25  C   UNL     1      -1.418  11.433  22.955  0.00  0.00    +0.000 A 
ATOM     26  C   UNL     1      -0.843  10.185  23.211  0.00  0.00    +0.000 A 
ATOM     27  C   UNL     1      -0.220   9.448  22.196  0.00  0.00    +0.000 A 
ATOM     28  C   UNL     1      -0.225  10.017  20.917  0.00  0.00    +0.000 A 
ENDBRANCH  19  20
ENDBRANCH   4  19
TORSDOF 5
ENDMDL
MODEL 7
REMARK VINA RESULT:      -8.3      0.984      1.617
REMARK  Name = 
REMARK  6 active torsions:
REMARK  status: ('A' for Active; 'I' for Inactive)
REMARK    1  A    between atoms: C_1  and  N_2
REMARK    2  A    between atoms: N_2  and  C_3
REMARK    3  A    between atoms: C_3  and  C_4
REMARK    4  A    between atoms: C_11  and  C_13
REMARK    5  A    between atoms: C_16  and  C_17
REMARK    6  A    between atoms: C_17  and  N_18
REMARK                            x       y       z     vdW  Elec       q    Type
REMARK                         _______ _______ _______ _____ _____    ______ ____
ROOT
ATOM      1  C   UNL     1       2.223   4.993  19.056  0.00  0.00    +0.000 A 
ATOM      2  C   UNL     1       2.485   6.080  18.222  0.00  0.00    +0.000 A 
ATOM      3  C   UNL     1       2.305   7.388  18.680  0.00  0.00    +0.000 A 
ATOM      4  C   UNL     1       1.816   7.631  19.972  0.00  0.00    +0.000 A 
ATOM      5  C   UNL     1       1.483   6.540  20.783  0.00  0.00    +0.000 A 
ATOM      6  C   UNL     1       1.692   5.234  20.331  0.00  0.00    +0.000 A 
ENDROOT
BRANCH   1   9
ATOM      7  C   UNL     1       3.622   1.527  18.216  0.00  0.00    +0.000 C 
ATOM      8  N   UNL     1       3.624   2.921  18.638  0.00  0.00    +0.000 N 
ATOM      9  C   UNL     1       2.384   3.572  18.636  0.00  0.00    +0.000 C 
ATOM     10  O   UNL     1       1.355   2.973  18.304  0.00  0.00    +0.000 OA
BRANCH   8  11
ATOM     11  C   UNL     1       4.841   3.388  19.302  0.00  0.00    +0.000 C 
BRANCH  11  12
ATOM     12  C   UNL     1       5.646   4.399  18.505  0.00  0.00    +0.000 A 
ATOM     13  C   UNL     1       6.495   5.352  19.098  0.00  0.00    +0.000 A 
ATOM     14  C   UNL     1       7.264   6.220  18.316  0.00  0.00    +0.000 A 
ATOM     15  C   UNL     1       7.189   6.156  16.927  0.00  0.00    +0.000 A 
ATOM     16  C   UNL     1       6.340   5.233  16.334  0.00  0.00    +0.000 A 
ATOM     17  F   UNL     1       6.268   5.166  14.998  0.00  0.00    +0.000 F 
ATOM     18  C   UNL     1       5.571   4.362  17.104  0.00  0.00    +0.000 A 
ENDBRANCH  11  12
ENDBRANCH   8  11
ENDBRANCH   1   9
BRANCH   4  19
ATOM     19  C   UNL     1       1.717   9.037  20.494  0.00  0.00    +0.000 C 
BRANCH  19  20
ATOM     20  N   UNL     1       0.458   9.709  20.205  0.00  0.00    +0.000 N 
ATOM     21  N   UNL     1       0.312  10.305  19.000  0.00  0.00    +0.000 NA
ATOM     22  N   UNL     1      -0.396  11.412  19.183  0.00  0.00    +0.000 NA
ATOM     23  C   UNL     1      -0.763  11.468  20.499  0.00  0.00    +0.000 A 
ATOM     24  C   UNL     1      -1.418  12.472  21.227  0.00  0.00    +0.000 A 
ATOM     25  C   UNL     1      -1.679  12.251  22.585  0.00  0.00    +0.000 A 
ATOM     26  C   UNL     1      -1.323  11.045  23.197  0.00  0.00    +0.000 A 
ATOM     27  C   UNL     1      -0.634  10.048  22.495  0.00  0.00    +0.000 A 
ATOM     28  C   UNL     1      -0.342  10.316  21.152  0.00  0.00    +0.000 A 
ENDBRANCH  19  20
ENDBRANCH   4  19
TORSDOF 5
ENDMDL
MODEL 8
REMARK VINA RESULT:      -8.3      3.407      8.617
REMARK  Name = 
REMARK  6 active torsions:
REMARK  status: ('A' for Active; 'I' for Inactive)
REMARK    1  A    between atoms: C_1  and  N_2
REMARK    2  A    between atoms: N_2  and  C_3
REMARK    3  A    between atoms: C_3  and  C_4
REMARK    4  A    between atoms: C_11  and  C_13
REMARK    5  A    between atoms: C_16  and  C_17
REMARK    6  A    between atoms: C_17  and  N_18
REMARK                            x       y       z     vdW  Elec       q    Type
REMARK                         _______ _______ _______ _____ _____    ______ ____
ROOT
ATOM      1  C   UNL     1       1.555   8.354  20.001  0.00  0.00    +0.000 A 
ATOM      2  C   UNL     1       1.976   8.639  18.702  0.00  0.00    +0.000 A 
ATOM      3  C   UNL     1       2.526   7.638  17.895  0.00  0.00    +0.000 A 
ATOM      4  C   UNL     1       2.704   6.339  18.393  0.00  0.00    +0.000 A 
ATOM      5  C   UNL     1       2.351   6.071  19.721  0.00  0.00    +0.000 A 
ATOM      6  C   UNL     1       1.775   7.068  20.513  0.00  0.00    +0.000 A 
ENDROOT
BRANCH   1   9
ATOM      7  C   UNL     1       0.027  11.530  21.504  0.00  0.00    +0.000 C 
ATOM      8  N   UNL     1       0.604  10.653  20.493  0.00  0.00    +0.000 N 
ATOM      9  C   UNL     1       0.967   9.369  20.920  0.00  0.00    +0.000 C 
ATOM     10  O   UNL     1       0.787   9.016  22.091  0.00  0.00    +0.000 OA
BRANCH   8  11
ATOM     11  C   UNL     1       0.455  11.089  19.105  0.00  0.00    +0.000 C 
BRANCH  11  12
ATOM     12  C   UNL     1      -0.939  10.903  18.532  0.00  0.00    +0.000 A 
ATOM     13  C   UNL     1      -1.262   9.906  17.594  0.00  0.00    +0.000 A 
ATOM     14  C   UNL     1      -2.576   9.736  17.145  0.00  0.00    +0.000 A 
ATOM     15  C   UNL     1      -3.586  10.567  17.618  0.00  0.00    +0.000 A 
ATOM     16  C   UNL     1      -3.273  11.567  18.529  0.00  0.00    +0.000 A 
ATOM     17  F   UNL     1      -4.243  12.367  18.990  0.00  0.00    +0.000 F 
ATOM     18  C   UNL     1      -1.968  11.744  18.985  0.00  0.00    +0.000 A 
ENDBRANCH  11  12
ENDBRANCH   8  11
ENDBRANCH   1   9
BRANCH   4  19
ATOM     19  C   UNL     1       3.204   5.244  17.493  0.00  0.00    +0.000 C 
BRANCH  19  20
ATOM     20  N   UNL     1       4.539   4.756  17.807  0.00  0.00    +0.000 N 
ATOM     21  N   UNL     1       4.662   3.780  18.736  0.00  0.00    +0.000 NA
ATOM     22  N   UNL     1       5.771   4.017  19.423  0.00  0.00    +0.000 NA
ATOM     23  C   UNL     1       6.389   5.104  18.871  0.00  0.00    +0.000 A 
ATOM     24  C   UNL     1       7.521   5.823  19.281  0.00  0.00    +0.000 A 
ATOM     25  C   UNL     1       7.942   6.908  18.502  0.00  0.00    +0.000 A 
ATOM     26  C   UNL     1       7.270   7.250  17.325  0.00  0.00    +0.000 A 
ATOM     27  C   UNL     1       6.116   6.567  16.921  0.00  0.00    +0.000 A 
ATOM     28  C   UNL     1       5.688   5.519  17.744  0.00  0.00    +0.000 A 
ENDBRANCH  19  20
ENDBRANCH   4  19
TORSDOF 5
ENDMDL
MODEL 9
REMARK VINA RESULT:      -8.2      4.116      9.092
REMARK  Name = 
REMARK  6 active torsions:
REMARK  status: ('A' for Active; 'I' for Inactive)
REMARK    1  A    between atoms: C_1  and  N_2
REMARK    2  A    between atoms: N_2  and  C_3
REMARK    3  A    between atoms: C_3  and  C_4
REMARK    4  A    between atoms: C_11  and  C_13
REMARK    5  A    between atoms: C_16  and  C_17
REMARK    6  A    between atoms: C_17  and  N_18
REMARK                            x       y       z     vdW  Elec       q    Type
REMARK                         _______ _______ _______ _____ _____    ______ ____
ROOT
ATOM      1  C   UNL     1       1.622   9.373  18.881  0.00  0.00    +0.000 A 
ATOM      2  C   UNL     1       2.166   8.798  17.733  0.00  0.00    +0.000 A 
ATOM      3  C   UNL     1       2.543   7.452  17.721  0.00  0.00    +0.000 A 
ATOM      4  C   UNL     1       2.421   6.667  18.877  0.00  0.00    +0.000 A 
ATOM      5  C   UNL     1       1.945   7.264  20.051  0.00  0.00    +0.000 A 
ATOM      6  C   UNL     1       1.543   8.602  20.049  0.00  0.00    +0.000 A 
ENDROOT
BRANCH   1   9
ATOM      7  C   UNL     1      -0.385  12.636  18.955  0.00  0.00    +0.000 C 
ATOM      8  N   UNL     1      -0.128  11.207  18.826  0.00  0.00    +0.000 N 
ATOM      9  C   UNL     1       1.204  10.801  18.971  0.00  0.00    +0.000 C 
ATOM     10  O   UNL     1       2.096  11.624  19.208  0.00  0.00    +0.000 OA
BRANCH   8  11
ATOM     11  C   UNL     1      -1.304  10.338  18.872  0.00  0.00    +0.000 C 
BRANCH  11  12
ATOM     12  C   UNL     1      -2.206  10.433  17.654  0.00  0.00    +0.000 A 
ATOM     13  C   UNL     1      -1.948   9.755  16.448  0.00  0.00    +0.000 A 
ATOM     14  C   UNL     1      -2.844   9.825  15.376  0.00  0.00    +0.000 A 
ATOM     15  C   UNL     1      -4.006  10.583  15.488  0.00  0.00    +0.000 A 
ATOM     16  C   UNL     1      -4.258  11.271  16.667  0.00  0.00    +0.000 A 
ATOM     17  F   UNL     1      -5.377  11.998  16.780  0.00  0.00    +0.000 F 
ATOM     18  C   UNL     1      -3.374  11.206  17.742  0.00  0.00    +0.000 A 
ENDBRANCH  11  12
ENDBRANCH   8  11
ENDBRANCH   1   9
BRANCH   4  19
ATOM     19  C   UNL     1       2.736   5.197  18.833  0.00  0.00    +0.000 C 
BRANCH  19  20
ATOM     20  N   UNL     1       4.154   4.878  18.755  0.00  0.00    +0.000 N 
ATOM     21  N   UNL     1       4.975   5.372  19.710  0.00  0.00    +0.000 NA
ATOM     22  N   UNL     1       6.127   5.679  19.130  0.00  0.00    +0.000 NA
ATOM     23  C   UNL     1       6.055   5.301  17.818  0.00  0.00    +0.000 A 
ATOM     24  C   UNL     1       6.950   5.497  16.756  0.00  0.00    +0.000 A 
ATOM     25  C   UNL     1       6.616   4.983  15.496  0.00  0.00    +0.000 A 
ATOM     26  C   UNL     1       5.433   4.264  15.306  0.00  0.00    +0.000 A 
ATOM     27  C   UNL     1       4.509   4.092  16.345  0.00  0.00    +0.000 A 
ATOM     28  C   UNL     1       4.845   4.659  17.581  0.00  0.00    +0.000 A 
ENDBRANCH  19  20
ENDBRANCH   4  19
TORSDOF 5
ENDMDL
