MODEL 1
REMARK VINA RESULT:      -8.7      0.000      0.000
REMARK  Name = 
REMARK  3 active torsions:
REMARK  status: ('A' for Active; 'I' for Inactive)
REMARK    1  A    between atoms: C_1  and  N_2
REMARK    2  A    between atoms: C_9  and  N_10
REMARK    3  A    between atoms: C_11  and  C_13
REMARK                            x       y       z     vdW  Elec       q    Type
REMARK                         _______ _______ _______ _____ _____    ______ ____
ROOT
ATOM      1  C   UNL     1       1.097   2.552  21.450  0.00  0.00    +0.000 C 
ATOM      2  N   UNL     1       2.515   2.411  21.123  0.00  0.00    +0.000 NA
ATOM      3  C   UNL     1       3.229   3.687  21.205  0.00  0.00    +0.000 C 
ATOM      4  C   UNL     1       2.822   4.676  20.115  0.00  0.00    +0.000 C 
ATOM      5  C   UNL     1       3.014   4.089  18.702  0.00  0.00    +0.000 C 
ATOM      6  C   UNL     1       2.337   2.698  18.627  0.00  0.00    +0.000 C 
ATOM      7  C   UNL     1       2.730   1.797  19.807  0.00  0.00    +0.000 C 
ATOM      8  C   UNL     1       2.446   4.997  17.601  0.00  0.00    +0.000 C 
ATOM      9  C   UNL     1       3.141   6.367  17.561  0.00  0.00    +0.000 C 
ATOM     10  C   UNL     1       4.633   6.192  17.762  0.00  0.00    +0.000 A 
ATOM     11  C   UNL     1       5.522   7.255  17.509  0.00  0.00    +0.000 A 
ATOM     12  C   UNL     1       6.879   7.091  17.696  0.00  0.00    +0.000 A 
ATOM     13  C   UNL     1       7.408   5.858  18.124  0.00  0.00    +0.000 A 
ATOM     14  C   UNL     1       6.535   4.809  18.354  0.00  0.00    +0.000 A 
ATOM     15  C   UNL     1       5.160   4.966  18.186  0.00  0.00    +0.000 A 
ATOM     16  O   UNL     1       4.414   3.857  18.463  0.00  0.00    +0.000 OA
ENDROOT
BRANCH   9  17
ATOM     17  N   UNL     1       2.586   7.333  18.515  0.00  0.00    +0.000 N 
ATOM     18  C   UNL     1       2.185   8.591  18.124  0.00  0.00    +0.000 C 
ATOM     19  O   UNL     1       2.305   8.991  16.965  0.00  0.00    +0.000 OA
ATOM     20  H   UNL     1       2.425   7.075  19.487  0.00  0.00    +0.000 HD
BRANCH  18  21
ATOM     21  C   UNL     1       1.505   9.445  19.150  0.00  0.00    +0.000 A 
ATOM     22  C   UNL     1       1.288  10.772  18.810  0.00  0.00    +0.000 A 
ATOM     23  C   UNL     1       0.366  11.487  19.549  0.00  0.00    +0.000 A 
ATOM     24  C   UNL     1      -0.041  10.990  20.786  0.00  0.00    +0.000 A 
ATOM     25  C   UNL     1      -0.697  11.828  21.702  0.00  0.00    +0.000 A 
ATOM     26  C   UNL     1      -1.025  11.349  22.967  0.00  0.00    +0.000 A 
ATOM     27  C   UNL     1      -0.772  10.017  23.274  0.00  0.00    +0.000 A 
ATOM     28  C   UNL     1      -0.137   9.182  22.343  0.00  0.00    +0.000 A 
ATOM     29  C   UNL     1       0.289   9.653  21.107  0.00  0.00    +0.000 A 
ATOM     30  N   UNL     1       0.994   8.857  20.266  0.00  0.00    +0.000 NA
ENDBRANCH  18  21
ENDBRANCH   9  17
TORSDOF 2
ENDMDL
MODEL 2
REMARK VINA RESULT:      -8.3      1.001      1.574
REMARK  Name = 
REMARK  3 active torsions:
REMARK  status: ('A' for Active; 'I' for Inactive)
REMARK    1  A    between atoms: C_1  and  N_2
REMARK    2  A    between atoms: C_9  and  N_10
REMARK    3  A    between atoms: C_11  and  C_13
REMARK                            x       y       z     vdW  Elec       q    Type
REMARK                         _______ _______ _______ _____ _____    ______ ____
ROOT
ATOM      1  C   UNL     1       1.473   1.865  19.882  0.00  0.00    +0.000 C 
ATOM      2  N   UNL     1       2.924   1.820  19.710  0.00  0.00    +0.000 NA
ATOM      3  C   UNL     1       3.575   3.036  20.202  0.00  0.00    +0.000 C 
ATOM      4  C   UNL     1       3.264   4.269  19.358  0.00  0.00    +0.000 C 
ATOM      5  C   UNL     1       3.645   4.067  17.877  0.00  0.00    +0.000 C 
ATOM      6  C   UNL     1       3.035   2.738  17.367  0.00  0.00    +0.000 C 
ATOM      7  C   UNL     1       3.317   1.566  18.319  0.00  0.00    +0.000 C 
ATOM      8  C   UNL     1       3.179   5.224  16.982  0.00  0.00    +0.000 C 
ATOM      9  C   UNL     1       3.822   6.562  17.379  0.00  0.00    +0.000 C 
ATOM     10  C   UNL     1       5.285   6.350  17.714  0.00  0.00    +0.000 A 
ATOM     11  C   UNL     1       6.156   7.447  17.853  0.00  0.00    +0.000 A 
ATOM     12  C   UNL     1       7.487   7.248  18.160  0.00  0.00    +0.000 A 
ATOM     13  C   UNL     1       8.007   5.950  18.322  0.00  0.00    +0.000 A 
ATOM     14  C   UNL     1       7.153   4.872  18.167  0.00  0.00    +0.000 A 
ATOM     15  C   UNL     1       5.803   5.059  17.874  0.00  0.00    +0.000 A 
ATOM     16  O   UNL     1       5.071   3.912  17.764  0.00  0.00    +0.000 OA
ENDROOT
BRANCH   9  17
ATOM     17  N   UNL     1       3.121   7.248  18.470  0.00  0.00    +0.000 N 
ATOM     18  C   UNL     1       2.304   8.331  18.240  0.00  0.00    +0.000 C 
ATOM     19  O   UNL     1       2.145   8.811  17.116  0.00  0.00    +0.000 OA
ATOM     20  H   UNL     1       3.174   6.899  19.426  0.00  0.00    +0.000 HD
BRANCH  18  21
ATOM     21  C   UNL     1       1.529   8.867  19.405  0.00  0.00    +0.000 A 
ATOM     22  C   UNL     1       1.543   8.106  20.565  0.00  0.00    +0.000 A 
ATOM     23  C   UNL     1       1.160   8.715  21.743  0.00  0.00    +0.000 A 
ATOM     24  C   UNL     1       0.458   9.918  21.685  0.00  0.00    +0.000 A 
ATOM     25  C   UNL     1      -0.233  10.386  22.814  0.00  0.00    +0.000 A 
ATOM     26  C   UNL     1      -1.002  11.544  22.726  0.00  0.00    +0.000 A 
ATOM     27  C   UNL     1      -1.006  12.265  21.538  0.00  0.00    +0.000 A 
ATOM     28  C   UNL     1      -0.293  11.801  20.423  0.00  0.00    +0.000 A 
ATOM     29  C   UNL     1       0.407  10.601  20.448  0.00  0.00    +0.000 A 
ATOM     30  N   UNL     1       1.001  10.119  19.328  0.00  0.00    +0.000 NA
ENDBRANCH  18  21
ENDBRANCH   9  17
TORSDOF 2
ENDMDL
MODEL 3
REMARK VINA RESULT:      -7.7      1.888      4.379
REMARK  Name = 
REMARK  3 active torsions:
REMARK  status: ('A' for Active; 'I' for Inactive)
REMARK    1  A    between atoms: C_1  and  N_2
REMARK    2  A    between atoms: C_9  and  N_10
REMARK    3  A    between atoms: C_11  and  C_13
REMARK                            x       y       z     vdW  Elec       q    Type
REMARK                         _______ _______ _______ _____ _____    ______ ____
ROOT
ATOM      1  C   UNL     1       7.123   6.652  15.739  0.00  0.00    +0.000 C 
ATOM      2  N   UNL     1       6.507   5.329  15.646  0.00  0.00    +0.000 NA
ATOM      3  C   UNL     1       5.052   5.387  15.795  0.00  0.00    +0.000 C 
ATOM      4  C   UNL     1       4.605   5.768  17.204  0.00  0.00    +0.000 C 
ATOM      5  C   UNL     1       5.175   4.811  18.270  0.00  0.00    +0.000 C 
ATOM      6  C   UNL     1       6.705   4.672  18.069  0.00  0.00    +0.000 C 
ATOM      7  C   UNL     1       7.075   4.377  16.608  0.00  0.00    +0.000 C 
ATOM      8  C   UNL     1       4.885   5.279  19.703  0.00  0.00    +0.000 C 
ATOM      9  C   UNL     1       3.378   5.351  19.998  0.00  0.00    +0.000 C 
ATOM     10  C   UNL     1       2.679   4.151  19.392  0.00  0.00    +0.000 A 
ATOM     11  C   UNL     1       1.349   3.844  19.738  0.00  0.00    +0.000 A 
ATOM     12  C   UNL     1       0.717   2.751  19.182  0.00  0.00    +0.000 A 
ATOM     13  C   UNL     1       1.387   1.910  18.274  0.00  0.00    +0.000 A 
ATOM     14  C   UNL     1       2.700   2.202  17.949  0.00  0.00    +0.000 A 
ATOM     15  C   UNL     1       3.346   3.312  18.491  0.00  0.00    +0.000 A 
ATOM     16  O   UNL     1       4.633   3.493  18.073  0.00  0.00    +0.000 OA
ENDROOT
BRANCH   9  17
ATOM     17  N   UNL     1       2.756   6.606  19.562  0.00  0.00    +0.000 N 
ATOM     18  C   UNL     1       1.852   7.281  20.351  0.00  0.00    +0.000 C 
ATOM     19  O   UNL     1       1.486   6.853  21.447  0.00  0.00    +0.000 OA
ATOM     20  H   UNL     1       3.024   7.044  18.682  0.00  0.00    +0.000 HD
BRANCH  18  21
ATOM     21  C   UNL     1       1.385   8.620  19.869  0.00  0.00    +0.000 A 
ATOM     22  C   UNL     1       1.674   8.943  18.551  0.00  0.00    +0.000 A 
ATOM     23  C   UNL     1       0.969   9.977  17.969  0.00  0.00    +0.000 A 
ATOM     24  C   UNL     1       0.273  10.866  18.786  0.00  0.00    +0.000 A 
ATOM     25  C   UNL     1      -0.163  12.100  18.277  0.00  0.00    +0.000 A 
ATOM     26  C   UNL     1      -0.782  13.017  19.121  0.00  0.00    +0.000 A 
ATOM     27  C   UNL     1      -1.034  12.662  20.441  0.00  0.00    +0.000 A 
ATOM     28  C   UNL     1      -0.615  11.418  20.933  0.00  0.00    +0.000 A 
ATOM     29  C   UNL     1       0.090  10.516  20.145  0.00  0.00    +0.000 A 
ATOM     30  N   UNL     1       0.577   9.366  20.670  0.00  0.00    +0.000 NA
ENDBRANCH  18  21
ENDBRANCH   9  17
TORSDOF 2
ENDMDL
MODEL 4
REMARK VINA RESULT:      -7.7      2.973      8.263
REMARK  Name = 
REMARK  3 active torsions:
REMARK  status: ('A' for Active; 'I' for Inactive)
REMARK    1  A    between atoms: C_1  and  N_2
REMARK    2  A    between atoms: C_9  and  N_10
REMARK    3  A    between atoms: C_11  and  C_13
REMARK                            x       y       z     vdW  Elec       q    Type
REMARK                         _______ _______ _______ _____ _____    ______ ____
ROOT
ATOM      1  C   UNL     1      -4.226  10.088  17.679  0.00  0.00    +0.000 C 
ATOM      2  N   UNL     1      -3.733  11.452  17.501  0.00  0.00    +0.000 NA
ATOM      3  C   UNL     1      -2.290  11.489  17.251  0.00  0.00    +0.000 C 
ATOM      4  C   UNL     1      -1.459  11.083  18.465  0.00  0.00    +0.000 C 
ATOM      5  C   UNL     1      -1.771  11.955  19.698  0.00  0.00    +0.000 C 
ATOM      6  C   UNL     1      -3.303  11.996  19.922  0.00  0.00    +0.000 C 
ATOM      7  C   UNL     1      -4.071  12.323  18.633  0.00  0.00    +0.000 C 
ATOM      8  C   UNL     1      -1.078  11.450  20.972  0.00  0.00    +0.000 C 
ATOM      9  C   UNL     1       0.453  11.471  20.848  0.00  0.00    +0.000 C 
ATOM     10  C   UNL     1       0.895  12.740  20.147  0.00  0.00    +0.000 A 
ATOM     11  C   UNL     1       2.249  13.124  20.142  0.00  0.00    +0.000 A 
ATOM     12  C   UNL     1       2.646  14.279  19.501  0.00  0.00    +0.000 A 
ATOM     13  C   UNL     1       1.709  15.109  18.855  0.00  0.00    +0.000 A 
ATOM     14  C   UNL     1       0.375  14.740  18.877  0.00  0.00    +0.000 A 
ATOM     15  C   UNL     1      -0.037  13.566  19.507  0.00  0.00    +0.000 A 
ATOM     16  O   UNL     1      -1.377  13.314  19.439  0.00  0.00    +0.000 OA
ENDROOT
BRANCH   9  17
ATOM     17  N   UNL     1       1.003  10.281  20.190  0.00  0.00    +0.000 N 
ATOM     18  C   UNL     1       1.226   9.109  20.876  0.00  0.00    +0.000 C 
ATOM     19  O   UNL     1       1.015   9.003  22.086  0.00  0.00    +0.000 OA
ATOM     20  H   UNL     1       1.180  10.274  19.186  0.00  0.00    +0.000 HD
BRANCH  18  21
ATOM     21  C   UNL     1       1.658   7.917  20.079  0.00  0.00    +0.000 A 
ATOM     22  C   UNL     1       2.136   8.163  18.800  0.00  0.00    +0.000 A 
ATOM     23  C   UNL     1       2.866   7.170  18.180  0.00  0.00    +0.000 A 
ATOM     24  C   UNL     1       2.804   5.871  18.682  0.00  0.00    +0.000 A 
ATOM     25  C   UNL     1       3.244   4.790  17.900  0.00  0.00    +0.000 A 
ATOM     26  C   UNL     1       3.101   3.489  18.374  0.00  0.00    +0.000 A 
ATOM     27  C   UNL     1       2.598   3.285  19.653  0.00  0.00    +0.000 A 
ATOM     28  C   UNL     1       2.183   4.373  20.435  0.00  0.00    +0.000 A 
ATOM     29  C   UNL     1       2.223   5.677  19.957  0.00  0.00    +0.000 A 
ATOM     30  N   UNL     1       1.719   6.701  20.687  0.00  0.00    +0.000 NA
ENDBRANCH  18  21
ENDBRANCH   9  17
TORSDOF 2
ENDMDL
MODEL 5
REMARK VINA RESULT:      -7.6      0.756      1.538
REMARK  Name = 
REMARK  3 active torsions:
REMARK  status: ('A' for Active; 'I' for Inactive)
REMARK    1  A    between atoms: C_1  and  N_2
REMARK    2  A    between atoms: C_9  and  N_10
REMARK    3  A    between atoms: C_11  and  C_13
REMARK                            x       y       z     vdW  Elec       q    Type
REMARK                         _______ _______ _______ _____ _____    ______ ____
ROOT
ATOM      1  C   UNL     1       1.088   2.511  21.520  0.00  0.00    +0.000 C 
ATOM      2  N   UNL     1       2.503   2.417  21.168  0.00  0.00    +0.000 NA
ATOM      3  C   UNL     1       3.175   3.717  21.234  0.00  0.00    +0.000 C 
ATOM      4  C   UNL     1       2.714   4.688  20.150  0.00  0.00    +0.000 C 
ATOM      5  C   UNL     1       2.900   4.104  18.734  0.00  0.00    +0.000 C 
ATOM      6  C   UNL     1       2.270   2.691  18.675  0.00  0.00    +0.000 C 
ATOM      7  C   UNL     1       2.715   1.807  19.850  0.00  0.00    +0.000 C 
ATOM      8  C   UNL     1       2.282   4.989  17.642  0.00  0.00    +0.000 C 
ATOM      9  C   UNL     1       2.929   6.382  17.587  0.00  0.00    +0.000 C 
ATOM     10  C   UNL     1       4.430   6.259  17.761  0.00  0.00    +0.000 A 
ATOM     11  C   UNL     1       5.276   7.350  17.489  0.00  0.00    +0.000 A 
ATOM     12  C   UNL     1       6.641   7.233  17.651  0.00  0.00    +0.000 A 
ATOM     13  C   UNL     1       7.220   6.021  18.072  0.00  0.00    +0.000 A 
ATOM     14  C   UNL     1       6.388   4.943  18.321  0.00  0.00    +0.000 A 
ATOM     15  C   UNL     1       5.006   5.052  18.177  0.00  0.00    +0.000 A 
ATOM     16  O   UNL     1       4.303   3.919  18.470  0.00  0.00    +0.000 OA
ENDROOT
BRANCH   9  17
ATOM     17  N   UNL     1       2.358   7.331  18.548  0.00  0.00    +0.000 N 
ATOM     18  C   UNL     1       2.006   8.611  18.183  0.00  0.00    +0.000 C 
ATOM     19  O   UNL     1       2.186   9.045  17.044  0.00  0.00    +0.000 OA
ATOM     20  H   UNL     1       2.150   7.046  19.504  0.00  0.00    +0.000 HD
BRANCH  18  21
ATOM     21  C   UNL     1       1.305   9.449  19.207  0.00  0.00    +0.000 A 
ATOM     22  C   UNL     1       1.054   8.852  20.434  0.00  0.00    +0.000 A 
ATOM     23  C   UNL     1       0.749   9.672  21.502  0.00  0.00    +0.000 A 
ATOM     24  C   UNL     1       0.364  10.989  21.256  0.00  0.00    +0.000 A 
ATOM     25  C   UNL     1      -0.270  11.738  22.260  0.00  0.00    +0.000 A 
ATOM     26  C   UNL     1      -0.727  13.024  21.981  0.00  0.00    +0.000 A 
ATOM     27  C   UNL     1      -0.473  13.577  20.731  0.00  0.00    +0.000 A 
ATOM     28  C   UNL     1       0.182  12.828  19.743  0.00  0.00    +0.000 A 
ATOM     29  C   UNL     1       0.567  11.510  19.957  0.00  0.00    +0.000 A 
ATOM     30  N   UNL     1       1.102  10.771  18.954  0.00  0.00    +0.000 NA
ENDBRANCH  18  21
ENDBRANCH   9  17
TORSDOF 2
ENDMDL
MODEL 6
REMARK VINA RESULT:      -7.5      4.451     10.275
REMARK  Name = 
REMARK  3 active torsions:
REMARK  status: ('A' for Active; 'I' for Inactive)
REMARK    1  A    between atoms: C_1  and  N_2
REMARK    2  A    between atoms: C_9  and  N_10
REMARK    3  A    between atoms: C_11  and  C_13
REMARK                            x       y       z     vdW  Elec       q    Type
REMARK                         _______ _______ _______ _____ _____    ______ ____
ROOT
ATOM      1  C   UNL     1      -6.791  11.583  19.975  0.00  0.00    +0.000 C 
ATOM      2  N   UNL     1      -6.641  12.993  20.332  0.00  0.00    +0.000 NA
ATOM      3  C   UNL     1      -5.291  13.490  20.060  0.00  0.00    +0.000 C 
ATOM      4  C   UNL     1      -4.231  12.888  20.980  0.00  0.00    +0.000 C 
ATOM      5  C   UNL     1      -4.556  13.125  22.468  0.00  0.00    +0.000 C 
ATOM      6  C   UNL     1      -6.014  12.684  22.752  0.00  0.00    +0.000 C 
ATOM      7  C   UNL     1      -7.004  13.260  21.729  0.00  0.00    +0.000 C 
ATOM      8  C   UNL     1      -3.600  12.378  23.410  0.00  0.00    +0.000 C 
ATOM      9  C   UNL     1      -2.143  12.836  23.243  0.00  0.00    +0.000 C 
ATOM     10  C   UNL     1      -2.093  14.343  23.084  0.00  0.00    +0.000 A 
ATOM     11  C   UNL     1      -0.871  15.035  23.177  0.00  0.00    +0.000 A 
ATOM     12  C   UNL     1      -0.831  16.406  23.030  0.00  0.00    +0.000 A 
ATOM     13  C   UNL     1      -2.007  17.145  22.803  0.00  0.00    +0.000 A 
ATOM     14  C   UNL     1      -3.211  16.466  22.731  0.00  0.00    +0.000 A 
ATOM     15  C   UNL     1      -3.264  15.079  22.861  0.00  0.00    +0.000 A 
ATOM     16  O   UNL     1      -4.511  14.535  22.753  0.00  0.00    +0.000 OA
ENDROOT
BRANCH   9  17
ATOM     17  N   UNL     1      -1.440  12.162  22.146  0.00  0.00    +0.000 N 
ATOM     18  C   UNL     1      -0.604  11.091  22.369  0.00  0.00    +0.000 C 
ATOM     19  O   UNL     1      -0.369  10.663  23.500  0.00  0.00    +0.000 OA
ATOM     20  H   UNL     1      -1.600  12.434  21.177  0.00  0.00    +0.000 HD
BRANCH  18  21
ATOM     21  C   UNL     1      -0.048  10.392  21.167  0.00  0.00    +0.000 A 
ATOM     22  C   UNL     1      -0.211  11.029  19.945  0.00  0.00    +0.000 A 
ATOM     23  C   UNL     1       0.579  10.618  18.891  0.00  0.00    +0.000 A 
ATOM     24  C   UNL     1       1.236   9.392  18.975  0.00  0.00    +0.000 A 
ATOM     25  C   UNL     1       1.760   8.791  17.819  0.00  0.00    +0.000 A 
ATOM     26  C   UNL     1       2.339   7.527  17.898  0.00  0.00    +0.000 A 
ATOM     27  C   UNL     1       2.464   6.915  19.139  0.00  0.00    +0.000 A 
ATOM     28  C   UNL     1       1.959   7.534  20.290  0.00  0.00    +0.000 A 
ATOM     29  C   UNL     1       1.290   8.751  20.235  0.00  0.00    +0.000 A 
ATOM     30  N   UNL     1       0.717   9.280  21.343  0.00  0.00    +0.000 NA
ENDBRANCH  18  21
ENDBRANCH   9  17
TORSDOF 2
ENDMDL
MODEL 7
REMARK VINA RESULT:      -7.4      3.100      9.202
REMARK  Name = 
REMARK  3 active torsions:
REMARK  status: ('A' for Active; 'I' for Inactive)
REMARK    1  A    between atoms: C_1  and  N_2
REMARK    2  A    between atoms: C_9  and  N_10
REMARK    3  A    between atoms: C_11  and  C_13
REMARK                            x       y       z     vdW  Elec       q    Type
REMARK                         _______ _______ _______ _____ _____    ______ ____
ROOT
ATOM      1  C   UNL     1       4.826  14.810  18.984  0.00  0.00    +0.000 C 
ATOM      2  N   UNL     1       3.989  15.368  20.045  0.00  0.00    +0.000 NA
ATOM      3  C   UNL     1       3.469  14.332  20.939  0.00  0.00    +0.000 C 
ATOM      4  C   UNL     1       2.443  13.420  20.271  0.00  0.00    +0.000 C 
ATOM      5  C   UNL     1       1.257  14.214  19.688  0.00  0.00    +0.000 C 
ATOM      6  C   UNL     1       1.795  15.369  18.808  0.00  0.00    +0.000 C 
ATOM      7  C   UNL     1       2.886  16.182  19.521  0.00  0.00    +0.000 C 
ATOM      8  C   UNL     1       0.306  13.337  18.859  0.00  0.00    +0.000 C 
ATOM      9  C   UNL     1      -0.335  12.221  19.699  0.00  0.00    +0.000 C 
ATOM     10  C   UNL     1      -0.729  12.763  21.058  0.00  0.00    +0.000 A 
ATOM     11  C   UNL     1      -1.566  12.021  21.913  0.00  0.00    +0.000 A 
ATOM     12  C   UNL     1      -1.920  12.518  23.150  0.00  0.00    +0.000 A 
ATOM     13  C   UNL     1      -1.470  13.781  23.580  0.00  0.00    +0.000 A 
ATOM     14  C   UNL     1      -0.663  14.518  22.731  0.00  0.00    +0.000 A 
ATOM     15  C   UNL     1      -0.284  14.021  21.484  0.00  0.00    +0.000 A 
ATOM     16  O   UNL     1       0.527  14.843  20.756  0.00  0.00    +0.000 OA
ENDROOT
BRANCH   9  17
ATOM     17  N   UNL     1       0.506  11.026  19.826  0.00  0.00    +0.000 N 
ATOM     18  C   UNL     1       0.453  10.000  18.909  0.00  0.00    +0.000 C 
ATOM     19  O   UNL     1      -0.327  10.008  17.956  0.00  0.00    +0.000 OA
ATOM     20  H   UNL     1       1.199  10.952  20.568  0.00  0.00    +0.000 HD
BRANCH  18  21
ATOM     21  C   UNL     1       1.452   8.895  19.058  0.00  0.00    +0.000 A 
ATOM     22  C   UNL     1       1.430   8.192  20.253  0.00  0.00    +0.000 A 
ATOM     23  C   UNL     1       2.063   6.966  20.295  0.00  0.00    +0.000 A 
ATOM     24  C   UNL     1       2.975   6.641  19.291  0.00  0.00    +0.000 A 
ATOM     25  C   UNL     1       3.875   5.579  19.473  0.00  0.00    +0.000 A 
ATOM     26  C   UNL     1       4.838   5.313  18.503  0.00  0.00    +0.000 A 
ATOM     27  C   UNL     1       4.839   6.056  17.328  0.00  0.00    +0.000 A 
ATOM     28  C   UNL     1       3.920   7.099  17.147  0.00  0.00    +0.000 A 
ATOM     29  C   UNL     1       3.008   7.453  18.134  0.00  0.00    +0.000 A 
ATOM     30  N   UNL     1       2.201   8.531  17.981  0.00  0.00    +0.000 NA
ENDBRANCH  18  21
ENDBRANCH   9  17
TORSDOF 2
ENDMDL
MODEL 8
REMARK VINA RESULT:      -7.2      2.954      8.200
REMARK  Name = 
REMARK  3 active torsions:
REMARK  status: ('A' for Active; 'I' for Inactive)
REMARK    1  A    between atoms: C_1  and  N_2
REMARK    2  A    between atoms: C_9  and  N_10
REMARK    3  A    between atoms: C_11  and  C_13
REMARK                            x       y       z     vdW  Elec       q    Type
REMARK                         _______ _______ _______ _____ _____    ______ ____
ROOT
ATOM      1  C   UNL     1      -3.850   9.563  17.343  0.00  0.00    +0.000 C 
ATOM      2  N   UNL     1      -3.383  10.928  17.106  0.00  0.00    +0.000 NA
ATOM      3  C   UNL     1      -1.923  11.005  17.028  0.00  0.00    +0.000 C 
ATOM      4  C   UNL     1      -1.234  10.738  18.363  0.00  0.00    +0.000 C 
ATOM      5  C   UNL     1      -1.723  11.695  19.469  0.00  0.00    +0.000 C 
ATOM      6  C   UNL     1      -3.271  11.690  19.504  0.00  0.00    +0.000 C 
ATOM      7  C   UNL     1      -3.885  11.875  18.108  0.00  0.00    +0.000 C 
ATOM      8  C   UNL     1      -1.175  11.329  20.856  0.00  0.00    +0.000 C 
ATOM      9  C   UNL     1       0.358  11.404  20.914  0.00  0.00    +0.000 C 
ATOM     10  C   UNL     1       0.842  12.628  20.162  0.00  0.00    +0.000 A 
ATOM     11  C   UNL     1       2.173  13.068  20.285  0.00  0.00    +0.000 A 
ATOM     12  C   UNL     1       2.608  14.181  19.596  0.00  0.00    +0.000 A 
ATOM     13  C   UNL     1       1.732  14.913  18.773  0.00  0.00    +0.000 A 
ATOM     14  C   UNL     1       0.418  14.491  18.667  0.00  0.00    +0.000 A 
ATOM     15  C   UNL     1      -0.031  13.357  19.345  0.00  0.00    +0.000 A 
ATOM     16  O   UNL     1      -1.344  13.044  19.140  0.00  0.00    +0.000 OA
ENDROOT
BRANCH   9  17
ATOM     17  N   UNL     1       1.023  10.188  20.434  0.00  0.00    +0.000 N 
ATOM     18  C   UNL     1       1.099   9.050  21.204  0.00  0.00    +0.000 C 
ATOM     19  O   UNL     1       0.650   8.998  22.350  0.00  0.00    +0.000 OA
ATOM     20  H   UNL     1       1.396  10.136  19.487  0.00  0.00    +0.000 HD
BRANCH  18  21
ATOM     21  C   UNL     1       1.675   7.824  20.564  0.00  0.00    +0.000 A 
ATOM     22  C   UNL     1       1.325   6.605  21.126  0.00  0.00    +0.000 A 
ATOM     23  C   UNL     1       1.527   5.465  20.375  0.00  0.00    +0.000 A 
ATOM     24  C   UNL     1       2.370   5.525  19.266  0.00  0.00    +0.000 A 
ATOM     25  C   UNL     1       2.864   4.344  18.690  0.00  0.00    +0.000 A 
ATOM     26  C   UNL     1       3.773   4.414  17.637  0.00  0.00    +0.000 A 
ATOM     27  C   UNL     1       4.113   5.657  17.117  0.00  0.00    +0.000 A 
ATOM     28  C   UNL     1       3.596   6.830  17.685  0.00  0.00    +0.000 A 
ATOM     29  C   UNL     1       2.762   6.801  18.797  0.00  0.00    +0.000 A 
ATOM     30  N   UNL     1       2.359   7.949  19.394  0.00  0.00    +0.000 NA
ENDBRANCH  18  21
ENDBRANCH   9  17
TORSDOF 2
ENDMDL
MODEL 9
REMARK VINA RESULT:      -7.2      4.751     10.308
REMARK  Name = 
REMARK  3 active torsions:
REMARK  status: ('A' for Active; 'I' for Inactive)
REMARK    1  A    between atoms: C_1  and  N_2
REMARK    2  A    between atoms: C_9  and  N_10
REMARK    3  A    between atoms: C_11  and  C_13
REMARK                            x       y       z     vdW  Elec       q    Type
REMARK                         _______ _______ _______ _____ _____    ______ ____
ROOT
ATOM      1  C   UNL     1      -6.524  10.416  18.576  0.00  0.00    +0.000 C 
ATOM      2  N   UNL     1      -6.574  11.872  18.456  0.00  0.00    +0.000 NA
ATOM      3  C   UNL     1      -5.238  12.464  18.362  0.00  0.00    +0.000 C 
ATOM      4  C   UNL     1      -4.438  12.352  19.656  0.00  0.00    +0.000 C 
ATOM      5  C   UNL     1      -5.178  12.985  20.851  0.00  0.00    +0.000 C 
ATOM      6  C   UNL     1      -6.624  12.432  20.911  0.00  0.00    +0.000 C 
ATOM      7  C   UNL     1      -7.328  12.500  19.548  0.00  0.00    +0.000 C 
ATOM      8  C   UNL     1      -4.473  12.726  22.191  0.00  0.00    +0.000 C 
ATOM      9  C   UNL     1      -3.061  13.332  22.231  0.00  0.00    +0.000 C 
ATOM     10  C   UNL     1      -3.071  14.703  21.586  0.00  0.00    +0.000 A 
ATOM     11  C   UNL     1      -1.973  15.571  21.727  0.00  0.00    +0.000 A 
ATOM     12  C   UNL     1      -1.986  16.817  21.135  0.00  0.00    +0.000 A 
ATOM     13  C   UNL     1      -3.101  17.257  20.395  0.00  0.00    +0.000 A 
ATOM     14  C   UNL     1      -4.188  16.409  20.273  0.00  0.00    +0.000 A 
ATOM     15  C   UNL     1      -4.181  15.141  20.852  0.00  0.00    +0.000 A 
ATOM     16  O   UNL     1      -5.310  14.402  20.640  0.00  0.00    +0.000 OA
ENDROOT
BRANCH   9  17
ATOM     17  N   UNL     1      -2.037  12.469  21.632  0.00  0.00    +0.000 N 
ATOM     18  C   UNL     1      -1.195  11.699  22.402  0.00  0.00    +0.000 C 
ATOM     19  O   UNL     1      -1.226  11.719  23.634  0.00  0.00    +0.000 OA
ATOM     20  H   UNL     1      -1.962  12.372  20.621  0.00  0.00    +0.000 HD
BRANCH  18  21
ATOM     21  C   UNL     1      -0.282  10.752  21.686  0.00  0.00    +0.000 A 
ATOM     22  C   UNL     1       0.266   9.725  22.440  0.00  0.00    +0.000 A 
ATOM     23  C   UNL     1       0.804   8.646  21.768  0.00  0.00    +0.000 A 
ATOM     24  C   UNL     1       1.096   8.770  20.411  0.00  0.00    +0.000 A 
ATOM     25  C   UNL     1       1.940   7.841  19.783  0.00  0.00    +0.000 A 
ATOM     26  C   UNL     1       2.295   8.019  18.448  0.00  0.00    +0.000 A 
ATOM     27  C   UNL     1       1.740   9.074  17.734  0.00  0.00    +0.000 A 
ATOM     28  C   UNL     1       0.880   9.983  18.366  0.00  0.00    +0.000 A 
ATOM     29  C   UNL     1       0.579   9.890  19.719  0.00  0.00    +0.000 A 
ATOM     30  N   UNL     1      -0.169  10.840  20.332  0.00  0.00    +0.000 NA
ENDBRANCH  18  21
ENDBRANCH   9  17
TORSDOF 2
ENDMDL
