MODEL 1
REMARK VINA RESULT:      -8.2      0.000      0.000
REMARK  Name = 
REMARK  6 active torsions:
REMARK  status: ('A' for Active; 'I' for Inactive)
REMARK    1  A    between atoms: C_1  and  C_2
REMARK    2  A    between atoms: C_5  and  S_6
REMARK    3  A    between atoms: S_6  and  N_9
REMARK    4  A    between atoms: N_9  and  C_10
REMARK    5  A    between atoms: C_11  and  C_12
REMARK    6  A    between atoms: C_21  and  C_22
REMARK                            x       y       z     vdW  Elec       q    Type
REMARK                         _______ _______ _______ _____ _____    ______ ____
ROOT
ATOM      1  C   UNL     1      -0.845  11.163  20.921  0.00  0.00    +0.000 A 
ATOM      2  C   UNL     1      -1.040  11.874  19.774  0.00  0.00    +0.000 A 
ATOM      3  C   UNL     1       0.031  12.929  19.608  0.00  0.00    +0.000 A 
ATOM      4  C   UNL     1       0.685  13.176  18.404  0.00  0.00    +0.000 A 
ATOM      5  C   UNL     1       1.902  13.855  18.388  0.00  0.00    +0.000 A 
ATOM      6  C   UNL     1       2.482  14.309  19.576  0.00  0.00    +0.000 A 
ATOM      7  C   UNL     1       3.913  14.757  19.581  0.00  0.00    +0.000 C 
ATOM      8  C   UNL     1       1.753  14.235  20.768  0.00  0.00    +0.000 A 
ATOM      9  C   UNL     1       0.556  13.518  20.781  0.00  0.00    +0.000 A 
ATOM     10  N   UNL     1      -0.062  13.218  22.005  0.00  0.00    +0.000 N 
ATOM     11  C   UNL     1      -0.903  12.128  22.113  0.00  0.00    +0.000 A 
ATOM     12  O   UNL     1      -1.504  11.855  23.146  0.00  0.00    +0.000 OA
ATOM     13  H   UNL     1       0.143  13.739  22.847  0.00  0.00    +0.000 HD
ENDROOT
BRANCH   2  14
ATOM     14  C   UNL     1      -1.922  11.280  18.712  0.00  0.00    +0.000 A 
ATOM     15  C   UNL     1      -1.452  10.293  17.825  0.00  0.00    +0.000 A 
ATOM     16  C   UNL     1      -2.166   9.940  16.673  0.00  0.00    +0.000 A 
ATOM     17  C   UNL     1      -3.399  10.523  16.414  0.00  0.00    +0.000 A 
ATOM     18  C   UNL     1      -3.952  11.387  17.351  0.00  0.00    +0.000 A 
ATOM     19  C   UNL     1      -3.235  11.731  18.505  0.00  0.00    +0.000 A 
ENDBRANCH   2  14
BRANCH   1  20
ATOM     20  N   UNL     1       0.484  10.538  20.929  0.00  0.00    +0.000 N 
ATOM     21  H   UNL     1       1.285  11.167  21.000  0.00  0.00    +0.000 HD
BRANCH  20  22
ATOM     22  S   UNL     1       0.762   9.051  21.636  0.00  0.00    +0.000 S 
ATOM     23  O   UNL     1      -0.496   8.439  22.003  0.00  0.00    +0.000 OA
ATOM     24  O   UNL     1       1.785   9.283  22.631  0.00  0.00    +0.000 OA
BRANCH  22  29
ATOM     25  C   UNL     1       3.883   6.038  17.398  0.00  0.00    +0.000 C 
ATOM     26  C   UNL     1       3.007   6.729  18.401  0.00  0.00    +0.000 A 
ATOM     27  C   UNL     1       2.638   6.097  19.596  0.00  0.00    +0.000 A 
ATOM     28  C   UNL     1       1.909   6.789  20.569  0.00  0.00    +0.000 A 
ATOM     29  C   UNL     1       1.530   8.113  20.336  0.00  0.00    +0.000 A 
ATOM     30  C   UNL     1       1.792   8.709  19.103  0.00  0.00    +0.000 A 
ATOM     31  C   UNL     1       2.549   8.027  18.149  0.00  0.00    +0.000 A 
ENDBRANCH  22  29
ENDBRANCH  20  22
ENDBRANCH   1  20
TORSDOF 4
ENDMDL
MODEL 2
REMARK VINA RESULT:      -8.0      1.965      4.332
REMARK  Name = 
REMARK  6 active torsions:
REMARK  status: ('A' for Active; 'I' for Inactive)
REMARK    1  A    between atoms: C_1  and  C_2
REMARK    2  A    between atoms: C_5  and  S_6
REMARK    3  A    between atoms: S_6  and  N_9
REMARK    4  A    between atoms: N_9  and  C_10
REMARK    5  A    between atoms: C_11  and  C_12
REMARK    6  A    between atoms: C_21  and  C_22
REMARK                            x       y       z     vdW  Elec       q    Type
REMARK                         _______ _______ _______ _____ _____    ______ ____
ROOT
ATOM      1  C   UNL     1      -0.714  11.931  20.537  0.00  0.00    +0.000 A 
ATOM      2  C   UNL     1      -1.977  12.421  20.385  0.00  0.00    +0.000 A 
ATOM      3  C   UNL     1      -2.524  12.081  19.017  0.00  0.00    +0.000 A 
ATOM      4  C   UNL     1      -3.814  11.604  18.803  0.00  0.00    +0.000 A 
ATOM      5  C   UNL     1      -4.137  10.946  17.618  0.00  0.00    +0.000 A 
ATOM      6  C   UNL     1      -3.175  10.761  16.620  0.00  0.00    +0.000 A 
ATOM      7  C   UNL     1      -3.441   9.800  15.500  0.00  0.00    +0.000 C 
ATOM      8  C   UNL     1      -1.933  11.393  16.738  0.00  0.00    +0.000 A 
ATOM      9  C   UNL     1      -1.606  12.015  17.944  0.00  0.00    +0.000 A 
ATOM     10  N   UNL     1      -0.286  12.433  18.176  0.00  0.00    +0.000 N 
ATOM     11  C   UNL     1       0.189  12.558  19.466  0.00  0.00    +0.000 A 
ATOM     12  O   UNL     1       1.316  12.968  19.720  0.00  0.00    +0.000 OA
ATOM     13  H   UNL     1       0.366  12.583  17.417  0.00  0.00    +0.000 HD
ENDROOT
BRANCH   2  14
ATOM     14  C   UNL     1      -2.748  12.791  21.621  0.00  0.00    +0.000 A 
ATOM     15  C   UNL     1      -2.578  12.099  22.835  0.00  0.00    +0.000 A 
ATOM     16  C   UNL     1      -3.478  12.248  23.899  0.00  0.00    +0.000 A 
ATOM     17  C   UNL     1      -4.534  13.143  23.795  0.00  0.00    +0.000 A 
ATOM     18  C   UNL     1      -4.635  13.946  22.665  0.00  0.00    +0.000 A 
ATOM     19  C   UNL     1      -3.728  13.796  21.607  0.00  0.00    +0.000 A 
ENDBRANCH   2  14
BRANCH   1  20
ATOM     20  N   UNL     1      -0.690  10.477  20.332  0.00  0.00    +0.000 N 
ATOM     21  H   UNL     1      -0.814  10.148  19.374  0.00  0.00    +0.000 HD
BRANCH  20  22
ATOM     22  S   UNL     1       0.277   9.467  21.244  0.00  0.00    +0.000 S 
ATOM     23  O   UNL     1      -0.546   8.527  21.974  0.00  0.00    +0.000 OA
ATOM     24  O   UNL     1       1.193  10.340  21.945  0.00  0.00    +0.000 OA
BRANCH  22  29
ATOM     25  C   UNL     1       4.019   6.794  17.290  0.00  0.00    +0.000 C 
ATOM     26  C   UNL     1       3.001   7.383  18.222  0.00  0.00    +0.000 A 
ATOM     27  C   UNL     1       2.682   6.756  19.434  0.00  0.00    +0.000 A 
ATOM     28  C   UNL     1       1.810   7.369  20.341  0.00  0.00    +0.000 A 
ATOM     29  C   UNL     1       1.240   8.604  20.025  0.00  0.00    +0.000 A 
ATOM     30  C   UNL     1       1.461   9.176  18.773  0.00  0.00    +0.000 A 
ATOM     31  C   UNL     1       2.358   8.580  17.885  0.00  0.00    +0.000 A 
ENDBRANCH  22  29
ENDBRANCH  20  22
ENDBRANCH   1  20
TORSDOF 4
ENDMDL
MODEL 3
REMARK VINA RESULT:      -7.8      0.405      1.324
REMARK  Name = 
REMARK  6 active torsions:
REMARK  status: ('A' for Active; 'I' for Inactive)
REMARK    1  A    between atoms: C_1  and  C_2
REMARK    2  A    between atoms: C_5  and  S_6
REMARK    3  A    between atoms: S_6  and  N_9
REMARK    4  A    between atoms: N_9  and  C_10
REMARK    5  A    between atoms: C_11  and  C_12
REMARK    6  A    between atoms: C_21  and  C_22
REMARK                            x       y       z     vdW  Elec       q    Type
REMARK                         _______ _______ _______ _____ _____    ______ ____
ROOT
ATOM      1  C   UNL     1      -0.992  10.993  20.776  0.00  0.00    +0.000 A 
ATOM      2  C   UNL     1      -1.101  11.825  19.702  0.00  0.00    +0.000 A 
ATOM      3  C   UNL     1      -0.007  12.869  19.720  0.00  0.00    +0.000 A 
ATOM      4  C   UNL     1       0.729  13.228  18.594  0.00  0.00    +0.000 A 
ATOM      5  C   UNL     1       1.953  13.880  18.729  0.00  0.00    +0.000 A 
ATOM      6  C   UNL     1       2.459  14.194  19.994  0.00  0.00    +0.000 A 
ATOM      7  C   UNL     1       3.892  14.610  20.139  0.00  0.00    +0.000 C 
ATOM      8  C   UNL     1       1.652  14.010  21.121  0.00  0.00    +0.000 A 
ATOM      9  C   UNL     1       0.446  13.320  20.980  0.00  0.00    +0.000 A 
ATOM     10  N   UNL     1      -0.255  12.905  22.122  0.00  0.00    +0.000 N 
ATOM     11  C   UNL     1      -1.116  11.827  22.058  0.00  0.00    +0.000 A 
ATOM     12  O   UNL     1      -1.789  11.459  23.016  0.00  0.00    +0.000 OA
ATOM     13  H   UNL     1      -0.100  13.330  23.027  0.00  0.00    +0.000 HD
ENDROOT
BRANCH   2  14
ATOM     14  C   UNL     1      -1.919  11.365  18.528  0.00  0.00    +0.000 A 
ATOM     15  C   UNL     1      -3.252  11.778  18.345  0.00  0.00    +0.000 A 
ATOM     16  C   UNL     1      -4.098  11.146  17.425  0.00  0.00    +0.000 A 
ATOM     17  C   UNL     1      -3.610  10.126  16.620  0.00  0.00    +0.000 A 
ATOM     18  C   UNL     1      -2.260   9.803  16.676  0.00  0.00    +0.000 A 
ATOM     19  C   UNL     1      -1.418  10.443  17.595  0.00  0.00    +0.000 A 
ENDBRANCH   2  14
BRANCH   1  20
ATOM     20  N   UNL     1       0.324  10.343  20.804  0.00  0.00    +0.000 N 
ATOM     21  H   UNL     1       1.138  10.957  20.756  0.00  0.00    +0.000 HD
BRANCH  20  22
ATOM     22  S   UNL     1       0.611   8.953  21.683  0.00  0.00    +0.000 S 
ATOM     23  O   UNL     1      -0.644   8.321  22.024  0.00  0.00    +0.000 OA
ATOM     24  O   UNL     1       1.545   9.337  22.718  0.00  0.00    +0.000 OA
BRANCH  22  29
ATOM     25  C   UNL     1       3.183   5.281  17.599  0.00  0.00    +0.000 C 
ATOM     26  C   UNL     1       2.663   6.226  18.642  0.00  0.00    +0.000 A 
ATOM     27  C   UNL     1       2.473   7.585  18.356  0.00  0.00    +0.000 A 
ATOM     28  C   UNL     1       1.889   8.434  19.302  0.00  0.00    +0.000 A 
ATOM     29  C   UNL     1       1.513   7.925  20.548  0.00  0.00    +0.000 A 
ATOM     30  C   UNL     1       1.806   6.604  20.881  0.00  0.00    +0.000 A 
ATOM     31  C   UNL     1       2.356   5.751  19.922  0.00  0.00    +0.000 A 
ENDBRANCH  22  29
ENDBRANCH  20  22
ENDBRANCH   1  20
TORSDOF 4
ENDMDL
MODEL 4
REMARK VINA RESULT:      -7.8      1.763      4.464
REMARK  Name = 
REMARK  6 active torsions:
REMARK  status: ('A' for Active; 'I' for Inactive)
REMARK    1  A    between atoms: C_1  and  C_2
REMARK    2  A    between atoms: C_5  and  S_6
REMARK    3  A    between atoms: S_6  and  N_9
REMARK    4  A    between atoms: N_9  and  C_10
REMARK    5  A    between atoms: C_11  and  C_12
REMARK    6  A    between atoms: C_21  and  C_22
REMARK                            x       y       z     vdW  Elec       q    Type
REMARK                         _______ _______ _______ _____ _____    ______ ____
ROOT
ATOM      1  C   UNL     1      -0.211  11.803  20.743  0.00  0.00    +0.000 A 
ATOM      2  C   UNL     1      -1.389  12.489  20.741  0.00  0.00    +0.000 A 
ATOM      3  C   UNL     1      -2.116  12.303  19.428  0.00  0.00    +0.000 A 
ATOM      4  C   UNL     1      -3.480  12.042  19.336  0.00  0.00    +0.000 A 
ATOM      5  C   UNL     1      -4.018  11.498  18.171  0.00  0.00    +0.000 A 
ATOM      6  C   UNL     1      -3.202  11.216  17.072  0.00  0.00    +0.000 A 
ATOM      7  C   UNL     1      -3.726  10.361  15.956  0.00  0.00    +0.000 C 
ATOM      8  C   UNL     1      -1.870  11.642  17.078  0.00  0.00    +0.000 A 
ATOM      9  C   UNL     1      -1.331  12.148  18.262  0.00  0.00    +0.000 A 
ATOM     10  N   UNL     1       0.055  12.345  18.367  0.00  0.00    +0.000 N 
ATOM     11  C   UNL     1       0.669  12.334  19.604  0.00  0.00    +0.000 A 
ATOM     12  O   UNL     1       1.867  12.552  19.750  0.00  0.00    +0.000 OA
ATOM     13  H   UNL     1       0.644  12.429  17.550  0.00  0.00    +0.000 HD
ENDROOT
BRANCH   2  14
ATOM     14  C   UNL     1      -1.966  12.913  22.062  0.00  0.00    +0.000 A 
ATOM     15  C   UNL     1      -2.686  12.020  22.878  0.00  0.00    +0.000 A 
ATOM     16  C   UNL     1      -3.454  12.469  23.960  0.00  0.00    +0.000 A 
ATOM     17  C   UNL     1      -3.469  13.817  24.289  0.00  0.00    +0.000 A 
ATOM     18  C   UNL     1      -2.649  14.696  23.592  0.00  0.00    +0.000 A 
ATOM     19  C   UNL     1      -1.878  14.239  22.514  0.00  0.00    +0.000 A 
ENDBRANCH   2  14
BRANCH   1  20
ATOM     20  N   UNL     1      -0.438  10.374  20.491  0.00  0.00    +0.000 N 
ATOM     21  H   UNL     1      -0.517  10.090  19.514  0.00  0.00    +0.000 HD
BRANCH  20  22
ATOM     22  S   UNL     1       0.219   9.185  21.461  0.00  0.00    +0.000 S 
ATOM     23  O   UNL     1      -0.823   8.291  21.915  0.00  0.00    +0.000 OA
ATOM     24  O   UNL     1       1.055   9.883  22.413  0.00  0.00    +0.000 OA
BRANCH  22  29
ATOM     25  C   UNL     1       3.511   5.975  17.507  0.00  0.00    +0.000 C 
ATOM     26  C   UNL     1       2.804   6.827  18.520  0.00  0.00    +0.000 A 
ATOM     27  C   UNL     1       2.384   8.126  18.206  0.00  0.00    +0.000 A 
ATOM     28  C   UNL     1       1.633   8.870  19.123  0.00  0.00    +0.000 A 
ATOM     29  C   UNL     1       1.319   8.319  20.367  0.00  0.00    +0.000 A 
ATOM     30  C   UNL     1       1.832   7.075  20.730  0.00  0.00    +0.000 A 
ATOM     31  C   UNL     1       2.551   6.321  19.800  0.00  0.00    +0.000 A 
ENDBRANCH  22  29
ENDBRANCH  20  22
ENDBRANCH   1  20
TORSDOF 4
ENDMDL
MODEL 5
REMARK VINA RESULT:      -7.7      2.099      4.497
REMARK  Name = 
REMARK  6 active torsions:
REMARK  status: ('A' for Active; 'I' for Inactive)
REMARK    1  A    between atoms: C_1  and  C_2
REMARK    2  A    between atoms: C_5  and  S_6
REMARK    3  A    between atoms: S_6  and  N_9
REMARK    4  A    between atoms: N_9  and  C_10
REMARK    5  A    between atoms: C_11  and  C_12
REMARK    6  A    between atoms: C_21  and  C_22
REMARK                            x       y       z     vdW  Elec       q    Type
REMARK                         _______ _______ _______ _____ _____    ______ ____
ROOT
ATOM      1  C   UNL     1      -1.040  12.165  20.158  0.00  0.00    +0.000 A 
ATOM      2  C   UNL     1      -2.392  12.308  20.055  0.00  0.00    +0.000 A 
ATOM      3  C   UNL     1      -2.875  11.872  18.689  0.00  0.00    +0.000 A 
ATOM      4  C   UNL     1      -4.000  11.077  18.491  0.00  0.00    +0.000 A 
ATOM      5  C   UNL     1      -4.177  10.389  17.292  0.00  0.00    +0.000 A 
ATOM      6  C   UNL     1      -3.234  10.493  16.265  0.00  0.00    +0.000 A 
ATOM      7  C   UNL     1      -3.274   9.525  15.119  0.00  0.00    +0.000 C 
ATOM      8  C   UNL     1      -2.199  11.427  16.374  0.00  0.00    +0.000 A 
ATOM      9  C   UNL     1      -2.008  12.080  17.592  0.00  0.00    +0.000 A 
ATOM     10  N   UNL     1      -0.838  12.825  17.806  0.00  0.00    +0.000 N 
ATOM     11  C   UNL     1      -0.370  13.037  19.088  0.00  0.00    +0.000 A 
ATOM     12  O   UNL     1       0.617  13.724  19.328  0.00  0.00    +0.000 OA
ATOM     13  H   UNL     1      -0.274  13.164  17.038  0.00  0.00    +0.000 HD
ENDROOT
BRANCH   2  14
ATOM     14  C   UNL     1      -3.192  12.427  21.321  0.00  0.00    +0.000 A 
ATOM     15  C   UNL     1      -4.509  12.926  21.323  0.00  0.00    +0.000 A 
ATOM     16  C   UNL     1      -5.153  13.298  22.509  0.00  0.00    +0.000 A 
ATOM     17  C   UNL     1      -4.517  13.120  23.730  0.00  0.00    +0.000 A 
ATOM     18  C   UNL     1      -3.278  12.490  23.765  0.00  0.00    +0.000 A 
ATOM     19  C   UNL     1      -2.642  12.116  22.574  0.00  0.00    +0.000 A 
ENDBRANCH   2  14
BRANCH   1  20
ATOM     20  N   UNL     1      -0.640  10.776  19.902  0.00  0.00    +0.000 N 
ATOM     21  H   UNL     1      -0.498  10.513  18.926  0.00  0.00    +0.000 HD
BRANCH  20  22
ATOM     22  S   UNL     1       0.339   9.925  20.953  0.00  0.00    +0.000 S 
ATOM     23  O   UNL     1      -0.474   9.149  21.864  0.00  0.00    +0.000 OA
ATOM     24  O   UNL     1       1.292  10.889  21.458  0.00  0.00    +0.000 OA
BRANCH  22  29
ATOM     25  C   UNL     1       3.909   6.478  17.467  0.00  0.00    +0.000 C 
ATOM     26  C   UNL     1       2.929   7.258  18.293  0.00  0.00    +0.000 A 
ATOM     27  C   UNL     1       2.567   6.834  19.578  0.00  0.00    +0.000 A 
ATOM     28  C   UNL     1       1.734   7.625  20.378  0.00  0.00    +0.000 A 
ATOM     29  C   UNL     1       1.247   8.835  19.881  0.00  0.00    +0.000 A 
ATOM     30  C   UNL     1       1.508   9.207  18.563  0.00  0.00    +0.000 A 
ATOM     31  C   UNL     1       2.367   8.433  17.781  0.00  0.00    +0.000 A 
ENDBRANCH  22  29
ENDBRANCH  20  22
ENDBRANCH   1  20
TORSDOF 4
ENDMDL
MODEL 6
REMARK VINA RESULT:      -7.7      1.828      4.441
REMARK  Name = 
REMARK  6 active torsions:
REMARK  status: ('A' for Active; 'I' for Inactive)
REMARK    1  A    between atoms: C_1  and  C_2
REMARK    2  A    between atoms: C_5  and  S_6
REMARK    3  A    between atoms: S_6  and  N_9
REMARK    4  A    between atoms: N_9  and  C_10
REMARK    5  A    between atoms: C_11  and  C_12
REMARK    6  A    between atoms: C_21  and  C_22
REMARK                            x       y       z     vdW  Elec       q    Type
REMARK                         _______ _______ _______ _____ _____    ______ ____
ROOT
ATOM      1  C   UNL     1      -0.257  11.854  21.266  0.00  0.00    +0.000 A 
ATOM      2  C   UNL     1      -1.411  12.580  21.260  0.00  0.00    +0.000 A 
ATOM      3  C   UNL     1      -2.112  12.462  19.925  0.00  0.00    +0.000 A 
ATOM      4  C   UNL     1      -3.482  12.252  19.794  0.00  0.00    +0.000 A 
ATOM      5  C   UNL     1      -4.010  11.766  18.600  0.00  0.00    +0.000 A 
ATOM      6  C   UNL     1      -3.178  11.492  17.511  0.00  0.00    +0.000 A 
ATOM      7  C   UNL     1      -3.704  10.693  16.356  0.00  0.00    +0.000 C 
ATOM      8  C   UNL     1      -1.833  11.871  17.561  0.00  0.00    +0.000 A 
ATOM      9  C   UNL     1      -1.305  12.319  18.773  0.00  0.00    +0.000 A 
ATOM     10  N   UNL     1       0.083  12.465  18.916  0.00  0.00    +0.000 N 
ATOM     11  C   UNL     1       0.668  12.392  20.165  0.00  0.00    +0.000 A 
ATOM     12  O   UNL     1       1.868  12.564  20.345  0.00  0.00    +0.000 OA
ATOM     13  H   UNL     1       0.694  12.556  18.115  0.00  0.00    +0.000 HD
ENDROOT
BRANCH   2  14
ATOM     14  C   UNL     1      -2.003  12.981  22.582  0.00  0.00    +0.000 A 
ATOM     15  C   UNL     1      -3.056  12.256  23.172  0.00  0.00    +0.000 A 
ATOM     16  C   UNL     1      -3.792  12.771  24.246  0.00  0.00    +0.000 A 
ATOM     17  C   UNL     1      -3.450  13.999  24.797  0.00  0.00    +0.000 A 
ATOM     18  C   UNL     1      -2.322  14.662  24.329  0.00  0.00    +0.000 A 
ATOM     19  C   UNL     1      -1.587  14.138  23.258  0.00  0.00    +0.000 A 
ENDBRANCH   2  14
BRANCH   1  20
ATOM     20  N   UNL     1      -0.525  10.443  20.960  0.00  0.00    +0.000 N 
ATOM     21  H   UNL     1      -0.776  10.224  19.995  0.00  0.00    +0.000 HD
BRANCH  20  22
ATOM     22  S   UNL     1       0.293   9.200  21.716  0.00  0.00    +0.000 S 
ATOM     23  O   UNL     1      -0.654   8.264  22.284  0.00  0.00    +0.000 OA
ATOM     24  O   UNL     1       1.283   9.841  22.552  0.00  0.00    +0.000 OA
BRANCH  22  29
ATOM     25  C   UNL     1       3.799   6.809  17.384  0.00  0.00    +0.000 C 
ATOM     26  C   UNL     1       2.836   7.331  18.410  0.00  0.00    +0.000 A 
ATOM     27  C   UNL     1       2.587   6.623  19.593  0.00  0.00    +0.000 A 
ATOM     28  C   UNL     1       1.769   7.171  20.588  0.00  0.00    +0.000 A 
ATOM     29  C   UNL     1       1.183   8.423  20.389  0.00  0.00    +0.000 A 
ATOM     30  C   UNL     1       1.333   9.079  19.168  0.00  0.00    +0.000 A 
ATOM     31  C   UNL     1       2.177   8.546  18.192  0.00  0.00    +0.000 A 
ENDBRANCH  22  29
ENDBRANCH  20  22
ENDBRANCH   1  20
TORSDOF 4
ENDMDL
MODEL 7
REMARK VINA RESULT:      -7.6      5.682      8.853
REMARK  Name = 
REMARK  6 active torsions:
REMARK  status: ('A' for Active; 'I' for Inactive)
REMARK    1  A    between atoms: C_1  and  C_2
REMARK    2  A    between atoms: C_5  and  S_6
REMARK    3  A    between atoms: S_6  and  N_9
REMARK    4  A    between atoms: N_9  and  C_10
REMARK    5  A    between atoms: C_11  and  C_12
REMARK    6  A    between atoms: C_21  and  C_22
REMARK                            x       y       z     vdW  Elec       q    Type
REMARK                         _______ _______ _______ _____ _____    ______ ____
ROOT
ATOM      1  C   UNL     1       5.451   4.213  18.261  0.00  0.00    +0.000 A 
ATOM      2  C   UNL     1       4.728   4.745  17.235  0.00  0.00    +0.000 A 
ATOM      3  C   UNL     1       3.651   5.668  17.760  0.00  0.00    +0.000 A 
ATOM      4  C   UNL     1       3.375   6.916  17.210  0.00  0.00    +0.000 A 
ATOM      5  C   UNL     1       2.672   7.872  17.943  0.00  0.00    +0.000 A 
ATOM      6  C   UNL     1       2.224   7.591  19.236  0.00  0.00    +0.000 A 
ATOM      7  C   UNL     1       1.749   8.707  20.117  0.00  0.00    +0.000 C 
ATOM      8  C   UNL     1       2.328   6.287  19.731  0.00  0.00    +0.000 A 
ATOM      9  C   UNL     1       3.068   5.349  19.008  0.00  0.00    +0.000 A 
ATOM     10  N   UNL     1       3.397   4.119  19.597  0.00  0.00    +0.000 N 
ATOM     11  C   UNL     1       4.504   3.414  19.167  0.00  0.00    +0.000 A 
ATOM     12  O   UNL     1       4.802   2.312  19.615  0.00  0.00    +0.000 OA
ATOM     13  H   UNL     1       2.883   3.752  20.387  0.00  0.00    +0.000 HD
ENDROOT
BRANCH   2  14
ATOM     14  C   UNL     1       5.324   4.713  15.856  0.00  0.00    +0.000 A 
ATOM     15  C   UNL     1       4.671   4.083  14.780  0.00  0.00    +0.000 A 
ATOM     16  C   UNL     1       5.333   3.807  13.577  0.00  0.00    +0.000 A 
ATOM     17  C   UNL     1       6.648   4.214  13.400  0.00  0.00    +0.000 A 
ATOM     18  C   UNL     1       7.265   4.970  14.389  0.00  0.00    +0.000 A 
ATOM     19  C   UNL     1       6.594   5.247  15.588  0.00  0.00    +0.000 A 
ENDBRANCH   2  14
BRANCH   1  20
ATOM     20  N   UNL     1       6.050   5.272  19.083  0.00  0.00    +0.000 N 
ATOM     21  H   UNL     1       5.547   5.532  19.932  0.00  0.00    +0.000 HD
BRANCH  20  22
ATOM     22  S   UNL     1       7.703   5.457  19.226  0.00  0.00    +0.000 S 
ATOM     23  O   UNL     1       8.379   4.527  18.348  0.00  0.00    +0.000 OA
ATOM     24  O   UNL     1       7.970   5.453  20.647  0.00  0.00    +0.000 OA
BRANCH  22  29
ATOM     25  C   UNL     1       8.231  11.294  17.665  0.00  0.00    +0.000 C 
ATOM     26  C   UNL     1       8.202   9.827  17.979  0.00  0.00    +0.000 A 
ATOM     27  C   UNL     1       8.994   9.290  19.003  0.00  0.00    +0.000 A 
ATOM     28  C   UNL     1       8.880   7.941  19.355  0.00  0.00    +0.000 A 
ATOM     29  C   UNL     1       7.983   7.121  18.667  0.00  0.00    +0.000 A 
ATOM     30  C   UNL     1       7.277   7.620  17.573  0.00  0.00    +0.000 A 
ATOM     31  C   UNL     1       7.369   8.974  17.246  0.00  0.00    +0.000 A 
ENDBRANCH  22  29
ENDBRANCH  20  22
ENDBRANCH   1  20
TORSDOF 4
ENDMDL
MODEL 8
REMARK VINA RESULT:      -7.3      2.714      6.684
REMARK  Name = 
REMARK  6 active torsions:
REMARK  status: ('A' for Active; 'I' for Inactive)
REMARK    1  A    between atoms: C_1  and  C_2
REMARK    2  A    between atoms: C_5  and  S_6
REMARK    3  A    between atoms: S_6  and  N_9
REMARK    4  A    between atoms: N_9  and  C_10
REMARK    5  A    between atoms: C_11  and  C_12
REMARK    6  A    between atoms: C_21  and  C_22
REMARK                            x       y       z     vdW  Elec       q    Type
REMARK                         _______ _______ _______ _____ _____    ______ ____
ROOT
ATOM      1  C   UNL     1       0.696  11.314  20.044  0.00  0.00    +0.000 A 
ATOM      2  C   UNL     1       0.294  10.121  19.521  0.00  0.00    +0.000 A 
ATOM      3  C   UNL     1      -1.076  10.244  18.894  0.00  0.00    +0.000 A 
ATOM      4  C   UNL     1      -1.405   9.700  17.655  0.00  0.00    +0.000 A 
ATOM      5  C   UNL     1      -2.519  10.161  16.955  0.00  0.00    +0.000 A 
ATOM      6  C   UNL     1      -3.330  11.167  17.487  0.00  0.00    +0.000 A 
ATOM      7  C   UNL     1      -4.328  11.860  16.607  0.00  0.00    +0.000 C 
ATOM      8  C   UNL     1      -3.124  11.591  18.803  0.00  0.00    +0.000 A 
ATOM      9  C   UNL     1      -1.984  11.155  19.481  0.00  0.00    +0.000 A 
ATOM     10  N   UNL     1      -1.625  11.755  20.697  0.00  0.00    +0.000 N 
ATOM     11  C   UNL     1      -0.311  11.743  21.120  0.00  0.00    +0.000 A 
ATOM     12  O   UNL     1       0.043  12.209  22.198  0.00  0.00    +0.000 OA
ATOM     13  H   UNL     1      -2.295  12.267  21.256  0.00  0.00    +0.000 HD
ENDROOT
BRANCH   2  14
ATOM     14  C   UNL     1       1.340   9.075  19.255  0.00  0.00    +0.000 A 
ATOM     15  C   UNL     1       2.066   9.041  18.049  0.00  0.00    +0.000 A 
ATOM     16  C   UNL     1       2.829   7.927  17.681  0.00  0.00    +0.000 A 
ATOM     17  C   UNL     1       2.935   6.843  18.541  0.00  0.00    +0.000 A 
ATOM     18  C   UNL     1       2.352   6.915  19.801  0.00  0.00    +0.000 A 
ATOM     19  C   UNL     1       1.594   8.036  20.165  0.00  0.00    +0.000 A 
ENDBRANCH   2  14
BRANCH   1  20
ATOM     20  N   UNL     1       0.706  12.360  19.013  0.00  0.00    +0.000 N 
ATOM     21  H   UNL     1      -0.201  12.735  18.734  0.00  0.00    +0.000 HD
BRANCH  20  22
ATOM     22  S   UNL     1       1.935  13.483  18.899  0.00  0.00    +0.000 S 
ATOM     23  O   UNL     1       2.689  13.264  17.684  0.00  0.00    +0.000 OA
ATOM     24  O   UNL     1       2.595  13.465  20.186  0.00  0.00    +0.000 OA
BRANCH  22  29
ATOM     25  C   UNL     1      -1.152  18.628  18.019  0.00  0.00    +0.000 C 
ATOM     26  C   UNL     1      -0.371  17.392  18.356  0.00  0.00    +0.000 A 
ATOM     27  C   UNL     1      -0.993  16.281  18.942  0.00  0.00    +0.000 A 
ATOM     28  C   UNL     1      -0.277  15.098  19.155  0.00  0.00    +0.000 A 
ATOM     29  C   UNL     1       1.071  15.033  18.798  0.00  0.00    +0.000 A 
ATOM     30  C   UNL     1       1.725  16.169  18.323  0.00  0.00    +0.000 A 
ATOM     31  C   UNL     1       0.999  17.337  18.080  0.00  0.00    +0.000 A 
ENDBRANCH  22  29
ENDBRANCH  20  22
ENDBRANCH   1  20
TORSDOF 4
ENDMDL
MODEL 9
REMARK VINA RESULT:      -7.2      8.573     10.534
REMARK  Name = 
REMARK  6 active torsions:
REMARK  status: ('A' for Active; 'I' for Inactive)
REMARK    1  A    between atoms: C_1  and  C_2
REMARK    2  A    between atoms: C_5  and  S_6
REMARK    3  A    between atoms: S_6  and  N_9
REMARK    4  A    between atoms: N_9  and  C_10
REMARK    5  A    between atoms: C_11  and  C_12
REMARK    6  A    between atoms: C_21  and  C_22
REMARK                            x       y       z     vdW  Elec       q    Type
REMARK                         _______ _______ _______ _____ _____    ______ ____
ROOT
ATOM      1  C   UNL     1       9.116  14.456  22.021  0.00  0.00    +0.000 A 
ATOM      2  C   UNL     1       9.311  13.147  22.346  0.00  0.00    +0.000 A 
ATOM      3  C   UNL     1       8.532  12.782  23.590  0.00  0.00    +0.000 A 
ATOM      4  C   UNL     1       7.789  11.611  23.715  0.00  0.00    +0.000 A 
ATOM      5  C   UNL     1       6.798  11.504  24.688  0.00  0.00    +0.000 A 
ATOM      6  C   UNL     1       6.538  12.563  25.562  0.00  0.00    +0.000 A 
ATOM      7  C   UNL     1       5.286  12.556  26.388  0.00  0.00    +0.000 C 
ATOM      8  C   UNL     1       7.394  13.669  25.574  0.00  0.00    +0.000 A 
ATOM      9  C   UNL     1       8.358  13.785  24.571  0.00  0.00    +0.000 A 
ATOM     10  N   UNL     1       9.054  14.993  24.412  0.00  0.00    +0.000 N 
ATOM     11  C   UNL     1       9.596  15.330  23.187  0.00  0.00    +0.000 A 
ATOM     12  O   UNL     1      10.256  16.348  23.013  0.00  0.00    +0.000 OA
ATOM     13  H   UNL     1       9.119  15.673  25.158  0.00  0.00    +0.000 HD
ENDROOT
BRANCH   2  14
ATOM     14  C   UNL     1       9.842  12.223  21.287  0.00  0.00    +0.000 A 
ATOM     15  C   UNL     1      11.137  12.374  20.753  0.00  0.00    +0.000 A 
ATOM     16  C   UNL     1      11.534  11.706  19.588  0.00  0.00    +0.000 A 
ATOM     17  C   UNL     1      10.665  10.823  18.963  0.00  0.00    +0.000 A 
ATOM     18  C   UNL     1       9.438  10.544  19.554  0.00  0.00    +0.000 A 
ATOM     19  C   UNL     1       9.050  11.211  20.724  0.00  0.00    +0.000 A 
ENDBRANCH   2  14
BRANCH   1  20
ATOM     20  N   UNL     1       7.688  14.738  21.822  0.00  0.00    +0.000 N 
ATOM     21  H   UNL     1       7.144  14.949  22.659  0.00  0.00    +0.000 HD
BRANCH  20  22
ATOM     22  S   UNL     1       7.118  15.521  20.463  0.00  0.00    +0.000 S 
ATOM     23  O   UNL     1       7.148  16.952  20.671  0.00  0.00    +0.000 OA
ATOM     24  O   UNL     1       5.880  14.854  20.125  0.00  0.00    +0.000 OA
BRANCH  22  29
ATOM     25  C   UNL     1      11.369  13.655  16.561  0.00  0.00    +0.000 C 
ATOM     26  C   UNL     1      10.264  14.179  17.430  0.00  0.00    +0.000 A 
ATOM     27  C   UNL     1       9.024  13.530  17.495  0.00  0.00    +0.000 A 
ATOM     28  C   UNL     1       8.040  13.967  18.388  0.00  0.00    +0.000 A 
ATOM     29  C   UNL     1       8.291  15.072  19.205  0.00  0.00    +0.000 A 
ATOM     30  C   UNL     1       9.476  15.793  19.063  0.00  0.00    +0.000 A 
ATOM     31  C   UNL     1      10.469  15.332  18.196  0.00  0.00    +0.000 A 
ENDBRANCH  22  29
ENDBRANCH  20  22
ENDBRANCH   1  20
TORSDOF 4
ENDMDL
