MODEL 1
REMARK VINA RESULT:      -7.7      0.000      0.000
REMARK  Name = 
REMARK  6 active torsions:
REMARK  status: ('A' for Active; 'I' for Inactive)
REMARK    1  A    between atoms: C_1  and  C_2
REMARK    2  A    between atoms: C_5  and  N_6
REMARK    3  A    between atoms: C_7  and  C_9
REMARK    4  A    between atoms: C_17  and  S_18
REMARK    5  A    between atoms: S_18  and  N_21
REMARK    6  A    between atoms: N_21  and  C_22
REMARK                            x       y       z     vdW  Elec       q    Type
REMARK                         _______ _______ _______ _____ _____    ______ ____
ROOT
ATOM      1  C   UNL     1       1.886   2.055  21.016  0.00  0.00    +0.000 C 
ATOM      2  C   UNL     1       2.618   2.602  19.823  0.00  0.00    +0.000 A 
ATOM      3  C   UNL     1       3.250   1.672  18.987  0.00  0.00    +0.000 A 
ATOM      4  C   UNL     1       3.967   2.076  17.861  0.00  0.00    +0.000 A 
ATOM      5  C   UNL     1       4.086   3.423  17.522  0.00  0.00    +0.000 A 
ATOM      6  C   UNL     1       3.476   4.367  18.355  0.00  0.00    +0.000 A 
ATOM      7  C   UNL     1       2.733   3.966  19.494  0.00  0.00    +0.000 A 
ENDROOT
BRANCH   5   8
ATOM      8  N   UNL     1       4.796   3.861  16.379  0.00  0.00    +0.000 N 
ATOM      9  C   UNL     1       6.142   4.186  16.339  0.00  0.00    +0.000 C 
ATOM     10  O   UNL     1       6.938   4.197  17.270  0.00  0.00    +0.000 OA
ATOM     11  H   UNL     1       4.299   3.936  15.494  0.00  0.00    +0.000 HD
BRANCH   9  12
ATOM     12  C   UNL     1       6.686   4.553  14.959  0.00  0.00    +0.000 A 
ATOM     13  C   UNL     1       6.042   3.865  13.812  0.00  0.00    +0.000 A 
ATOM     14  C   UNL     1       6.457   4.189  12.588  0.00  0.00    +0.000 A 
ATOM     15  C   UNL     1       7.524   5.190  12.415  0.00  0.00    +0.000 A 
ATOM     16  O   UNL     1       7.905   5.511  11.296  0.00  0.00    +0.000 OA
ATOM     17  N   UNL     1       8.048   5.719  13.572  0.00  0.00    +0.000 N 
ATOM     18  N   UNL     1       7.640   5.430  14.854  0.00  0.00    +0.000 NA
ATOM     19  H   UNL     1       8.788   6.405  13.466  0.00  0.00    +0.000 HD
ENDBRANCH   9  12
ENDBRANCH   5   8
BRANCH   7  20
ATOM     20  S   UNL     1       2.105   5.277  20.548  0.00  0.00    +0.000 S 
ATOM     21  O   UNL     1       0.722   5.533  20.203  0.00  0.00    +0.000 OA
ATOM     22  O   UNL     1       2.474   4.960  21.908  0.00  0.00    +0.000 OA
BRANCH  20  23
ATOM     23  N   UNL     1       2.962   6.656  20.037  0.00  0.00    +0.000 N 
ATOM     24  H   UNL     1       3.742   6.339  19.455  0.00  0.00    +0.000 HD
BRANCH  23  25
ATOM     25  C   UNL     1       2.196   7.733  19.473  0.00  0.00    +0.000 A 
ATOM     26  C   UNL     1       2.214   7.896  18.087  0.00  0.00    +0.000 A 
ATOM     27  C   UNL     1       1.502   8.943  17.494  0.00  0.00    +0.000 A 
ATOM     28  C   UNL     1       0.778   9.834  18.286  0.00  0.00    +0.000 A 
ATOM     29  C   UNL     1       0.762   9.680  19.674  0.00  0.00    +0.000 A 
ATOM     30  C   UNL     1       1.471   8.634  20.268  0.00  0.00    +0.000 A 
ATOM     31 CL   UNL     1       1.388   8.455  21.984  0.00  0.00    +0.000 Cl
ENDBRANCH  23  25
ENDBRANCH  20  23
ENDBRANCH   7  20
TORSDOF 5
ENDMDL
MODEL 2
REMARK VINA RESULT:      -7.4      3.267      7.103
REMARK  Name = 
REMARK  6 active torsions:
REMARK  status: ('A' for Active; 'I' for Inactive)
REMARK    1  A    between atoms: C_1  and  C_2
REMARK    2  A    between atoms: C_5  and  N_6
REMARK    3  A    between atoms: C_7  and  C_9
REMARK    4  A    between atoms: C_17  and  S_18
REMARK    5  A    between atoms: S_18  and  N_21
REMARK    6  A    between atoms: N_21  and  C_22
REMARK                            x       y       z     vdW  Elec       q    Type
REMARK                         _______ _______ _______ _____ _____    ______ ____
ROOT
ATOM      1  C   UNL     1       2.138   2.516  20.785  0.00  0.00    +0.000 C 
ATOM      2  C   UNL     1       2.172   3.929  20.275  0.00  0.00    +0.000 A 
ATOM      3  C   UNL     1       1.821   4.937  21.182  0.00  0.00    +0.000 A 
ATOM      4  C   UNL     1       1.807   6.281  20.806  0.00  0.00    +0.000 A 
ATOM      5  C   UNL     1       2.139   6.674  19.511  0.00  0.00    +0.000 A 
ATOM      6  C   UNL     1       2.476   5.680  18.587  0.00  0.00    +0.000 A 
ATOM      7  C   UNL     1       2.506   4.312  18.962  0.00  0.00    +0.000 A 
ENDROOT
BRANCH   5   8
ATOM      8  N   UNL     1       2.146   8.031  19.105  0.00  0.00    +0.000 N 
ATOM      9  C   UNL     1       1.322   9.027  19.602  0.00  0.00    +0.000 C 
ATOM     10  O   UNL     1       0.428   8.915  20.432  0.00  0.00    +0.000 OA
ATOM     11  H   UNL     1       2.817   8.325  18.399  0.00  0.00    +0.000 HD
BRANCH   9  12
ATOM     12  C   UNL     1       1.586  10.428  19.054  0.00  0.00    +0.000 A 
ATOM     13  C   UNL     1       1.095  11.549  19.894  0.00  0.00    +0.000 A 
ATOM     14  C   UNL     1       1.345  12.789  19.473  0.00  0.00    +0.000 A 
ATOM     15  C   UNL     1       2.074  13.004  18.211  0.00  0.00    +0.000 A 
ATOM     16  O   UNL     1       2.326  14.136  17.819  0.00  0.00    +0.000 OA
ATOM     17  N   UNL     1       2.437  11.868  17.524  0.00  0.00    +0.000 N 
ATOM     18  N   UNL     1       2.220  10.571  17.927  0.00  0.00    +0.000 NA
ATOM     19  H   UNL     1       2.935  12.003  16.650  0.00  0.00    +0.000 HD
ENDBRANCH   9  12
ENDBRANCH   5   8
BRANCH   7  20
ATOM     20  S   UNL     1       2.831   3.126  17.654  0.00  0.00    +0.000 S 
ATOM     21  O   UNL     1       2.240   1.855  18.019  0.00  0.00    +0.000 OA
ATOM     22  O   UNL     1       2.495   3.755  16.399  0.00  0.00    +0.000 OA
BRANCH  20  23
ATOM     23  N   UNL     1       4.513   2.883  17.733  0.00  0.00    +0.000 N 
ATOM     24  H   UNL     1       4.696   1.899  17.518  0.00  0.00    +0.000 HD
BRANCH  23  25
ATOM     25  C   UNL     1       5.344   3.813  17.020  0.00  0.00    +0.000 A 
ATOM     26  C   UNL     1       5.469   3.658  15.638  0.00  0.00    +0.000 A 
ATOM     27  C   UNL     1       6.284   4.525  14.905  0.00  0.00    +0.000 A 
ATOM     28  C   UNL     1       6.983   5.544  15.552  0.00  0.00    +0.000 A 
ATOM     29  C   UNL     1       6.867   5.700  16.935  0.00  0.00    +0.000 A 
ATOM     30  C   UNL     1       6.052   4.837  17.669  0.00  0.00    +0.000 A 
ATOM     31 CL   UNL     1       5.905   5.094  19.371  0.00  0.00    +0.000 Cl
ENDBRANCH  23  25
ENDBRANCH  20  23
ENDBRANCH   7  20
TORSDOF 5
ENDMDL
MODEL 3
REMARK VINA RESULT:      -7.4      3.887      7.574
REMARK  Name = 
REMARK  6 active torsions:
REMARK  status: ('A' for Active; 'I' for Inactive)
REMARK    1  A    between atoms: C_1  and  C_2
REMARK    2  A    between atoms: C_5  and  N_6
REMARK    3  A    between atoms: C_7  and  C_9
REMARK    4  A    between atoms: C_17  and  S_18
REMARK    5  A    between atoms: S_18  and  N_21
REMARK    6  A    between atoms: N_21  and  C_22
REMARK                            x       y       z     vdW  Elec       q    Type
REMARK                         _______ _______ _______ _____ _____    ______ ____
ROOT
ATOM      1  C   UNL     1       1.620   3.438  20.731  0.00  0.00    +0.000 C 
ATOM      2  C   UNL     1       1.775   4.847  20.233  0.00  0.00    +0.000 A 
ATOM      3  C   UNL     1       1.320   5.869  21.074  0.00  0.00    +0.000 A 
ATOM      4  C   UNL     1       1.406   7.210  20.701  0.00  0.00    +0.000 A 
ATOM      5  C   UNL     1       1.946   7.588  19.472  0.00  0.00    +0.000 A 
ATOM      6  C   UNL     1       2.389   6.578  18.611  0.00  0.00    +0.000 A 
ATOM      7  C   UNL     1       2.319   5.213  18.987  0.00  0.00    +0.000 A 
ENDROOT
BRANCH   5   8
ATOM      8  N   UNL     1       2.056   8.941  19.072  0.00  0.00    +0.000 N 
ATOM      9  C   UNL     1       1.098   9.922  19.266  0.00  0.00    +0.000 C 
ATOM     10  O   UNL     1      -0.011   9.796  19.768  0.00  0.00    +0.000 OA
ATOM     11  H   UNL     1       2.912   9.246  18.613  0.00  0.00    +0.000 HD
BRANCH   9  12
ATOM     12  C   UNL     1       1.498  11.325  18.813  0.00  0.00    +0.000 A 
ATOM     13  C   UNL     1       0.737  12.440  19.429  0.00  0.00    +0.000 A 
ATOM     14  C   UNL     1       1.084  13.683  19.094  0.00  0.00    +0.000 A 
ATOM     15  C   UNL     1       2.181  13.905  18.136  0.00  0.00    +0.000 A 
ATOM     16  O   UNL     1       2.523  15.041  17.831  0.00  0.00    +0.000 OA
ATOM     17  N   UNL     1       2.772  12.774  17.622  0.00  0.00    +0.000 N 
ATOM     18  N   UNL     1       2.462  11.475  17.952  0.00  0.00    +0.000 NA
ATOM     19  H   UNL     1       3.525  12.914  16.957  0.00  0.00    +0.000 HD
ENDBRANCH   9  12
ENDBRANCH   5   8
BRANCH   7  20
ATOM     20  S   UNL     1       2.805   4.010  17.745  0.00  0.00    +0.000 S 
ATOM     21  O   UNL     1       3.517   2.929  18.394  0.00  0.00    +0.000 OA
ATOM     22  O   UNL     1       1.648   3.736  16.925  0.00  0.00    +0.000 OA
BRANCH  20  23
ATOM     23  N   UNL     1       3.973   4.831  16.819  0.00  0.00    +0.000 N 
ATOM     24  H   UNL     1       3.583   5.742  16.563  0.00  0.00    +0.000 HD
BRANCH  23  25
ATOM     25  C   UNL     1       5.310   4.880  17.343  0.00  0.00    +0.000 A 
ATOM     26  C   UNL     1       5.494   5.397  18.626  0.00  0.00    +0.000 A 
ATOM     27  C   UNL     1       6.779   5.485  19.169  0.00  0.00    +0.000 A 
ATOM     28  C   UNL     1       7.883   5.066  18.428  0.00  0.00    +0.000 A 
ATOM     29  C   UNL     1       7.706   4.554  17.141  0.00  0.00    +0.000 A 
ATOM     30  C   UNL     1       6.423   4.463  16.597  0.00  0.00    +0.000 A 
ATOM     31 CL   UNL     1       6.247   3.783  15.018  0.00  0.00    +0.000 Cl
ENDBRANCH  23  25
ENDBRANCH  20  23
ENDBRANCH   7  20
TORSDOF 5
ENDMDL
MODEL 4
REMARK VINA RESULT:      -7.3      3.405      8.012
REMARK  Name = 
REMARK  6 active torsions:
REMARK  status: ('A' for Active; 'I' for Inactive)
REMARK    1  A    between atoms: C_1  and  C_2
REMARK    2  A    between atoms: C_5  and  N_6
REMARK    3  A    between atoms: C_7  and  C_9
REMARK    4  A    between atoms: C_17  and  S_18
REMARK    5  A    between atoms: S_18  and  N_21
REMARK    6  A    between atoms: N_21  and  C_22
REMARK                            x       y       z     vdW  Elec       q    Type
REMARK                         _______ _______ _______ _____ _____    ______ ____
ROOT
ATOM      1  C   UNL     1       3.675   1.577  19.306  0.00  0.00    +0.000 C 
ATOM      2  C   UNL     1       3.089   2.882  19.766  0.00  0.00    +0.000 A 
ATOM      3  C   UNL     1       2.593   2.926  21.075  0.00  0.00    +0.000 A 
ATOM      4  C   UNL     1       2.017   4.085  21.595  0.00  0.00    +0.000 A 
ATOM      5  C   UNL     1       1.909   5.247  20.832  0.00  0.00    +0.000 A 
ATOM      6  C   UNL     1       2.384   5.216  19.516  0.00  0.00    +0.000 A 
ATOM      7  C   UNL     1       2.984   4.047  18.982  0.00  0.00    +0.000 A 
ENDROOT
BRANCH   5   8
ATOM      8  N   UNL     1       1.341   6.441  21.338  0.00  0.00    +0.000 N 
ATOM      9  C   UNL     1       1.430   7.691  20.748  0.00  0.00    +0.000 C 
ATOM     10  O   UNL     1       2.035   7.997  19.729  0.00  0.00    +0.000 OA
ATOM     11  H   UNL     1       0.804   6.398  22.201  0.00  0.00    +0.000 HD
BRANCH   9  12
ATOM     12  C   UNL     1       0.657   8.803  21.455  0.00  0.00    +0.000 A 
ATOM     13  C   UNL     1       0.375  10.009  20.636  0.00  0.00    +0.000 A 
ATOM     14  C   UNL     1      -0.336  10.985  21.202  0.00  0.00    +0.000 A 
ATOM     15  C   UNL     1      -0.799  10.844  22.594  0.00  0.00    +0.000 A 
ATOM     16  O   UNL     1      -1.466  11.725  23.122  0.00  0.00    +0.000 OA
ATOM     17  N   UNL     1      -0.432   9.685  23.237  0.00  0.00    +0.000 N 
ATOM     18  N   UNL     1       0.282   8.643  22.690  0.00  0.00    +0.000 NA
ATOM     19  H   UNL     1      -0.740   9.579  24.198  0.00  0.00    +0.000 HD
ENDBRANCH   9  12
ENDBRANCH   5   8
BRANCH   7  20
ATOM     20  S   UNL     1       3.439   4.097  17.246  0.00  0.00    +0.000 S 
ATOM     21  O   UNL     1       2.748   3.032  16.551  0.00  0.00    +0.000 OA
ATOM     22  O   UNL     1       3.312   5.465  16.800  0.00  0.00    +0.000 OA
BRANCH  20  23
ATOM     23  N   UNL     1       5.081   3.651  17.242  0.00  0.00    +0.000 N 
ATOM     24  H   UNL     1       5.274   3.186  16.351  0.00  0.00    +0.000 HD
BRANCH  23  25
ATOM     25  C   UNL     1       6.036   4.660  17.607  0.00  0.00    +0.000 A 
ATOM     26  C   UNL     1       6.409   4.757  18.949  0.00  0.00    +0.000 A 
ATOM     27  C   UNL     1       7.318   5.737  19.356  0.00  0.00    +0.000 A 
ATOM     28  C   UNL     1       7.850   6.629  18.424  0.00  0.00    +0.000 A 
ATOM     29  C   UNL     1       7.476   6.542  17.082  0.00  0.00    +0.000 A 
ATOM     30  C   UNL     1       6.569   5.562  16.673  0.00  0.00    +0.000 A 
ATOM     31 CL   UNL     1       6.167   5.463  14.995  0.00  0.00    +0.000 Cl
ENDBRANCH  23  25
ENDBRANCH  20  23
ENDBRANCH   7  20
TORSDOF 5
ENDMDL
MODEL 5
REMARK VINA RESULT:      -7.3      3.154      7.620
REMARK  Name = 
REMARK  6 active torsions:
REMARK  status: ('A' for Active; 'I' for Inactive)
REMARK    1  A    between atoms: C_1  and  C_2
REMARK    2  A    between atoms: C_5  and  N_6
REMARK    3  A    between atoms: C_7  and  C_9
REMARK    4  A    between atoms: C_17  and  S_18
REMARK    5  A    between atoms: S_18  and  N_21
REMARK    6  A    between atoms: N_21  and  C_22
REMARK                            x       y       z     vdW  Elec       q    Type
REMARK                         _______ _______ _______ _____ _____    ______ ____
ROOT
ATOM      1  C   UNL     1       4.447   2.781  19.883  0.00  0.00    +0.000 C 
ATOM      2  C   UNL     1       3.822   4.146  19.824  0.00  0.00    +0.000 A 
ATOM      3  C   UNL     1       2.458   4.231  20.131  0.00  0.00    +0.000 A 
ATOM      4  C   UNL     1       1.779   5.449  20.094  0.00  0.00    +0.000 A 
ATOM      5  C   UNL     1       2.430   6.632  19.747  0.00  0.00    +0.000 A 
ATOM      6  C   UNL     1       3.788   6.563  19.420  0.00  0.00    +0.000 A 
ATOM      7  C   UNL     1       4.492   5.332  19.468  0.00  0.00    +0.000 A 
ENDROOT
BRANCH   5   8
ATOM      8  N   UNL     1       1.769   7.883  19.713  0.00  0.00    +0.000 N 
ATOM      9  C   UNL     1       1.657   8.708  18.606  0.00  0.00    +0.000 C 
ATOM     10  O   UNL     1       2.132   8.533  17.491  0.00  0.00    +0.000 OA
ATOM     11  H   UNL     1       1.317   8.219  20.561  0.00  0.00    +0.000 HD
BRANCH   9  12
ATOM     12  C   UNL     1       0.821   9.969  18.813  0.00  0.00    +0.000 A 
ATOM     13  C   UNL     1      -0.442  10.038  18.036  0.00  0.00    +0.000 A 
ATOM     14  C   UNL     1      -1.223  11.102  18.222  0.00  0.00    +0.000 A 
ATOM     15  C   UNL     1      -0.812  12.159  19.162  0.00  0.00    +0.000 A 
ATOM     16  O   UNL     1      -1.526  13.135  19.356  0.00  0.00    +0.000 OA
ATOM     17  N   UNL     1       0.401  11.974  19.785  0.00  0.00    +0.000 N 
ATOM     18  N   UNL     1       1.230  10.885  19.642  0.00  0.00    +0.000 NA
ATOM     19  H   UNL     1       0.697  12.698  20.431  0.00  0.00    +0.000 HD
ENDBRANCH   9  12
ENDBRANCH   5   8
BRANCH   7  20
ATOM     20  S   UNL     1       6.197   5.357  18.907  0.00  0.00    +0.000 S 
ATOM     21  O   UNL     1       6.382   6.490  18.024  0.00  0.00    +0.000 OA
ATOM     22  O   UNL     1       7.041   5.187  20.066  0.00  0.00    +0.000 OA
BRANCH  20  23
ATOM     23  N   UNL     1       6.318   3.982  17.912  0.00  0.00    +0.000 N 
ATOM     24  H   UNL     1       5.665   3.281  18.271  0.00  0.00    +0.000 HD
BRANCH  23  25
ATOM     25  C   UNL     1       6.249   4.191  16.492  0.00  0.00    +0.000 A 
ATOM     26  C   UNL     1       7.418   4.557  15.824  0.00  0.00    +0.000 A 
ATOM     27  C   UNL     1       7.395   4.793  14.446  0.00  0.00    +0.000 A 
ATOM     28  C   UNL     1       6.201   4.671  13.735  0.00  0.00    +0.000 A 
ATOM     29  C   UNL     1       5.027   4.312  14.399  0.00  0.00    +0.000 A 
ATOM     30  C   UNL     1       5.048   4.074  15.775  0.00  0.00    +0.000 A 
ATOM     31 CL   UNL     1       3.581   3.590  16.548  0.00  0.00    +0.000 Cl
ENDBRANCH  23  25
ENDBRANCH  20  23
ENDBRANCH   7  20
TORSDOF 5
ENDMDL
MODEL 6
REMARK VINA RESULT:      -7.2      3.304      8.182
REMARK  Name = 
REMARK  6 active torsions:
REMARK  status: ('A' for Active; 'I' for Inactive)
REMARK    1  A    between atoms: C_1  and  C_2
REMARK    2  A    between atoms: C_5  and  N_6
REMARK    3  A    between atoms: C_7  and  C_9
REMARK    4  A    between atoms: C_17  and  S_18
REMARK    5  A    between atoms: S_18  and  N_21
REMARK    6  A    between atoms: N_21  and  C_22
REMARK                            x       y       z     vdW  Elec       q    Type
REMARK                         _______ _______ _______ _____ _____    ______ ____
ROOT
ATOM      1  C   UNL     1       5.649   5.345  15.758  0.00  0.00    +0.000 C 
ATOM      2  C   UNL     1       4.772   5.981  16.800  0.00  0.00    +0.000 A 
ATOM      3  C   UNL     1       3.947   7.031  16.378  0.00  0.00    +0.000 A 
ATOM      4  C   UNL     1       3.104   7.696  17.268  0.00  0.00    +0.000 A 
ATOM      5  C   UNL     1       3.050   7.344  18.616  0.00  0.00    +0.000 A 
ATOM      6  C   UNL     1       3.880   6.309  19.059  0.00  0.00    +0.000 A 
ATOM      7  C   UNL     1       4.730   5.617  18.160  0.00  0.00    +0.000 A 
ENDROOT
BRANCH   5   8
ATOM      8  N   UNL     1       2.196   7.994  19.539  0.00  0.00    +0.000 N 
ATOM      9  C   UNL     1       1.634   9.250  19.375  0.00  0.00    +0.000 C 
ATOM     10  O   UNL     1       1.802  10.029  18.446  0.00  0.00    +0.000 OA
ATOM     11  H   UNL     1       1.946   7.508  20.398  0.00  0.00    +0.000 HD
BRANCH   9  12
ATOM     12  C   UNL     1       0.680   9.689  20.484  0.00  0.00    +0.000 A 
ATOM     13  C   UNL     1       0.874   9.025  21.797  0.00  0.00    +0.000 A 
ATOM     14  C   UNL     1       0.090   9.412  22.804  0.00  0.00    +0.000 A 
ATOM     15  C   UNL     1      -0.928  10.453  22.584  0.00  0.00    +0.000 A 
ATOM     16  O   UNL     1      -1.645  10.831  23.503  0.00  0.00    +0.000 OA
ATOM     17  N   UNL     1      -1.013  10.953  21.305  0.00  0.00    +0.000 N 
ATOM     18  N   UNL     1      -0.215  10.601  20.241  0.00  0.00    +0.000 NA
ATOM     19  H   UNL     1      -1.715  11.667  21.140  0.00  0.00    +0.000 HD
ENDBRANCH   9  12
ENDBRANCH   5   8
BRANCH   7  20
ATOM     20  S   UNL     1       5.834   4.394  18.875  0.00  0.00    +0.000 S 
ATOM     21  O   UNL     1       6.968   4.215  17.992  0.00  0.00    +0.000 OA
ATOM     22  O   UNL     1       6.033   4.743  20.262  0.00  0.00    +0.000 OA
BRANCH  20  23
ATOM     23  N   UNL     1       4.951   2.943  18.778  0.00  0.00    +0.000 N 
ATOM     24  H   UNL     1       5.581   2.178  19.034  0.00  0.00    +0.000 HD
BRANCH  23  25
ATOM     25  C   UNL     1       3.674   2.907  19.435  0.00  0.00    +0.000 A 
ATOM     26  C   UNL     1       3.652   2.767  20.823  0.00  0.00    +0.000 A 
ATOM     27  C   UNL     1       2.433   2.705  21.503  0.00  0.00    +0.000 A 
ATOM     28  C   UNL     1       1.232   2.773  20.797  0.00  0.00    +0.000 A 
ATOM     29  C   UNL     1       1.247   2.906  19.407  0.00  0.00    +0.000 A 
ATOM     30  C   UNL     1       2.464   2.970  18.725  0.00  0.00    +0.000 A 
ATOM     31 CL   UNL     1       2.436   3.178  17.010  0.00  0.00    +0.000 Cl
ENDBRANCH  23  25
ENDBRANCH  20  23
ENDBRANCH   7  20
TORSDOF 5
ENDMDL
MODEL 7
REMARK VINA RESULT:      -7.2      3.224      7.831
REMARK  Name = 
REMARK  6 active torsions:
REMARK  status: ('A' for Active; 'I' for Inactive)
REMARK    1  A    between atoms: C_1  and  C_2
REMARK    2  A    between atoms: C_5  and  N_6
REMARK    3  A    between atoms: C_7  and  C_9
REMARK    4  A    between atoms: C_17  and  S_18
REMARK    5  A    between atoms: S_18  and  N_21
REMARK    6  A    between atoms: N_21  and  C_22
REMARK                            x       y       z     vdW  Elec       q    Type
REMARK                         _______ _______ _______ _____ _____    ______ ____
ROOT
ATOM      1  C   UNL     1       3.289   2.549  20.691  0.00  0.00    +0.000 C 
ATOM      2  C   UNL     1       2.892   3.960  20.362  0.00  0.00    +0.000 A 
ATOM      3  C   UNL     1       1.896   4.539  21.158  0.00  0.00    +0.000 A 
ATOM      4  C   UNL     1       1.446   5.839  20.929  0.00  0.00    +0.000 A 
ATOM      5  C   UNL     1       1.969   6.615  19.895  0.00  0.00    +0.000 A 
ATOM      6  C   UNL     1       2.953   6.048  19.079  0.00  0.00    +0.000 A 
ATOM      7  C   UNL     1       3.427   4.731  19.313  0.00  0.00    +0.000 A 
ENDROOT
BRANCH   5   8
ATOM      8  N   UNL     1       1.540   7.942  19.647  0.00  0.00    +0.000 N 
ATOM      9  C   UNL     1       1.318   8.913  20.610  0.00  0.00    +0.000 C 
ATOM     10  O   UNL     1       1.408   8.796  21.825  0.00  0.00    +0.000 OA
ATOM     11  H   UNL     1       1.390   8.234  18.684  0.00  0.00    +0.000 HD
BRANCH   9  12
ATOM     12  C   UNL     1       0.938  10.291  20.072  0.00  0.00    +0.000 A 
ATOM     13  C   UNL     1       0.399  11.244  21.074  0.00  0.00    +0.000 A 
ATOM     14  C   UNL     1       0.096  12.473  20.654  0.00  0.00    +0.000 A 
ATOM     15  C   UNL     1       0.291  12.835  19.240  0.00  0.00    +0.000 A 
ATOM     16  O   UNL     1       0.034  13.964  18.842  0.00  0.00    +0.000 OA
ATOM     17  N   UNL     1       0.768  11.836  18.422  0.00  0.00    +0.000 N 
ATOM     18  N   UNL     1       1.113  10.562  18.812  0.00  0.00    +0.000 NA
ATOM     19  H   UNL     1       0.902  12.072  17.444  0.00  0.00    +0.000 HD
ENDBRANCH   9  12
ENDBRANCH   5   8
BRANCH   7  20
ATOM     20  S   UNL     1       4.599   4.075  18.121  0.00  0.00    +0.000 S 
ATOM     21  O   UNL     1       5.921   4.082  18.714  0.00  0.00    +0.000 OA
ATOM     22  O   UNL     1       4.043   2.855  17.587  0.00  0.00    +0.000 OA
BRANCH  20  23
ATOM     23  N   UNL     1       4.644   5.259  16.900  0.00  0.00    +0.000 N 
ATOM     24  H   UNL     1       4.776   6.168  17.352  0.00  0.00    +0.000 HD
BRANCH  23  25
ATOM     25  C   UNL     1       5.514   5.017  15.783  0.00  0.00    +0.000 A 
ATOM     26  C   UNL     1       5.038   4.225  14.737  0.00  0.00    +0.000 A 
ATOM     27  C   UNL     1       5.856   3.943  13.640  0.00  0.00    +0.000 A 
ATOM     28  C   UNL     1       7.156   4.446  13.589  0.00  0.00    +0.000 A 
ATOM     29  C   UNL     1       7.641   5.234  14.634  0.00  0.00    +0.000 A 
ATOM     30  C   UNL     1       6.825   5.518  15.731  0.00  0.00    +0.000 A 
ATOM     31 CL   UNL     1       7.451   6.533  16.981  0.00  0.00    +0.000 Cl
ENDBRANCH  23  25
ENDBRANCH  20  23
ENDBRANCH   7  20
TORSDOF 5
ENDMDL
MODEL 8
REMARK VINA RESULT:      -7.2      3.584      7.179
REMARK  Name = 
REMARK  6 active torsions:
REMARK  status: ('A' for Active; 'I' for Inactive)
REMARK    1  A    between atoms: C_1  and  C_2
REMARK    2  A    between atoms: C_5  and  N_6
REMARK    3  A    between atoms: C_7  and  C_9
REMARK    4  A    between atoms: C_17  and  S_18
REMARK    5  A    between atoms: S_18  and  N_21
REMARK    6  A    between atoms: N_21  and  C_22
REMARK                            x       y       z     vdW  Elec       q    Type
REMARK                         _______ _______ _______ _____ _____    ______ ____
ROOT
ATOM      1  C   UNL     1       3.125   2.363  20.577  0.00  0.00    +0.000 C 
ATOM      2  C   UNL     1       2.757   3.779  20.235  0.00  0.00    +0.000 A 
ATOM      3  C   UNL     1       2.292   4.584  21.282  0.00  0.00    +0.000 A 
ATOM      4  C   UNL     1       1.913   5.909  21.069  0.00  0.00    +0.000 A 
ATOM      5  C   UNL     1       1.978   6.486  19.801  0.00  0.00    +0.000 A 
ATOM      6  C   UNL     1       2.423   5.692  18.739  0.00  0.00    +0.000 A 
ATOM      7  C   UNL     1       2.825   4.348  18.948  0.00  0.00    +0.000 A 
ENDROOT
BRANCH   5   8
ATOM      8  N   UNL     1       1.611   7.831  19.557  0.00  0.00    +0.000 N 
ATOM      9  C   UNL     1       2.005   8.592  18.469  0.00  0.00    +0.000 C 
ATOM     10  O   UNL     1       2.759   8.265  17.561  0.00  0.00    +0.000 OA
ATOM     11  H   UNL     1       0.992   8.296  20.218  0.00  0.00    +0.000 HD
BRANCH   9  12
ATOM     12  C   UNL     1       1.403   9.994  18.398  0.00  0.00    +0.000 A 
ATOM     13  C   UNL     1      -0.040  10.090  18.732  0.00  0.00    +0.000 A 
ATOM     14  C   UNL     1      -0.594  11.302  18.725  0.00  0.00    +0.000 A 
ATOM     15  C   UNL     1       0.221  12.481  18.384  0.00  0.00    +0.000 A 
ATOM     16  O   UNL     1      -0.270  13.603  18.390  0.00  0.00    +0.000 OA
ATOM     17  N   UNL     1       1.536  12.232  18.064  0.00  0.00    +0.000 N 
ATOM     18  N   UNL     1       2.157  11.004  18.077  0.00  0.00    +0.000 NA
ATOM     19  H   UNL     1       2.107  13.035  17.822  0.00  0.00    +0.000 HD
ENDBRANCH   9  12
ENDBRANCH   5   8
BRANCH   7  20
ATOM     20  S   UNL     1       3.257   3.400  17.486  0.00  0.00    +0.000 S 
ATOM     21  O   UNL     1       2.617   2.104  17.563  0.00  0.00    +0.000 OA
ATOM     22  O   UNL     1       3.053   4.251  16.337  0.00  0.00    +0.000 OA
BRANCH  20  23
ATOM     23  N   UNL     1       4.921   3.096  17.675  0.00  0.00    +0.000 N 
ATOM     24  H   UNL     1       5.170   2.330  17.044  0.00  0.00    +0.000 HD
BRANCH  23  25
ATOM     25  C   UNL     1       5.805   4.227  17.618  0.00  0.00    +0.000 A 
ATOM     26  C   UNL     1       6.112   4.882  18.812  0.00  0.00    +0.000 A 
ATOM     27  C   UNL     1       6.950   6.000  18.803  0.00  0.00    +0.000 A 
ATOM     28  C   UNL     1       7.478   6.471  17.601  0.00  0.00    +0.000 A 
ATOM     29  C   UNL     1       7.169   5.824  16.403  0.00  0.00    +0.000 A 
ATOM     30  C   UNL     1       6.333   4.706  16.409  0.00  0.00    +0.000 A 
ATOM     31 CL   UNL     1       6.014   3.910  14.909  0.00  0.00    +0.000 Cl
ENDBRANCH  23  25
ENDBRANCH  20  23
ENDBRANCH   7  20
TORSDOF 5
ENDMDL
MODEL 9
REMARK VINA RESULT:      -7.1      3.927      5.536
REMARK  Name = 
REMARK  6 active torsions:
REMARK  status: ('A' for Active; 'I' for Inactive)
REMARK    1  A    between atoms: C_1  and  C_2
REMARK    2  A    between atoms: C_5  and  N_6
REMARK    3  A    between atoms: C_7  and  C_9
REMARK    4  A    between atoms: C_17  and  S_18
REMARK    5  A    between atoms: S_18  and  N_21
REMARK    6  A    between atoms: N_21  and  C_22
REMARK                            x       y       z     vdW  Elec       q    Type
REMARK                         _______ _______ _______ _____ _____    ______ ____
ROOT
ATOM      1  C   UNL     1      -0.547   9.514  22.611  0.00  0.00    +0.000 C 
ATOM      2  C   UNL     1       0.316   9.029  21.480  0.00  0.00    +0.000 A 
ATOM      3  C   UNL     1       0.787   7.713  21.562  0.00  0.00    +0.000 A 
ATOM      4  C   UNL     1       1.605   7.170  20.572  0.00  0.00    +0.000 A 
ATOM      5  C   UNL     1       1.990   7.917  19.460  0.00  0.00    +0.000 A 
ATOM      6  C   UNL     1       1.544   9.240  19.369  0.00  0.00    +0.000 A 
ATOM      7  C   UNL     1       0.700   9.797  20.364  0.00  0.00    +0.000 A 
ENDROOT
BRANCH   5   8
ATOM      8  N   UNL     1       2.809   7.388  18.433  0.00  0.00    +0.000 N 
ATOM      9  C   UNL     1       3.706   6.341  18.574  0.00  0.00    +0.000 C 
ATOM     10  O   UNL     1       3.980   5.723  19.594  0.00  0.00    +0.000 OA
ATOM     11  H   UNL     1       2.740   7.787  17.500  0.00  0.00    +0.000 HD
BRANCH   9  12
ATOM     12  C   UNL     1       4.410   5.907  17.289  0.00  0.00    +0.000 A 
ATOM     13  C   UNL     1       4.530   4.442  17.087  0.00  0.00    +0.000 A 
ATOM     14  C   UNL     1       5.098   4.021  15.957  0.00  0.00    +0.000 A 
ATOM     15  C   UNL     1       5.589   5.000  14.972  0.00  0.00    +0.000 A 
ATOM     16  O   UNL     1       6.099   4.629  13.922  0.00  0.00    +0.000 OA
ATOM     17  N   UNL     1       5.438   6.325  15.313  0.00  0.00    +0.000 N 
ATOM     18  N   UNL     1       4.841   6.807  16.455  0.00  0.00    +0.000 NA
ATOM     19  H   UNL     1       5.778   7.010  14.645  0.00  0.00    +0.000 HD
ENDBRANCH   9  12
ENDBRANCH   5   8
BRANCH   7  20
ATOM     20  S   UNL     1       0.299  11.539  20.195  0.00  0.00    +0.000 S 
ATOM     21  O   UNL     1      -1.140  11.683  20.133  0.00  0.00    +0.000 OA
ATOM     22  O   UNL     1       1.065  12.262  21.183  0.00  0.00    +0.000 OA
BRANCH  20  23
ATOM     23  N   UNL     1       0.862  11.938  18.640  0.00  0.00    +0.000 N 
ATOM     24  H   UNL     1       0.064  11.899  18.001  0.00  0.00    +0.000 HD
BRANCH  23  25
ATOM     25  C   UNL     1       1.667  13.121  18.516  0.00  0.00    +0.000 A 
ATOM     26  C   UNL     1       3.038  12.965  18.303  0.00  0.00    +0.000 A 
ATOM     27  C   UNL     1       3.864  14.087  18.199  0.00  0.00    +0.000 A 
ATOM     28  C   UNL     1       3.325  15.368  18.316  0.00  0.00    +0.000 A 
ATOM     29  C   UNL     1       1.956  15.531  18.536  0.00  0.00    +0.000 A 
ATOM     30  C   UNL     1       1.127  14.411  18.639  0.00  0.00    +0.000 A 
ATOM     31 CL   UNL     1      -0.567  14.661  18.868  0.00  0.00    +0.000 Cl
ENDBRANCH  23  25
ENDBRANCH  20  23
ENDBRANCH   7  20
TORSDOF 5
ENDMDL
