MODEL 1
REMARK VINA RESULT:      -8.1      0.000      0.000
REMARK  Name = 
REMARK  3 active torsions:
REMARK  status: ('A' for Active; 'I' for Inactive)
REMARK    1  A    between atoms: C_2  and  C_3
REMARK    2  A    between atoms: N_5  and  C_6
REMARK    3  A    between atoms: C_10  and  O_11
REMARK                            x       y       z     vdW  Elec       q    Type
REMARK                         _______ _______ _______ _____ _____    ______ ____
ROOT
ATOM      1  O   UNL     1       3.011   9.104  17.364  0.00  0.00    +0.000 OA
ATOM      2  C   UNL     1       2.373   8.403  18.151  0.00  0.00    +0.000 C 
ATOM      3  N   UNL     1       2.593   7.046  18.332  0.00  0.00    +0.000 N 
ATOM      4  C   UNL     1       1.758   6.134  19.129  0.00  0.00    +0.000 C 
ATOM      5  C   UNL     1       2.333   4.702  18.968  0.00  0.00    +0.000 C 
ATOM      6  C   UNL     1       1.282   3.714  18.412  0.00  0.00    +0.000 C 
ATOM      7  C   UNL     1       1.160   2.606  19.455  0.00  0.00    +0.000 C 
ATOM      8  C   UNL     1       1.595   3.260  20.755  0.00  0.00    +0.000 C 
ATOM      9  C   UNL     1       2.775   4.115  20.321  0.00  0.00    +0.000 C 
ATOM     10  C   UNL     1       3.484   4.947  18.026  0.00  0.00    +0.000 A 
ATOM     11  C   UNL     1       4.375   4.015  17.507  0.00  0.00    +0.000 A 
ATOM     12  C   UNL     1       5.372   4.450  16.631  0.00  0.00    +0.000 A 
ATOM     13  C   UNL     1       5.466   5.802  16.280  0.00  0.00    +0.000 A 
ATOM     14  C   UNL     1       4.572   6.733  16.807  0.00  0.00    +0.000 A 
ATOM     15  C   UNL     1       3.587   6.295  17.681  0.00  0.00    +0.000 A 
ENDROOT
BRANCH   2  16
ATOM     16  C   UNL     1       1.303   9.026  18.920  0.00  0.00    +0.000 A 
ATOM     17  C   UNL     1       0.250   9.725  18.371  0.00  0.00    +0.000 A 
ATOM     18  N   UNL     1      -0.370  10.298  19.436  0.00  0.00    +0.000 N 
ATOM     19  N   UNL     1       0.176   9.883  20.592  0.00  0.00    +0.000 NA
ATOM     20  N   UNL     1       1.213   9.112  20.288  0.00  0.00    +0.000 NA
BRANCH  18  21
ATOM     21  C   UNL     1      -1.352  11.364  19.440  0.00  0.00    +0.000 C 
ATOM     22  C   UNL     1      -1.532  12.026  18.082  0.00  0.00    +0.000 C 
ATOM     23  O   UNL     1      -0.615  13.136  18.012  0.00  0.00    +0.000 OA
ATOM     24  C   UNL     1      -0.037  13.342  19.317  0.00  0.00    +0.000 C 
ATOM     25  C   UNL     1      -0.883  12.533  20.292  0.00  0.00    +0.000 C 
BRANCH  25  26
ATOM     26  O   UNL     1      -2.014  13.301  20.729  0.00  0.00    +0.000 OA
ATOM     27  H   UNL     1      -2.768  12.695  20.855  0.00  0.00    +0.000 HD
ENDBRANCH  25  26
ENDBRANCH  18  21
ENDBRANCH   2  16
TORSDOF 3
ENDMDL
MODEL 2
REMARK VINA RESULT:      -7.9      0.750      1.170
REMARK  Name = 
REMARK  3 active torsions:
REMARK  status: ('A' for Active; 'I' for Inactive)
REMARK    1  A    between atoms: C_2  and  C_3
REMARK    2  A    between atoms: N_5  and  C_6
REMARK    3  A    between atoms: C_10  and  O_11
REMARK                            x       y       z     vdW  Elec       q    Type
REMARK                         _______ _______ _______ _____ _____    ______ ____
ROOT
ATOM      1  O   UNL     1       3.161   8.824  17.233  0.00  0.00    +0.000 OA
ATOM      2  C   UNL     1       2.540   8.229  18.115  0.00  0.00    +0.000 C 
ATOM      3  N   UNL     1       2.681   6.876  18.381  0.00  0.00    +0.000 N 
ATOM      4  C   UNL     1       1.851   6.085  19.303  0.00  0.00    +0.000 C 
ATOM      5  C   UNL     1       2.315   4.608  19.211  0.00  0.00    +0.000 C 
ATOM      6  C   UNL     1       1.161   3.661  18.808  0.00  0.00    +0.000 C 
ATOM      7  C   UNL     1       1.046   2.642  19.939  0.00  0.00    +0.000 C 
ATOM      8  C   UNL     1       1.622   3.353  21.150  0.00  0.00    +0.000 C 
ATOM      9  C   UNL     1       2.820   4.088  20.569  0.00  0.00    +0.000 C 
ATOM     10  C   UNL     1       3.405   4.702  18.172  0.00  0.00    +0.000 A 
ATOM     11  C   UNL     1       4.188   3.673  17.663  0.00  0.00    +0.000 A 
ATOM     12  C   UNL     1       5.143   3.972  16.687  0.00  0.00    +0.000 A 
ATOM     13  C   UNL     1       5.299   5.286  16.229  0.00  0.00    +0.000 A 
ATOM     14  C   UNL     1       4.512   6.314  16.747  0.00  0.00    +0.000 A 
ATOM     15  C   UNL     1       3.571   6.011  17.720  0.00  0.00    +0.000 A 
ENDROOT
BRANCH   2  16
ATOM     16  C   UNL     1       1.576   8.981  18.908  0.00  0.00    +0.000 A 
ATOM     17  C   UNL     1       0.816  10.026  18.432  0.00  0.00    +0.000 A 
ATOM     18  N   UNL     1       0.232  10.555  19.539  0.00  0.00    +0.000 N 
ATOM     19  N   UNL     1       0.502   9.813  20.627  0.00  0.00    +0.000 NA
ATOM     20  N   UNL     1       1.337   8.851  20.255  0.00  0.00    +0.000 NA
BRANCH  18  21
ATOM     21  C   UNL     1      -0.436  11.834  19.682  0.00  0.00    +0.000 C 
ATOM     22  C   UNL     1      -1.865  11.715  20.191  0.00  0.00    +0.000 C 
ATOM     23  O   UNL     1      -2.731  11.612  19.043  0.00  0.00    +0.000 OA
ATOM     24  C   UNL     1      -1.959  11.881  17.856  0.00  0.00    +0.000 C 
ATOM     25  C   UNL     1      -0.646  12.493  18.328  0.00  0.00    +0.000 C 
BRANCH  25  26
ATOM     26  O   UNL     1      -0.787  13.911  18.495  0.00  0.00    +0.000 OA
ATOM     27  H   UNL     1      -1.541  14.078  19.092  0.00  0.00    +0.000 HD
ENDBRANCH  25  26
ENDBRANCH  18  21
ENDBRANCH   2  16
TORSDOF 3
ENDMDL
MODEL 3
REMARK VINA RESULT:      -7.9      1.695      3.628
REMARK  Name = 
REMARK  3 active torsions:
REMARK  status: ('A' for Active; 'I' for Inactive)
REMARK    1  A    between atoms: C_2  and  C_3
REMARK    2  A    between atoms: N_5  and  C_6
REMARK    3  A    between atoms: C_10  and  O_11
REMARK                            x       y       z     vdW  Elec       q    Type
REMARK                         _______ _______ _______ _____ _____    ______ ____
ROOT
ATOM      1  O   UNL     1       1.226   6.947  20.988  0.00  0.00    +0.000 OA
ATOM      2  C   UNL     1       1.905   7.077  19.969  0.00  0.00    +0.000 C 
ATOM      3  N   UNL     1       2.743   6.093  19.467  0.00  0.00    +0.000 N 
ATOM      4  C   UNL     1       3.696   6.252  18.357  0.00  0.00    +0.000 C 
ATOM      5  C   UNL     1       4.477   4.919  18.208  0.00  0.00    +0.000 C 
ATOM      6  C   UNL     1       6.003   5.124  18.344  0.00  0.00    +0.000 C 
ATOM      7  C   UNL     1       6.609   4.613  17.039  0.00  0.00    +0.000 C 
ATOM      8  C   UNL     1       5.486   4.739  16.025  0.00  0.00    +0.000 C 
ATOM      9  C   UNL     1       4.267   4.293  16.817  0.00  0.00    +0.000 C 
ATOM     10  C   UNL     1       3.880   4.098  19.323  0.00  0.00    +0.000 A 
ATOM     11  C   UNL     1       4.201   2.796  19.689  0.00  0.00    +0.000 A 
ATOM     12  C   UNL     1       3.533   2.215  20.770  0.00  0.00    +0.000 A 
ATOM     13  C   UNL     1       2.562   2.937  21.473  0.00  0.00    +0.000 A 
ATOM     14  C   UNL     1       2.242   4.242  21.099  0.00  0.00    +0.000 A 
ATOM     15  C   UNL     1       2.905   4.810  20.020  0.00  0.00    +0.000 A 
ENDROOT
BRANCH   2  16
ATOM     16  C   UNL     1       1.851   8.349  19.259  0.00  0.00    +0.000 A 
ATOM     17  C   UNL     1       1.418   9.535  19.811  0.00  0.00    +0.000 A 
ATOM     18  N   UNL     1       1.335  10.390  18.759  0.00  0.00    +0.000 N 
ATOM     19  N   UNL     1       1.809   9.821  17.637  0.00  0.00    +0.000 NA
ATOM     20  N   UNL     1       2.116   8.563  17.928  0.00  0.00    +0.000 NA
BRANCH  18  21
ATOM     21  C   UNL     1       0.669  11.677  18.693  0.00  0.00    +0.000 C 
ATOM     22  C   UNL     1       0.359  12.267  20.060  0.00  0.00    +0.000 C 
ATOM     23  O   UNL     1      -0.960  11.823  20.438  0.00  0.00    +0.000 OA
ATOM     24  C   UNL     1      -1.575  11.181  19.303  0.00  0.00    +0.000 C 
ATOM     25  C   UNL     1      -0.721  11.539  18.093  0.00  0.00    +0.000 C 
BRANCH  25  26
ATOM     26  O   UNL     1      -1.139  12.797  17.542  0.00  0.00    +0.000 OA
ATOM     27  H   UNL     1      -2.009  12.675  17.119  0.00  0.00    +0.000 HD
ENDBRANCH  25  26
ENDBRANCH  18  21
ENDBRANCH   2  16
TORSDOF 3
ENDMDL
MODEL 4
REMARK VINA RESULT:      -7.6      1.128      1.171
REMARK  Name = 
REMARK  3 active torsions:
REMARK  status: ('A' for Active; 'I' for Inactive)
REMARK    1  A    between atoms: C_2  and  C_3
REMARK    2  A    between atoms: N_5  and  C_6
REMARK    3  A    between atoms: C_10  and  O_11
REMARK                            x       y       z     vdW  Elec       q    Type
REMARK                         _______ _______ _______ _____ _____    ______ ____
ROOT
ATOM      1  O   UNL     1       3.423   8.623  17.145  0.00  0.00    +0.000 OA
ATOM      2  C   UNL     1       2.847   7.919  17.976  0.00  0.00    +0.000 C 
ATOM      3  N   UNL     1       3.019   6.548  18.081  0.00  0.00    +0.000 N 
ATOM      4  C   UNL     1       2.237   5.642  18.937  0.00  0.00    +0.000 C 
ATOM      5  C   UNL     1       2.719   4.194  18.659  0.00  0.00    +0.000 C 
ATOM      6  C   UNL     1       1.563   3.277  18.195  0.00  0.00    +0.000 C 
ATOM      7  C   UNL     1       1.508   2.134  19.205  0.00  0.00    +0.000 C 
ATOM      8  C   UNL     1       2.122   2.713  20.467  0.00  0.00    +0.000 C 
ATOM      9  C   UNL     1       3.285   3.532  19.929  0.00  0.00    +0.000 C 
ATOM     10  C   UNL     1       3.765   4.426  17.598  0.00  0.00    +0.000 A 
ATOM     11  C   UNL     1       4.542   3.477  16.945  0.00  0.00    +0.000 A 
ATOM     12  C   UNL     1       5.452   3.903  15.974  0.00  0.00    +0.000 A 
ATOM     13  C   UNL     1       5.571   5.262  15.663  0.00  0.00    +0.000 A 
ATOM     14  C   UNL     1       4.791   6.210  16.324  0.00  0.00    +0.000 A 
ATOM     15  C   UNL     1       3.893   5.780  17.292  0.00  0.00    +0.000 A 
ENDROOT
BRANCH   2  16
ATOM     16  C   UNL     1       1.905   8.558  18.887  0.00  0.00    +0.000 A 
ATOM     17  C   UNL     1       1.250   9.743  18.631  0.00  0.00    +0.000 A 
ATOM     18  N   UNL     1       0.654  10.063  19.810  0.00  0.00    +0.000 N 
ATOM     19  N   UNL     1       0.813   9.081  20.713  0.00  0.00    +0.000 NA
ATOM     20  N   UNL     1       1.591   8.157  20.163  0.00  0.00    +0.000 NA
BRANCH  18  21
ATOM     21  C   UNL     1       0.078  11.332  20.212  0.00  0.00    +0.000 C 
ATOM     22  C   UNL     1      -0.372  12.190  19.040  0.00  0.00    +0.000 C 
ATOM     23  O   UNL     1       0.736  13.035  18.668  0.00  0.00    +0.000 OA
ATOM     24  C   UNL     1       1.766  12.917  19.669  0.00  0.00    +0.000 C 
ATOM     25  C   UNL     1       1.123  12.223  20.864  0.00  0.00    +0.000 C 
BRANCH  25  26
ATOM     26  O   UNL     1       0.481  13.184  21.714  0.00  0.00    +0.000 OA
ATOM     27  H   UNL     1       0.387  14.019  21.219  0.00  0.00    +0.000 HD
ENDBRANCH  25  26
ENDBRANCH  18  21
ENDBRANCH   2  16
TORSDOF 3
ENDMDL
MODEL 5
REMARK VINA RESULT:      -7.5      2.828      8.109
REMARK  Name = 
REMARK  3 active torsions:
REMARK  status: ('A' for Active; 'I' for Inactive)
REMARK    1  A    between atoms: C_2  and  C_3
REMARK    2  A    between atoms: N_5  and  C_6
REMARK    3  A    between atoms: C_10  and  O_11
REMARK                            x       y       z     vdW  Elec       q    Type
REMARK                         _______ _______ _______ _____ _____    ______ ____
ROOT
ATOM      1  O   UNL     1       1.533   6.827  20.929  0.00  0.00    +0.000 OA
ATOM      2  C   UNL     1       1.744   7.693  20.079  0.00  0.00    +0.000 C 
ATOM      3  N   UNL     1       1.243   8.984  20.149  0.00  0.00    +0.000 N 
ATOM      4  C   UNL     1       1.323  10.001  19.089  0.00  0.00    +0.000 C 
ATOM      5  C   UNL     1       0.551  11.255  19.576  0.00  0.00    +0.000 C 
ATOM      6  C   UNL     1      -0.587  11.648  18.606  0.00  0.00    +0.000 C 
ATOM      7  C   UNL     1      -0.285  13.079  18.168  0.00  0.00    +0.000 C 
ATOM      8  C   UNL     1       1.216  13.221  18.347  0.00  0.00    +0.000 C 
ATOM      9  C   UNL     1       1.469  12.489  19.655  0.00  0.00    +0.000 C 
ATOM     10  C   UNL     1       0.059  10.797  20.925  0.00  0.00    +0.000 A 
ATOM     11  C   UNL     1      -0.714  11.507  21.837  0.00  0.00    +0.000 A 
ATOM     12  C   UNL     1      -1.079  10.890  23.036  0.00  0.00    +0.000 A 
ATOM     13  C   UNL     1      -0.674   9.578  23.309  0.00  0.00    +0.000 A 
ATOM     14  C   UNL     1       0.104   8.872  22.392  0.00  0.00    +0.000 A 
ATOM     15  C   UNL     1       0.467   9.493  21.205  0.00  0.00    +0.000 A 
ENDROOT
BRANCH   2  16
ATOM     16  C   UNL     1       2.543   7.337  18.913  0.00  0.00    +0.000 A 
ATOM     17  C   UNL     1       3.089   6.092  18.690  0.00  0.00    +0.000 A 
ATOM     18  N   UNL     1       3.910   6.267  17.621  0.00  0.00    +0.000 N 
ATOM     19  N   UNL     1       3.792   7.510  17.121  0.00  0.00    +0.000 NA
ATOM     20  N   UNL     1       2.965   8.180  17.914  0.00  0.00    +0.000 NA
BRANCH  18  21
ATOM     21  C   UNL     1       4.949   5.384  17.129  0.00  0.00    +0.000 C 
ATOM     22  C   UNL     1       5.131   4.134  17.976  0.00  0.00    +0.000 C 
ATOM     23  O   UNL     1       6.126   4.425  18.977  0.00  0.00    +0.000 OA
ATOM     24  C   UNL     1       6.733   5.696  18.671  0.00  0.00    +0.000 C 
ATOM     25  C   UNL     1       6.318   6.036  17.244  0.00  0.00    +0.000 C 
BRANCH  25  26
ATOM     26  O   UNL     1       7.222   5.436  16.305  0.00  0.00    +0.000 OA
ATOM     27  H   UNL     1       7.207   5.961  15.483  0.00  0.00    +0.000 HD
ENDBRANCH  25  26
ENDBRANCH  18  21
ENDBRANCH   2  16
TORSDOF 3
ENDMDL
MODEL 6
REMARK VINA RESULT:      -7.5      1.422      1.995
REMARK  Name = 
REMARK  3 active torsions:
REMARK  status: ('A' for Active; 'I' for Inactive)
REMARK    1  A    between atoms: C_2  and  C_3
REMARK    2  A    between atoms: N_5  and  C_6
REMARK    3  A    between atoms: C_10  and  O_11
REMARK                            x       y       z     vdW  Elec       q    Type
REMARK                         _______ _______ _______ _____ _____    ______ ____
ROOT
ATOM      1  O   UNL     1       3.457   9.050  17.338  0.00  0.00    +0.000 OA
ATOM      2  C   UNL     1       2.611   8.413  17.966  0.00  0.00    +0.000 C 
ATOM      3  N   UNL     1       2.741   7.073  18.297  0.00  0.00    +0.000 N 
ATOM      4  C   UNL     1       1.698   6.225  18.897  0.00  0.00    +0.000 C 
ATOM      5  C   UNL     1       2.263   4.784  19.004  0.00  0.00    +0.000 C 
ATOM      6  C   UNL     1       1.382   3.759  18.253  0.00  0.00    +0.000 C 
ATOM      7  C   UNL     1       0.953   2.733  19.299  0.00  0.00    +0.000 C 
ATOM      8  C   UNL     1       1.029   3.483  20.617  0.00  0.00    +0.000 C 
ATOM      9  C   UNL     1       2.302   4.300  20.466  0.00  0.00    +0.000 C 
ATOM     10  C   UNL     1       3.634   4.955  18.401  0.00  0.00    +0.000 A 
ATOM     11  C   UNL     1       4.611   3.984  18.216  0.00  0.00    +0.000 A 
ATOM     12  C   UNL     1       5.821   4.350  17.620  0.00  0.00    +0.000 A 
ATOM     13  C   UNL     1       6.038   5.671  17.212  0.00  0.00    +0.000 A 
ATOM     14  C   UNL     1       5.055   6.641  17.404  0.00  0.00    +0.000 A 
ATOM     15  C   UNL     1       3.858   6.272  18.002  0.00  0.00    +0.000 A 
ENDROOT
BRANCH   2  16
ATOM     16  C   UNL     1       1.386   9.095  18.364  0.00  0.00    +0.000 A 
ATOM     17  C   UNL     1       0.403   9.509  17.491  0.00  0.00    +0.000 A 
ATOM     18  N   UNL     1      -0.429  10.268  18.252  0.00  0.00    +0.000 N 
ATOM     19  N   UNL     1      -0.069  10.229  19.546  0.00  0.00    +0.000 NA
ATOM     20  N   UNL     1       1.052   9.522  19.626  0.00  0.00    +0.000 NA
BRANCH  18  21
ATOM     21  C   UNL     1      -1.463  11.187  17.815  0.00  0.00    +0.000 C 
ATOM     22  C   UNL     1      -2.547  11.415  18.857  0.00  0.00    +0.000 C 
ATOM     23  O   UNL     1      -3.587  10.444  18.625  0.00  0.00    +0.000 OA
ATOM     24  C   UNL     1      -3.325   9.773  17.376  0.00  0.00    +0.000 C 
ATOM     25  C   UNL     1      -2.261  10.599  16.662  0.00  0.00    +0.000 C 
BRANCH  25  26
ATOM     26  O   UNL     1      -2.873  11.655  15.908  0.00  0.00    +0.000 OA
ATOM     27  H   UNL     1      -3.666  11.959  16.387  0.00  0.00    +0.000 HD
ENDBRANCH  25  26
ENDBRANCH  18  21
ENDBRANCH   2  16
TORSDOF 3
ENDMDL
MODEL 7
REMARK VINA RESULT:      -7.5      1.010      1.288
REMARK  Name = 
REMARK  3 active torsions:
REMARK  status: ('A' for Active; 'I' for Inactive)
REMARK    1  A    between atoms: C_2  and  C_3
REMARK    2  A    between atoms: N_5  and  C_6
REMARK    3  A    between atoms: C_10  and  O_11
REMARK                            x       y       z     vdW  Elec       q    Type
REMARK                         _______ _______ _______ _____ _____    ______ ____
ROOT
ATOM      1  O   UNL     1       3.281   8.799  17.305  0.00  0.00    +0.000 OA
ATOM      2  C   UNL     1       2.642   8.116  18.105  0.00  0.00    +0.000 C 
ATOM      3  N   UNL     1       2.793   6.745  18.245  0.00  0.00    +0.000 N 
ATOM      4  C   UNL     1       1.945   5.860  19.060  0.00  0.00    +0.000 C 
ATOM      5  C   UNL     1       2.431   4.404  18.840  0.00  0.00    +0.000 C 
ATOM      6  C   UNL     1       1.302   3.489  18.313  0.00  0.00    +0.000 C 
ATOM      7  C   UNL     1       1.166   2.364  19.336  0.00  0.00    +0.000 C 
ATOM      8  C   UNL     1       1.697   2.960  20.627  0.00  0.00    +0.000 C 
ATOM      9  C   UNL     1       2.902   3.760  20.157  0.00  0.00    +0.000 C 
ATOM     10  C   UNL     1       3.550   4.608  17.850  0.00  0.00    +0.000 A 
ATOM     11  C   UNL     1       4.361   3.641  17.268  0.00  0.00    +0.000 A 
ATOM     12  C   UNL     1       5.340   4.043  16.356  0.00  0.00    +0.000 A 
ATOM     13  C   UNL     1       5.494   5.395  16.031  0.00  0.00    +0.000 A 
ATOM     14  C   UNL     1       4.679   6.361  16.621  0.00  0.00    +0.000 A 
ATOM     15  C   UNL     1       3.712   5.956  17.531  0.00  0.00    +0.000 A 
ENDROOT
BRANCH   2  16
ATOM     16  C   UNL     1       1.646   8.778  18.938  0.00  0.00    +0.000 A 
ATOM     17  C   UNL     1       0.849   9.822  18.523  0.00  0.00    +0.000 A 
ATOM     18  N   UNL     1       0.239  10.256  19.657  0.00  0.00    +0.000 N 
ATOM     19  N   UNL     1       0.530   9.456  20.697  0.00  0.00    +0.000 NA
ATOM     20  N   UNL     1       1.404   8.552  20.271  0.00  0.00    +0.000 NA
BRANCH  18  21
ATOM     21  C   UNL     1      -0.479  11.497  19.877  0.00  0.00    +0.000 C 
ATOM     22  C   UNL     1       0.428  12.664  20.236  0.00  0.00    +0.000 C 
ATOM     23  O   UNL     1       0.541  12.703  21.673  0.00  0.00    +0.000 OA
ATOM     24  C   UNL     1      -0.410  11.778  22.237  0.00  0.00    +0.000 C 
ATOM     25  C   UNL     1      -1.364  11.403  21.110  0.00  0.00    +0.000 C 
BRANCH  25  26
ATOM     26  O   UNL     1      -2.429  12.361  21.017  0.00  0.00    +0.000 OA
ATOM     27  H   UNL     1      -2.637  12.500  20.075  0.00  0.00    +0.000 HD
ENDBRANCH  25  26
ENDBRANCH  18  21
ENDBRANCH   2  16
TORSDOF 3
ENDMDL
MODEL 8
REMARK VINA RESULT:      -7.5      2.760      8.221
REMARK  Name = 
REMARK  3 active torsions:
REMARK  status: ('A' for Active; 'I' for Inactive)
REMARK    1  A    between atoms: C_2  and  C_3
REMARK    2  A    between atoms: N_5  and  C_6
REMARK    3  A    between atoms: C_10  and  O_11
REMARK                            x       y       z     vdW  Elec       q    Type
REMARK                         _______ _______ _______ _____ _____    ______ ____
ROOT
ATOM      1  O   UNL     1       1.187   7.187  21.186  0.00  0.00    +0.000 OA
ATOM      2  C   UNL     1       1.483   8.008  20.316  0.00  0.00    +0.000 C 
ATOM      3  N   UNL     1       1.050   9.324  20.315  0.00  0.00    +0.000 N 
ATOM      4  C   UNL     1       1.235  10.295  19.225  0.00  0.00    +0.000 C 
ATOM      5  C   UNL     1       0.510  11.606  19.629  0.00  0.00    +0.000 C 
ATOM      6  C   UNL     1      -0.559  12.020  18.592  0.00  0.00    +0.000 C 
ATOM      7  C   UNL     1      -0.160  13.416  18.118  0.00  0.00    +0.000 C 
ATOM      8  C   UNL     1       1.337  13.484  18.363  0.00  0.00    +0.000 C 
ATOM      9  C   UNL     1       1.490  12.791  19.707  0.00  0.00    +0.000 C 
ATOM     10  C   UNL     1      -0.067  11.226  20.969  0.00  0.00    +0.000 A 
ATOM     11  C   UNL     1      -0.841  12.010  21.817  0.00  0.00    +0.000 A 
ATOM     12  C   UNL     1      -1.293  11.460  23.019  0.00  0.00    +0.000 A 
ATOM     13  C   UNL     1      -0.973  10.140  23.358  0.00  0.00    +0.000 A 
ATOM     14  C   UNL     1      -0.194   9.360  22.504  0.00  0.00    +0.000 A 
ATOM     15  C   UNL     1       0.256   9.914  21.314  0.00  0.00    +0.000 A 
ENDROOT
BRANCH   2  16
ATOM     16  C   UNL     1       2.314   7.565  19.203  0.00  0.00    +0.000 A 
ATOM     17  C   UNL     1       3.127   6.453  19.228  0.00  0.00    +0.000 A 
ATOM     18  N   UNL     1       3.859   6.541  18.086  0.00  0.00    +0.000 N 
ATOM     19  N   UNL     1       3.445   7.570  17.326  0.00  0.00    +0.000 NA
ATOM     20  N   UNL     1       2.505   8.215  18.008  0.00  0.00    +0.000 NA
BRANCH  18  21
ATOM     21  C   UNL     1       5.061   5.814  17.728  0.00  0.00    +0.000 C 
ATOM     22  C   UNL     1       5.098   5.389  16.268  0.00  0.00    +0.000 C 
ATOM     23  O   UNL     1       4.512   4.075  16.181  0.00  0.00    +0.000 OA
ATOM     24  C   UNL     1       4.318   3.565  17.515  0.00  0.00    +0.000 C 
ATOM     25  C   UNL     1       5.119   4.473  18.441  0.00  0.00    +0.000 C 
BRANCH  25  26
ATOM     26  O   UNL     1       6.480   4.025  18.524  0.00  0.00    +0.000 OA
ATOM     27  H   UNL     1       7.051   4.801  18.679  0.00  0.00    +0.000 HD
ENDBRANCH  25  26
ENDBRANCH  18  21
ENDBRANCH   2  16
TORSDOF 3
ENDMDL
MODEL 9
REMARK VINA RESULT:      -7.4      1.878      3.610
REMARK  Name = 
REMARK  3 active torsions:
REMARK  status: ('A' for Active; 'I' for Inactive)
REMARK    1  A    between atoms: C_2  and  C_3
REMARK    2  A    between atoms: N_5  and  C_6
REMARK    3  A    between atoms: C_10  and  O_11
REMARK                            x       y       z     vdW  Elec       q    Type
REMARK                         _______ _______ _______ _____ _____    ______ ____
ROOT
ATOM      1  O   UNL     1       1.295   6.835  20.898  0.00  0.00    +0.000 OA
ATOM      2  C   UNL     1       2.000   6.986  19.899  0.00  0.00    +0.000 C 
ATOM      3  N   UNL     1       2.859   6.016  19.405  0.00  0.00    +0.000 N 
ATOM      4  C   UNL     1       3.838   6.200  18.322  0.00  0.00    +0.000 C 
ATOM      5  C   UNL     1       4.634   4.877  18.174  0.00  0.00    +0.000 C 
ATOM      6  C   UNL     1       6.155   5.092  18.352  0.00  0.00    +0.000 C 
ATOM      7  C   UNL     1       6.798   4.605  17.056  0.00  0.00    +0.000 C 
ATOM      8  C   UNL     1       5.700   4.737  16.015  0.00  0.00    +0.000 C 
ATOM      9  C   UNL     1       4.465   4.269  16.769  0.00  0.00    +0.000 C 
ATOM     10  C   UNL     1       4.016   4.033  19.260  0.00  0.00    +0.000 A 
ATOM     11  C   UNL     1       4.339   2.729  19.616  0.00  0.00    +0.000 A 
ATOM     12  C   UNL     1       3.650   2.127  20.671  0.00  0.00    +0.000 A 
ATOM     13  C   UNL     1       2.654   2.830  21.359  0.00  0.00    +0.000 A 
ATOM     14  C   UNL     1       2.332   4.137  20.995  0.00  0.00    +0.000 A 
ATOM     15  C   UNL     1       3.017   4.727  19.943  0.00  0.00    +0.000 A 
ENDROOT
BRANCH   2  16
ATOM     16  C   UNL     1       1.952   8.268  19.207  0.00  0.00    +0.000 A 
ATOM     17  C   UNL     1       1.501   9.443  19.767  0.00  0.00    +0.000 A 
ATOM     18  N   UNL     1       1.434  10.313  18.725  0.00  0.00    +0.000 N 
ATOM     19  N   UNL     1       1.935   9.763  17.605  0.00  0.00    +0.000 NA
ATOM     20  N   UNL     1       2.243   8.503  17.885  0.00  0.00    +0.000 NA
BRANCH  18  21
ATOM     21  C   UNL     1       0.762  11.596  18.664  0.00  0.00    +0.000 C 
ATOM     22  C   UNL     1       1.698  12.754  18.352  0.00  0.00    +0.000 C 
ATOM     23  O   UNL     1       2.172  13.283  19.607  0.00  0.00    +0.000 OA
ATOM     24  C   UNL     1       1.423  12.675  20.678  0.00  0.00    +0.000 C 
ATOM     25  C   UNL     1       0.224  11.994  20.029  0.00  0.00    +0.000 C 
BRANCH  25  26
ATOM     26  O   UNL     1      -0.856  12.927  19.873  0.00  0.00    +0.000 OA
ATOM     27  H   UNL     1      -1.258  13.083  20.748  0.00  0.00    +0.000 HD
ENDBRANCH  25  26
ENDBRANCH  18  21
ENDBRANCH   2  16
TORSDOF 3
ENDMDL
