MODEL 1
REMARK VINA RESULT:      -8.5      0.000      0.000
REMARK  Name = 
REMARK  8 active torsions:
REMARK  status: ('A' for Active; 'I' for Inactive)
REMARK    1  A    between atoms: C_1  and  C_2
REMARK    2  A    between atoms: C_4  and  C_5
REMARK    3  A    between atoms: C_9  and  N_10
REMARK    4  A    between atoms: N_10  and  C_11
REMARK    5  A    between atoms: C_11  and  C_12
REMARK    6  A    between atoms: N_14  and  C_15
REMARK    7  A    between atoms: C_17  and  C_18
REMARK    8  A    between atoms: C_23  and  C_24
REMARK                            x       y       z     vdW  Elec       q    Type
REMARK                         _______ _______ _______ _____ _____    ______ ____
ROOT
ATOM      1  C   UNL     1       2.496   5.604  20.123  0.00  0.00    +0.000 A 
ATOM      2  C   UNL     1       1.989   4.644  21.000  0.00  0.00    +0.000 A 
ATOM      3  C   UNL     1       2.467   3.333  20.957  0.00  0.00    +0.000 A 
ATOM      4  C   UNL     1       3.450   2.978  20.026  0.00  0.00    +0.000 A 
ATOM      5  C   UNL     1       3.954   3.910  19.111  0.00  0.00    +0.000 A 
ATOM      6  C   UNL     1       3.488   5.225  19.203  0.00  0.00    +0.000 A 
ENDROOT
BRANCH   1  10
ATOM      7  C   UNL     1       1.154  10.159  18.793  0.00  0.00    +0.000 C 
ATOM      8  C   UNL     1       1.404   8.995  19.669  0.00  0.00    +0.000 A 
ATOM      9  N   UNL     1       1.985   7.851  19.170  0.00  0.00    +0.000 NA
ATOM     10  C   UNL     1       2.019   6.986  20.167  0.00  0.00    +0.000 A 
ATOM     11  N   UNL     1       1.526   7.573  21.309  0.00  0.00    +0.000 N 
ATOM     12  C   UNL     1       1.120   8.846  21.011  0.00  0.00    +0.000 A 
ATOM     13  C   UNL     1       0.512   9.748  22.012  0.00  0.00    +0.000 C 
ATOM     14  H   UNL     1       1.467   7.128  22.213  0.00  0.00    +0.000 HD
ENDBRANCH   1  10
BRANCH   5  15
ATOM     15  N   UNL     1       4.959   3.505  18.223  0.00  0.00    +0.000 N 
ATOM     16  H   UNL     1       5.835   3.956  18.481  0.00  0.00    +0.000 HD
BRANCH  15  17
ATOM     17  C   UNL     1       4.729   3.604  16.772  0.00  0.00    +0.000 C 
BRANCH  17  18
ATOM     18  C   UNL     1       5.743   4.345  15.955  0.00  0.00    +0.000 A 
ATOM     19  C   UNL     1       6.095   4.102  14.640  0.00  0.00    +0.000 A 
ATOM     20  N   UNL     1       7.108   4.961  14.342  0.00  0.00    +0.000 N 
ATOM     21  C   UNL     1       7.854   5.027  13.110  0.00  0.00    +0.000 C 
ATOM     22  N   UNL     1       7.427   5.780  15.354  0.00  0.00    +0.000 NA
ATOM     23  C   UNL     1       6.590   5.425  16.334  0.00  0.00    +0.000 A 
BRANCH  23  24
ATOM     24  C   UNL     1       6.603   6.114  17.697  0.00  0.00    +0.000 C 
ATOM     25  C   UNL     1       7.730   7.091  18.001  0.00  0.00    +0.000 C 
ATOM     26  C   UNL     1       7.712   5.762  18.675  0.00  0.00    +0.000 C 
ENDBRANCH  23  24
ENDBRANCH  17  18
ENDBRANCH  15  17
ENDBRANCH   5  15
TORSDOF 5
ENDMDL
MODEL 2
REMARK VINA RESULT:      -8.4      1.489      2.752
REMARK  Name = 
REMARK  8 active torsions:
REMARK  status: ('A' for Active; 'I' for Inactive)
REMARK    1  A    between atoms: C_1  and  C_2
REMARK    2  A    between atoms: C_4  and  C_5
REMARK    3  A    between atoms: C_9  and  N_10
REMARK    4  A    between atoms: N_10  and  C_11
REMARK    5  A    between atoms: C_11  and  C_12
REMARK    6  A    between atoms: N_14  and  C_15
REMARK    7  A    between atoms: C_17  and  C_18
REMARK    8  A    between atoms: C_23  and  C_24
REMARK                            x       y       z     vdW  Elec       q    Type
REMARK                         _______ _______ _______ _____ _____    ______ ____
ROOT
ATOM      1  C   UNL     1       2.675   6.030  19.003  0.00  0.00    +0.000 A 
ATOM      2  C   UNL     1       1.957   5.246  18.097  0.00  0.00    +0.000 A 
ATOM      3  C   UNL     1       2.504   4.057  17.612  0.00  0.00    +0.000 A 
ATOM      4  C   UNL     1       3.777   3.653  18.027  0.00  0.00    +0.000 A 
ATOM      5  C   UNL     1       4.535   4.433  18.908  0.00  0.00    +0.000 A 
ATOM      6  C   UNL     1       3.948   5.598  19.410  0.00  0.00    +0.000 A 
ENDROOT
BRANCH   1  10
ATOM      7  C   UNL     1       0.780  10.570  19.333  0.00  0.00    +0.000 C 
ATOM      8  C   UNL     1       1.267   9.243  19.767  0.00  0.00    +0.000 A 
ATOM      9  N   UNL     1       1.838   8.373  18.865  0.00  0.00    +0.000 NA
ATOM     10  C   UNL     1       2.109   7.268  19.534  0.00  0.00    +0.000 A 
ATOM     11  N   UNL     1       1.778   7.435  20.859  0.00  0.00    +0.000 N 
ATOM     12  C   UNL     1       1.231   8.678  21.025  0.00  0.00    +0.000 A 
ATOM     13  C   UNL     1       0.738   9.168  22.330  0.00  0.00    +0.000 C 
ATOM     14  H   UNL     1       1.910   6.743  21.582  0.00  0.00    +0.000 HD
ENDBRANCH   1  10
BRANCH   5  15
ATOM     15  N   UNL     1       5.792   3.962  19.312  0.00  0.00    +0.000 N 
ATOM     16  H   UNL     1       5.974   4.271  20.266  0.00  0.00    +0.000 HD
BRANCH  15  17
ATOM     17  C   UNL     1       6.965   4.198  18.455  0.00  0.00    +0.000 C 
BRANCH  17  18
ATOM     18  C   UNL     1       7.175   5.583  17.927  0.00  0.00    +0.000 A 
ATOM     19  C   UNL     1       7.865   6.614  18.538  0.00  0.00    +0.000 A 
ATOM     20  N   UNL     1       7.726   7.707  17.737  0.00  0.00    +0.000 N 
ATOM     21  C   UNL     1       8.207   9.040  17.999  0.00  0.00    +0.000 C 
ATOM     22  N   UNL     1       7.025   7.463  16.621  0.00  0.00    +0.000 NA
ATOM     23  C   UNL     1       6.701   6.170  16.719  0.00  0.00    +0.000 A 
BRANCH  23  24
ATOM     24  C   UNL     1       5.886   5.457  15.641  0.00  0.00    +0.000 C 
ATOM     25  C   UNL     1       6.212   4.002  15.335  0.00  0.00    +0.000 C 
ATOM     26  C   UNL     1       6.584   5.058  14.351  0.00  0.00    +0.000 C 
ENDBRANCH  23  24
ENDBRANCH  17  18
ENDBRANCH  15  17
ENDBRANCH   5  15
TORSDOF 5
ENDMDL
MODEL 3
REMARK VINA RESULT:      -8.3      0.916      2.395
REMARK  Name = 
REMARK  8 active torsions:
REMARK  status: ('A' for Active; 'I' for Inactive)
REMARK    1  A    between atoms: C_1  and  C_2
REMARK    2  A    between atoms: C_4  and  C_5
REMARK    3  A    between atoms: C_9  and  N_10
REMARK    4  A    between atoms: N_10  and  C_11
REMARK    5  A    between atoms: C_11  and  C_12
REMARK    6  A    between atoms: N_14  and  C_15
REMARK    7  A    between atoms: C_17  and  C_18
REMARK    8  A    between atoms: C_23  and  C_24
REMARK                            x       y       z     vdW  Elec       q    Type
REMARK                         _______ _______ _______ _____ _____    ______ ____
ROOT
ATOM      1  C   UNL     1       2.272   5.635  20.168  0.00  0.00    +0.000 A 
ATOM      2  C   UNL     1       1.433   4.711  20.794  0.00  0.00    +0.000 A 
ATOM      3  C   UNL     1       1.805   3.368  20.872  0.00  0.00    +0.000 A 
ATOM      4  C   UNL     1       3.017   2.945  20.316  0.00  0.00    +0.000 A 
ATOM      5  C   UNL     1       3.864   3.841  19.653  0.00  0.00    +0.000 A 
ATOM      6  C   UNL     1       3.488   5.187  19.624  0.00  0.00    +0.000 A 
ENDROOT
BRANCH   1  10
ATOM      7  C   UNL     1       1.359  10.170  18.460  0.00  0.00    +0.000 C 
ATOM      8  C   UNL     1       1.477   9.058  19.427  0.00  0.00    +0.000 A 
ATOM      9  N   UNL     1       1.986   7.838  19.038  0.00  0.00    +0.000 NA
ATOM     10  C   UNL     1       1.907   7.049  20.093  0.00  0.00    +0.000 A 
ATOM     11  N   UNL     1       1.413   7.755  21.165  0.00  0.00    +0.000 N 
ATOM     12  C   UNL     1       1.124   9.029  20.760  0.00  0.00    +0.000 A 
ATOM     13  C   UNL     1       0.547  10.046  21.665  0.00  0.00    +0.000 C 
ATOM     14  H   UNL     1       1.280   7.383  22.094  0.00  0.00    +0.000 HD
ENDBRANCH   1  10
BRANCH   5  15
ATOM     15  N   UNL     1       5.079   3.365  19.142  0.00  0.00    +0.000 N 
ATOM     16  H   UNL     1       5.831   3.612  19.783  0.00  0.00    +0.000 HD
BRANCH  15  17
ATOM     17  C   UNL     1       5.455   3.677  17.753  0.00  0.00    +0.000 C 
BRANCH  17  18
ATOM     18  C   UNL     1       6.299   4.892  17.516  0.00  0.00    +0.000 A 
ATOM     19  C   UNL     1       6.999   5.619  18.461  0.00  0.00    +0.000 A 
ATOM     20  N   UNL     1       7.551   6.679  17.809  0.00  0.00    +0.000 N 
ATOM     21  C   UNL     1       8.306   7.759  18.393  0.00  0.00    +0.000 C 
ATOM     22  N   UNL     1       7.297   6.685  16.493  0.00  0.00    +0.000 NA
ATOM     23  C   UNL     1       6.551   5.592  16.302  0.00  0.00    +0.000 A 
BRANCH  23  24
ATOM     24  C   UNL     1       6.028   5.200  14.921  0.00  0.00    +0.000 C 
ATOM     25  C   UNL     1       6.299   3.788  14.422  0.00  0.00    +0.000 C 
ATOM     26  C   UNL     1       7.037   4.932  13.815  0.00  0.00    +0.000 C 
ENDBRANCH  23  24
ENDBRANCH  17  18
ENDBRANCH  15  17
ENDBRANCH   5  15
TORSDOF 5
ENDMDL
MODEL 4
REMARK VINA RESULT:      -8.2      0.498      1.371
REMARK  Name = 
REMARK  8 active torsions:
REMARK  status: ('A' for Active; 'I' for Inactive)
REMARK    1  A    between atoms: C_1  and  C_2
REMARK    2  A    between atoms: C_4  and  C_5
REMARK    3  A    between atoms: C_9  and  N_10
REMARK    4  A    between atoms: N_10  and  C_11
REMARK    5  A    between atoms: C_11  and  C_12
REMARK    6  A    between atoms: N_14  and  C_15
REMARK    7  A    between atoms: C_17  and  C_18
REMARK    8  A    between atoms: C_23  and  C_24
REMARK                            x       y       z     vdW  Elec       q    Type
REMARK                         _______ _______ _______ _____ _____    ______ ____
ROOT
ATOM      1  C   UNL     1       2.554   5.716  19.959  0.00  0.00    +0.000 A 
ATOM      2  C   UNL     1       2.089   4.751  20.855  0.00  0.00    +0.000 A 
ATOM      3  C   UNL     1       2.631   3.465  20.842  0.00  0.00    +0.000 A 
ATOM      4  C   UNL     1       3.637   3.139  19.926  0.00  0.00    +0.000 A 
ATOM      5  C   UNL     1       4.100   4.074  18.993  0.00  0.00    +0.000 A 
ATOM      6  C   UNL     1       3.570   5.366  19.054  0.00  0.00    +0.000 A 
ENDROOT
BRANCH   1  10
ATOM      7  C   UNL     1       0.508   9.948  21.450  0.00  0.00    +0.000 C 
ATOM      8  C   UNL     1       1.129   8.960  20.541  0.00  0.00    +0.000 A 
ATOM      9  N   UNL     1       1.415   7.686  20.977  0.00  0.00    +0.000 NA
ATOM     10  C   UNL     1       2.010   7.073  19.970  0.00  0.00    +0.000 A 
ATOM     11  N   UNL     1       2.058   7.911  18.880  0.00  0.00    +0.000 N 
ATOM     12  C   UNL     1       1.514   9.118  19.226  0.00  0.00    +0.000 A 
ATOM     13  C   UNL     1       1.436  10.259  18.289  0.00  0.00    +0.000 C 
ATOM     14  H   UNL     1       2.444   7.670  17.979  0.00  0.00    +0.000 HD
ENDBRANCH   1  10
BRANCH   5  15
ATOM     15  N   UNL     1       5.130   3.700  18.120  0.00  0.00    +0.000 N 
ATOM     16  H   UNL     1       5.945   4.285  18.293  0.00  0.00    +0.000 HD
BRANCH  15  17
ATOM     17  C   UNL     1       4.858   3.599  16.677  0.00  0.00    +0.000 C 
BRANCH  17  18
ATOM     18  C   UNL     1       5.817   4.264  15.739  0.00  0.00    +0.000 A 
ATOM     19  C   UNL     1       5.992   3.996  14.394  0.00  0.00    +0.000 A 
ATOM     20  N   UNL     1       7.021   4.781  13.969  0.00  0.00    +0.000 N 
ATOM     21  C   UNL     1       7.618   4.792  12.657  0.00  0.00    +0.000 C 
ATOM     22  N   UNL     1       7.515   5.575  14.928  0.00  0.00    +0.000 NA
ATOM     23  C   UNL     1       6.778   5.282  16.004  0.00  0.00    +0.000 A 
BRANCH  23  24
ATOM     24  C   UNL     1       7.001   5.969  17.350  0.00  0.00    +0.000 C 
ATOM     25  C   UNL     1       6.212   7.234  17.654  0.00  0.00    +0.000 C 
ATOM     26  C   UNL     1       7.670   7.334  17.363  0.00  0.00    +0.000 C 
ENDBRANCH  23  24
ENDBRANCH  17  18
ENDBRANCH  15  17
ENDBRANCH   5  15
TORSDOF 5
ENDMDL
MODEL 5
REMARK VINA RESULT:      -8.1      0.890      2.654
REMARK  Name = 
REMARK  8 active torsions:
REMARK  status: ('A' for Active; 'I' for Inactive)
REMARK    1  A    between atoms: C_1  and  C_2
REMARK    2  A    between atoms: C_4  and  C_5
REMARK    3  A    between atoms: C_9  and  N_10
REMARK    4  A    between atoms: N_10  and  C_11
REMARK    5  A    between atoms: C_11  and  C_12
REMARK    6  A    between atoms: N_14  and  C_15
REMARK    7  A    between atoms: C_17  and  C_18
REMARK    8  A    between atoms: C_23  and  C_24
REMARK                            x       y       z     vdW  Elec       q    Type
REMARK                         _______ _______ _______ _____ _____    ______ ____
ROOT
ATOM      1  C   UNL     1       2.207   5.696  20.196  0.00  0.00    +0.000 A 
ATOM      2  C   UNL     1       1.391   4.731  20.789  0.00  0.00    +0.000 A 
ATOM      3  C   UNL     1       1.816   3.404  20.865  0.00  0.00    +0.000 A 
ATOM      4  C   UNL     1       3.059   3.036  20.338  0.00  0.00    +0.000 A 
ATOM      5  C   UNL     1       3.886   3.974  19.707  0.00  0.00    +0.000 A 
ATOM      6  C   UNL     1       3.455   5.303  19.681  0.00  0.00    +0.000 A 
ENDROOT
BRANCH   1  10
ATOM      7  C   UNL     1       0.476  10.151  21.407  0.00  0.00    +0.000 C 
ATOM      8  C   UNL     1       1.049   9.073  20.572  0.00  0.00    +0.000 A 
ATOM      9  N   UNL     1       1.200   7.800  21.074  0.00  0.00    +0.000 NA
ATOM     10  C   UNL     1       1.786   7.093  20.124  0.00  0.00    +0.000 A 
ATOM     11  N   UNL     1       1.958   7.873  19.004  0.00  0.00    +0.000 N 
ATOM     12  C   UNL     1       1.507   9.137  19.272  0.00  0.00    +0.000 A 
ATOM     13  C   UNL     1       1.573  10.237  18.287  0.00  0.00    +0.000 C 
ATOM     14  H   UNL     1       2.361   7.560  18.134  0.00  0.00    +0.000 HD
ENDBRANCH   1  10
BRANCH   5  15
ATOM     15  N   UNL     1       5.133   3.554  19.226  0.00  0.00    +0.000 N 
ATOM     16  H   UNL     1       5.868   3.962  19.800  0.00  0.00    +0.000 HD
BRANCH  15  17
ATOM     17  C   UNL     1       5.446   3.703  17.795  0.00  0.00    +0.000 C 
BRANCH  17  18
ATOM     18  C   UNL     1       6.303   4.861  17.387  0.00  0.00    +0.000 A 
ATOM     19  C   UNL     1       6.642   5.960  18.154  0.00  0.00    +0.000 A 
ATOM     20  N   UNL     1       7.364   6.791  17.352  0.00  0.00    +0.000 N 
ATOM     21  C   UNL     1       7.869   8.098  17.688  0.00  0.00    +0.000 C 
ATOM     22  N   UNL     1       7.558   6.303  16.118  0.00  0.00    +0.000 NA
ATOM     23  C   UNL     1       6.932   5.121  16.135  0.00  0.00    +0.000 A 
BRANCH  23  24
ATOM     24  C   UNL     1       6.900   4.205  14.913  0.00  0.00    +0.000 C 
ATOM     25  C   UNL     1       6.871   4.846  13.533  0.00  0.00    +0.000 C 
ATOM     26  C   UNL     1       5.643   4.185  14.058  0.00  0.00    +0.000 C 
ENDBRANCH  23  24
ENDBRANCH  17  18
ENDBRANCH  15  17
ENDBRANCH   5  15
TORSDOF 5
ENDMDL
MODEL 6
REMARK VINA RESULT:      -8.1      0.864      1.569
REMARK  Name = 
REMARK  8 active torsions:
REMARK  status: ('A' for Active; 'I' for Inactive)
REMARK    1  A    between atoms: C_1  and  C_2
REMARK    2  A    between atoms: C_4  and  C_5
REMARK    3  A    between atoms: C_9  and  N_10
REMARK    4  A    between atoms: N_10  and  C_11
REMARK    5  A    between atoms: C_11  and  C_12
REMARK    6  A    between atoms: N_14  and  C_15
REMARK    7  A    between atoms: C_17  and  C_18
REMARK    8  A    between atoms: C_23  and  C_24
REMARK                            x       y       z     vdW  Elec       q    Type
REMARK                         _______ _______ _______ _____ _____    ______ ____
ROOT
ATOM      1  C   UNL     1       2.370   5.462  20.166  0.00  0.00    +0.000 A 
ATOM      2  C   UNL     1       1.638   4.568  20.950  0.00  0.00    +0.000 A 
ATOM      3  C   UNL     1       2.057   3.244  21.079  0.00  0.00    +0.000 A 
ATOM      4  C   UNL     1       3.208   2.806  20.415  0.00  0.00    +0.000 A 
ATOM      5  C   UNL     1       3.944   3.669  19.595  0.00  0.00    +0.000 A 
ATOM      6  C   UNL     1       3.527   5.001  19.515  0.00  0.00    +0.000 A 
ENDROOT
BRANCH   1  10
ATOM      7  C   UNL     1       0.648   9.969  21.182  0.00  0.00    +0.000 C 
ATOM      8  C   UNL     1       1.224   8.857  20.396  0.00  0.00    +0.000 A 
ATOM      9  N   UNL     1       1.364   7.604  20.950  0.00  0.00    +0.000 NA
ATOM     10  C   UNL     1       1.955   6.858  20.035  0.00  0.00    +0.000 A 
ATOM     11  N   UNL     1       2.142   7.592  18.886  0.00  0.00    +0.000 N 
ATOM     12  C   UNL     1       1.694   8.867  19.099  0.00  0.00    +0.000 A 
ATOM     13  C   UNL     1       1.774   9.926  18.071  0.00  0.00    +0.000 C 
ATOM     14  H   UNL     1       2.552   7.242  18.033  0.00  0.00    +0.000 HD
ENDBRANCH   1  10
BRANCH   5  15
ATOM     15  N   UNL     1       5.106   3.184  18.980  0.00  0.00    +0.000 N 
ATOM     16  H   UNL     1       5.466   2.397  19.517  0.00  0.00    +0.000 HD
BRANCH  15  17
ATOM     17  C   UNL     1       6.190   4.119  18.635  0.00  0.00    +0.000 C 
BRANCH  17  18
ATOM     18  C   UNL     1       6.284   4.582  17.214  0.00  0.00    +0.000 A 
ATOM     19  C   UNL     1       6.161   3.809  16.074  0.00  0.00    +0.000 A 
ATOM     20  N   UNL     1       6.399   4.633  15.016  0.00  0.00    +0.000 N 
ATOM     21  C   UNL     1       6.459   4.261  13.624  0.00  0.00    +0.000 C 
ATOM     22  N   UNL     1       6.634   5.904  15.372  0.00  0.00    +0.000 NA
ATOM     23  C   UNL     1       6.548   5.887  16.706  0.00  0.00    +0.000 A 
BRANCH  23  24
ATOM     24  C   UNL     1       6.750   7.147  17.546  0.00  0.00    +0.000 C 
ATOM     25  C   UNL     1       7.939   8.041  17.229  0.00  0.00    +0.000 C 
ATOM     26  C   UNL     1       7.955   7.216  18.470  0.00  0.00    +0.000 C 
ENDBRANCH  23  24
ENDBRANCH  17  18
ENDBRANCH  15  17
ENDBRANCH   5  15
TORSDOF 5
ENDMDL
MODEL 7
REMARK VINA RESULT:      -7.9      1.479      2.957
REMARK  Name = 
REMARK  8 active torsions:
REMARK  status: ('A' for Active; 'I' for Inactive)
REMARK    1  A    between atoms: C_1  and  C_2
REMARK    2  A    between atoms: C_4  and  C_5
REMARK    3  A    between atoms: C_9  and  N_10
REMARK    4  A    between atoms: N_10  and  C_11
REMARK    5  A    between atoms: C_11  and  C_12
REMARK    6  A    between atoms: N_14  and  C_15
REMARK    7  A    between atoms: C_17  and  C_18
REMARK    8  A    between atoms: C_23  and  C_24
REMARK                            x       y       z     vdW  Elec       q    Type
REMARK                         _______ _______ _______ _____ _____    ______ ____
ROOT
ATOM      1  C   UNL     1       2.630   5.938  18.979  0.00  0.00    +0.000 A 
ATOM      2  C   UNL     1       1.925   5.132  18.083  0.00  0.00    +0.000 A 
ATOM      3  C   UNL     1       2.497   3.953  17.602  0.00  0.00    +0.000 A 
ATOM      4  C   UNL     1       3.782   3.582  18.011  0.00  0.00    +0.000 A 
ATOM      5  C   UNL     1       4.527   4.386  18.882  0.00  0.00    +0.000 A 
ATOM      6  C   UNL     1       3.916   5.540  19.381  0.00  0.00    +0.000 A 
ENDROOT
BRANCH   1  10
ATOM      7  C   UNL     1       0.675   9.279  22.034  0.00  0.00    +0.000 C 
ATOM      8  C   UNL     1       1.183   8.689  20.776  0.00  0.00    +0.000 A 
ATOM      9  N   UNL     1       1.588   7.374  20.730  0.00  0.00    +0.000 NA
ATOM     10  C   UNL     1       2.038   7.167  19.506  0.00  0.00    +0.000 A 
ATOM     11  N   UNL     1       1.875   8.306  18.752  0.00  0.00    +0.000 N 
ATOM     12  C   UNL     1       1.343   9.287  19.544  0.00  0.00    +0.000 A 
ATOM     13  C   UNL     1       1.067  10.653  19.049  0.00  0.00    +0.000 C 
ATOM     14  H   UNL     1       2.120   8.397  17.777  0.00  0.00    +0.000 HD
ENDBRANCH   1  10
BRANCH   5  15
ATOM     15  N   UNL     1       5.797   3.948  19.281  0.00  0.00    +0.000 N 
ATOM     16  H   UNL     1       6.028   4.366  20.181  0.00  0.00    +0.000 HD
BRANCH  15  17
ATOM     17  C   UNL     1       6.931   4.062  18.347  0.00  0.00    +0.000 C 
BRANCH  17  18
ATOM     18  C   UNL     1       7.295   5.430  17.858  0.00  0.00    +0.000 A 
ATOM     19  C   UNL     1       7.727   6.500  18.619  0.00  0.00    +0.000 A 
ATOM     20  N   UNL     1       7.859   7.556  17.768  0.00  0.00    +0.000 N 
ATOM     21  C   UNL     1       8.211   8.910  18.116  0.00  0.00    +0.000 C 
ATOM     22  N   UNL     1       7.581   7.250  16.493  0.00  0.00    +0.000 NA
ATOM     23  C   UNL     1       7.255   5.955  16.535  0.00  0.00    +0.000 A 
BRANCH  23  24
ATOM     24  C   UNL     1       6.861   5.179  15.279  0.00  0.00    +0.000 C 
ATOM     25  C   UNL     1       5.383   5.072  14.931  0.00  0.00    +0.000 C 
ATOM     26  C   UNL     1       6.103   3.872  15.444  0.00  0.00    +0.000 C 
ENDBRANCH  23  24
ENDBRANCH  17  18
ENDBRANCH  15  17
ENDBRANCH   5  15
TORSDOF 5
ENDMDL
MODEL 8
REMARK VINA RESULT:      -7.8      1.225      1.431
REMARK  Name = 
REMARK  8 active torsions:
REMARK  status: ('A' for Active; 'I' for Inactive)
REMARK    1  A    between atoms: C_1  and  C_2
REMARK    2  A    between atoms: C_4  and  C_5
REMARK    3  A    between atoms: C_9  and  N_10
REMARK    4  A    between atoms: N_10  and  C_11
REMARK    5  A    between atoms: C_11  and  C_12
REMARK    6  A    between atoms: N_14  and  C_15
REMARK    7  A    between atoms: C_17  and  C_18
REMARK    8  A    between atoms: C_23  and  C_24
REMARK                            x       y       z     vdW  Elec       q    Type
REMARK                         _______ _______ _______ _____ _____    ______ ____
ROOT
ATOM      1  C   UNL     1       2.563   5.662  19.042  0.00  0.00    +0.000 A 
ATOM      2  C   UNL     1       1.721   4.829  18.302  0.00  0.00    +0.000 A 
ATOM      3  C   UNL     1       2.179   3.589  17.854  0.00  0.00    +0.000 A 
ATOM      4  C   UNL     1       3.487   3.182  18.140  0.00  0.00    +0.000 A 
ATOM      5  C   UNL     1       4.365   4.008  18.850  0.00  0.00    +0.000 A 
ATOM      6  C   UNL     1       3.870   5.227  19.322  0.00  0.00    +0.000 A 
ENDROOT
BRANCH   1  10
ATOM      7  C   UNL     1       1.034  10.346  19.228  0.00  0.00    +0.000 C 
ATOM      8  C   UNL     1       1.410   8.997  19.704  0.00  0.00    +0.000 A 
ATOM      9  N   UNL     1       1.917   8.060  18.831  0.00  0.00    +0.000 NA
ATOM     10  C   UNL     1       2.094   6.956  19.534  0.00  0.00    +0.000 A 
ATOM     11  N   UNL     1       1.766   7.185  20.849  0.00  0.00    +0.000 N 
ATOM     12  C   UNL     1       1.318   8.472  20.976  0.00  0.00    +0.000 A 
ATOM     13  C   UNL     1       0.855   9.037  22.262  0.00  0.00    +0.000 C 
ATOM     14  H   UNL     1       1.836   6.506  21.593  0.00  0.00    +0.000 HD
ENDBRANCH   1  10
BRANCH   5  15
ATOM     15  N   UNL     1       5.654   3.535  19.133  0.00  0.00    +0.000 N 
ATOM     16  H   UNL     1       5.740   3.376  20.135  0.00  0.00    +0.000 HD
BRANCH  15  17
ATOM     17  C   UNL     1       6.825   4.264  18.618  0.00  0.00    +0.000 C 
BRANCH  17  18
ATOM     18  C   UNL     1       6.779   4.739  17.198  0.00  0.00    +0.000 A 
ATOM     19  C   UNL     1       6.703   3.960  16.059  0.00  0.00    +0.000 A 
ATOM     20  N   UNL     1       6.769   4.811  14.998  0.00  0.00    +0.000 N 
ATOM     21  C   UNL     1       6.807   4.454  13.602  0.00  0.00    +0.000 C 
ATOM     22  N   UNL     1       6.846   6.101  15.354  0.00  0.00    +0.000 NA
ATOM     23  C   UNL     1       6.834   6.069  16.690  0.00  0.00    +0.000 A 
BRANCH  23  24
ATOM     24  C   UNL     1       6.905   7.343  17.531  0.00  0.00    +0.000 C 
ATOM     25  C   UNL     1       8.074   8.290  17.307  0.00  0.00    +0.000 C 
ATOM     26  C   UNL     1       8.022   7.474  18.553  0.00  0.00    +0.000 C 
ENDBRANCH  23  24
ENDBRANCH  17  18
ENDBRANCH  15  17
ENDBRANCH   5  15
TORSDOF 5
ENDMDL
MODEL 9
REMARK VINA RESULT:      -7.7      3.036      6.184
REMARK  Name = 
REMARK  8 active torsions:
REMARK  status: ('A' for Active; 'I' for Inactive)
REMARK    1  A    between atoms: C_1  and  C_2
REMARK    2  A    between atoms: C_4  and  C_5
REMARK    3  A    between atoms: C_9  and  N_10
REMARK    4  A    between atoms: N_10  and  C_11
REMARK    5  A    between atoms: C_11  and  C_12
REMARK    6  A    between atoms: N_14  and  C_15
REMARK    7  A    between atoms: C_17  and  C_18
REMARK    8  A    between atoms: C_23  and  C_24
REMARK                            x       y       z     vdW  Elec       q    Type
REMARK                         _______ _______ _______ _____ _____    ______ ____
ROOT
ATOM      1  C   UNL     1       8.209   7.954  18.315  0.00  0.00    +0.000 A 
ATOM      2  C   UNL     1       8.427   6.993  19.305  0.00  0.00    +0.000 A 
ATOM      3  C   UNL     1       8.019   5.674  19.104  0.00  0.00    +0.000 A 
ATOM      4  C   UNL     1       7.383   5.313  17.911  0.00  0.00    +0.000 A 
ATOM      5  C   UNL     1       7.121   6.260  16.914  0.00  0.00    +0.000 A 
ATOM      6  C   UNL     1       7.576   7.565  17.123  0.00  0.00    +0.000 A 
ENDROOT
BRANCH   1  10
ATOM      7  C   UNL     1       8.853  12.804  17.703  0.00  0.00    +0.000 C 
ATOM      8  C   UNL     1       8.974  11.462  18.312  0.00  0.00    +0.000 A 
ATOM      9  N   UNL     1       8.429  10.358  17.695  0.00  0.00    +0.000 NA
ATOM     10  C   UNL     1       8.647   9.336  18.502  0.00  0.00    +0.000 A 
ATOM     11  N   UNL     1       9.371   9.753  19.595  0.00  0.00    +0.000 N 
ATOM     12  C   UNL     1       9.579  11.102  19.499  0.00  0.00    +0.000 A 
ATOM     13  C   UNL     1      10.303  11.876  20.529  0.00  0.00    +0.000 C 
ATOM     14  H   UNL     1       9.685   9.157  20.346  0.00  0.00    +0.000 HD
ENDBRANCH   1  10
BRANCH   5  15
ATOM     15  N   UNL     1       6.508   5.834  15.727  0.00  0.00    +0.000 N 
ATOM     16  H   UNL     1       6.861   6.389  14.950  0.00  0.00    +0.000 HD
BRANCH  15  17
ATOM     17  C   UNL     1       5.041   5.726  15.666  0.00  0.00    +0.000 C 
BRANCH  17  18
ATOM     18  C   UNL     1       4.358   4.918  16.727  0.00  0.00    +0.000 A 
ATOM     19  C   UNL     1       4.156   3.550  16.734  0.00  0.00    +0.000 A 
ATOM     20  N   UNL     1       3.426   3.269  17.849  0.00  0.00    +0.000 N 
ATOM     21  C   UNL     1       2.904   1.983  18.242  0.00  0.00    +0.000 C 
ATOM     22  N   UNL     1       3.162   4.348  18.599  0.00  0.00    +0.000 NA
ATOM     23  C   UNL     1       3.740   5.353  17.934  0.00  0.00    +0.000 A 
BRANCH  23  24
ATOM     24  C   UNL     1       3.689   6.793  18.441  0.00  0.00    +0.000 C 
ATOM     25  C   UNL     1       2.347   7.351  18.893  0.00  0.00    +0.000 C 
ATOM     26  C   UNL     1       2.943   7.826  17.612  0.00  0.00    +0.000 C 
ENDBRANCH  23  24
ENDBRANCH  17  18
ENDBRANCH  15  17
ENDBRANCH   5  15
TORSDOF 5
ENDMDL
