MODEL 1
REMARK VINA RESULT:      -8.1      0.000      0.000
REMARK  Name = 
REMARK  9 active torsions:
REMARK  status: ('A' for Active; 'I' for Inactive)
REMARK    1  A    between atoms: C_1  and  C_2
REMARK    2  A    between atoms: C_2  and  C_3
REMARK    3  A    between atoms: C_2  and  C_4
REMARK    4  A    between atoms: C_4  and  C_5
REMARK    5  A    between atoms: C_4  and  N_20
REMARK    6  A    between atoms: N_7  and  C_8
REMARK    7  A    between atoms: N_7  and  C_9
REMARK    8  A    between atoms: C_9  and  C_10
REMARK    9  A    between atoms: N_12  and  C_13
REMARK                            x       y       z     vdW  Elec       q    Type
REMARK                         _______ _______ _______ _____ _____    ______ ____
ROOT
ATOM      1  C   UNL     1       4.688   6.293  18.010  0.00  0.00    +0.000 C 
ATOM      2  O   UNL     1       4.669   7.026  17.019  0.00  0.00    +0.000 OA
ATOM      3  N   UNL     1       5.913   5.812  18.454  0.00  0.00    +0.000 N 
ATOM      4  C   UNL     1       6.135   5.011  19.648  0.00  0.00    +0.000 C 
ENDROOT
BRANCH   1   5
ATOM      5  C   UNL     1       3.377   5.893  18.757  0.00  0.00    +0.000 C 
BRANCH   5   6
ATOM      6  N   UNL     1       2.586   7.037  19.257  0.00  0.00    +0.000 N 
ATOM      7  C   UNL     1       1.837   7.072  20.404  0.00  0.00    +0.000 C 
ATOM      8  O   UNL     1       1.610   6.199  21.220  0.00  0.00    +0.000 OA
ATOM      9  C   UNL     1       1.238   8.409  20.477  0.00  0.00    +0.000 A 
ATOM     10  C   UNL     1       0.605   9.075  21.507  0.00  0.00    +0.000 A 
ATOM     11  C   UNL     1       0.218  10.401  21.273  0.00  0.00    +0.000 A 
ATOM     12  C   UNL     1       0.442  11.014  20.022  0.00  0.00    +0.000 A 
ATOM     13  C   UNL     1       1.055  10.307  18.985  0.00  0.00    +0.000 A 
ATOM     14  C   UNL     1       1.450   9.011  19.255  0.00  0.00    +0.000 A 
ATOM     15  C   UNL     1       2.166   8.051  18.429  0.00  0.00    +0.000 C 
ATOM     16  O   UNL     1       2.261   8.166  17.222  0.00  0.00    +0.000 OA
ENDBRANCH   5   6
BRANCH   5  18
ATOM     17  C   UNL     1       3.296   4.086  16.855  0.00  0.00    +0.000 C 
ATOM     18  C   UNL     1       2.497   5.014  17.785  0.00  0.00    +0.000 C 
ATOM     19  C   UNL     1       1.409   4.232  18.527  0.00  0.00    +0.000 C 
ENDBRANCH   5  18
ENDBRANCH   1   5
BRANCH   3  20
ATOM     20  C   UNL     1       7.104   6.133  17.659  0.00  0.00    +0.000 C 
BRANCH  20  21
ATOM     21  C   UNL     1       7.312   5.198  16.464  0.00  0.00    +0.000 C 
ATOM     22  O   UNL     1       8.007   4.192  16.603  0.00  0.00    +0.000 OA
ATOM     23  N   UNL     1       6.726   5.620  15.277  0.00  0.00    +0.000 N 
ATOM     24  H   UNL     1       6.313   6.551  15.280  0.00  0.00    +0.000 HD
BRANCH  23  25
ATOM     25  C   UNL     1       6.854   4.966  14.022  0.00  0.00    +0.000 A 
ATOM     26  C   UNL     1       7.768   5.377  13.041  0.00  0.00    +0.000 A 
ATOM     27  C   UNL     1       7.800   4.777  11.778  0.00  0.00    +0.000 A 
ATOM     28  C   UNL     1       6.925   3.740  11.481  0.00  0.00    +0.000 A 
ATOM     29  C   UNL     1       6.051   3.294  12.466  0.00  0.00    +0.000 A 
ATOM     30  F   UNL     1       5.212   2.286  12.186  0.00  0.00    +0.000 F 
ATOM     31  C   UNL     1       6.016   3.884  13.735  0.00  0.00    +0.000 A 
ENDBRANCH  23  25
ENDBRANCH  20  21
ENDBRANCH   3  20
TORSDOF 6
ENDMDL
MODEL 2
REMARK VINA RESULT:      -7.6      5.235      7.798
REMARK  Name = 
REMARK  9 active torsions:
REMARK  status: ('A' for Active; 'I' for Inactive)
REMARK    1  A    between atoms: C_1  and  C_2
REMARK    2  A    between atoms: C_2  and  C_3
REMARK    3  A    between atoms: C_2  and  C_4
REMARK    4  A    between atoms: C_4  and  C_5
REMARK    5  A    between atoms: C_4  and  N_20
REMARK    6  A    between atoms: N_7  and  C_8
REMARK    7  A    between atoms: N_7  and  C_9
REMARK    8  A    between atoms: C_9  and  C_10
REMARK    9  A    between atoms: N_12  and  C_13
REMARK                            x       y       z     vdW  Elec       q    Type
REMARK                         _______ _______ _______ _____ _____    ______ ____
ROOT
ATOM      1  C   UNL     1       0.389  10.977  20.312  0.00  0.00    +0.000 C 
ATOM      2  O   UNL     1       0.121  11.049  21.513  0.00  0.00    +0.000 OA
ATOM      3  N   UNL     1       1.181   9.923  19.873  0.00  0.00    +0.000 N 
ATOM      4  C   UNL     1       1.524   9.631  18.490  0.00  0.00    +0.000 C 
ENDROOT
BRANCH   1   5
ATOM      5  C   UNL     1      -0.130  12.039  19.292  0.00  0.00    +0.000 C 
BRANCH   5   6
ATOM      6  N   UNL     1      -1.595  12.034  19.098  0.00  0.00    +0.000 N 
ATOM      7  C   UNL     1      -2.541  12.403  20.019  0.00  0.00    +0.000 C 
ATOM      8  O   UNL     1      -2.414  12.754  21.176  0.00  0.00    +0.000 OA
ATOM      9  C   UNL     1      -3.847  12.230  19.375  0.00  0.00    +0.000 A 
ATOM     10  C   UNL     1      -5.109  12.665  19.729  0.00  0.00    +0.000 A 
ATOM     11  C   UNL     1      -6.154  12.401  18.834  0.00  0.00    +0.000 A 
ATOM     12  C   UNL     1      -5.924  11.692  17.636  0.00  0.00    +0.000 A 
ATOM     13  C   UNL     1      -4.644  11.233  17.318  0.00  0.00    +0.000 A 
ATOM     14  C   UNL     1      -3.630  11.533  18.206  0.00  0.00    +0.000 A 
ATOM     15  C   UNL     1      -2.201  11.268  18.132  0.00  0.00    +0.000 C 
ATOM     16  O   UNL     1      -1.725  10.444  17.373  0.00  0.00    +0.000 OA
ENDBRANCH   5   6
BRANCH   5  18
ATOM     17  C   UNL     1       1.853  13.582  20.052  0.00  0.00    +0.000 C 
ATOM     18  C   UNL     1       0.345  13.466  19.772  0.00  0.00    +0.000 C 
ATOM     19  C   UNL     1      -0.120  14.584  18.835  0.00  0.00    +0.000 C 
ENDBRANCH   5  18
ENDBRANCH   1   5
BRANCH   3  20
ATOM     20  C   UNL     1       1.727   9.010  20.883  0.00  0.00    +0.000 C 
BRANCH  20  21
ATOM     21  C   UNL     1       1.253   7.562  20.718  0.00  0.00    +0.000 C 
ATOM     22  O   UNL     1       0.128   7.251  21.107  0.00  0.00    +0.000 OA
ATOM     23  N   UNL     1       2.194   6.692  20.183  0.00  0.00    +0.000 N 
ATOM     24  H   UNL     1       3.134   7.063  20.053  0.00  0.00    +0.000 HD
BRANCH  23  25
ATOM     25  C   UNL     1       2.015   5.293  20.017  0.00  0.00    +0.000 A 
ATOM     26  C   UNL     1       1.893   4.686  18.759  0.00  0.00    +0.000 A 
ATOM     27  C   UNL     1       1.618   3.320  18.631  0.00  0.00    +0.000 A 
ATOM     28  C   UNL     1       1.474   2.533  19.767  0.00  0.00    +0.000 A 
ATOM     29  C   UNL     1       1.644   3.119  21.017  0.00  0.00    +0.000 A 
ATOM     30  F   UNL     1       1.517   2.359  22.114  0.00  0.00    +0.000 F 
ATOM     31  C   UNL     1       1.927   4.483  21.154  0.00  0.00    +0.000 A 
ENDBRANCH  23  25
ENDBRANCH  20  21
ENDBRANCH   3  20
TORSDOF 6
ENDMDL
MODEL 3
REMARK VINA RESULT:      -7.6      3.340      8.529
REMARK  Name = 
REMARK  9 active torsions:
REMARK  status: ('A' for Active; 'I' for Inactive)
REMARK    1  A    between atoms: C_1  and  C_2
REMARK    2  A    between atoms: C_2  and  C_3
REMARK    3  A    between atoms: C_2  and  C_4
REMARK    4  A    between atoms: C_4  and  C_5
REMARK    5  A    between atoms: C_4  and  N_20
REMARK    6  A    between atoms: N_7  and  C_8
REMARK    7  A    between atoms: N_7  and  C_9
REMARK    8  A    between atoms: C_9  and  C_10
REMARK    9  A    between atoms: N_12  and  C_13
REMARK                            x       y       z     vdW  Elec       q    Type
REMARK                         _______ _______ _______ _____ _____    ______ ____
ROOT
ATOM      1  C   UNL     1       1.957   6.072  20.014  0.00  0.00    +0.000 C 
ATOM      2  O   UNL     1       1.888   5.914  21.234  0.00  0.00    +0.000 OA
ATOM      3  N   UNL     1       2.002   7.368  19.516  0.00  0.00    +0.000 N 
ATOM      4  C   UNL     1       2.170   7.742  18.120  0.00  0.00    +0.000 C 
ENDROOT
BRANCH   1   5
ATOM      5  C   UNL     1       1.984   4.859  19.032  0.00  0.00    +0.000 C 
BRANCH   5   6
ATOM      6  N   UNL     1       3.223   4.746  18.234  0.00  0.00    +0.000 N 
ATOM      7  C   UNL     1       3.402   3.986  17.108  0.00  0.00    +0.000 C 
ATOM      8  O   UNL     1       2.642   3.219  16.550  0.00  0.00    +0.000 OA
ATOM      9  C   UNL     1       4.788   4.195  16.674  0.00  0.00    +0.000 A 
ATOM     10  C   UNL     1       5.435   3.887  15.494  0.00  0.00    +0.000 A 
ATOM     11  C   UNL     1       6.765   4.308  15.362  0.00  0.00    +0.000 A 
ATOM     12  C   UNL     1       7.418   4.992  16.409  0.00  0.00    +0.000 A 
ATOM     13  C   UNL     1       6.751   5.262  17.606  0.00  0.00    +0.000 A 
ATOM     14  C   UNL     1       5.433   4.860  17.695  0.00  0.00    +0.000 A 
ATOM     15  C   UNL     1       4.457   5.052  18.757  0.00  0.00    +0.000 C 
ATOM     16  O   UNL     1       4.774   5.355  19.892  0.00  0.00    +0.000 OA
ENDBRANCH   5   6
BRANCH   5  18
ATOM     17  C   UNL     1       0.622   2.637  19.353  0.00  0.00    +0.000 C 
ATOM     18  C   UNL     1       1.759   3.537  19.866  0.00  0.00    +0.000 C 
ATOM     19  C   UNL     1       3.049   2.732  20.046  0.00  0.00    +0.000 C 
ENDBRANCH   5  18
ENDBRANCH   1   5
BRANCH   3  20
ATOM     20  C   UNL     1       1.871   8.474  20.471  0.00  0.00    +0.000 C 
BRANCH  20  21
ATOM     21  C   UNL     1       0.480   9.115  20.478  0.00  0.00    +0.000 C 
ATOM     22  O   UNL     1      -0.354   8.731  21.297  0.00  0.00    +0.000 OA
ATOM     23  N   UNL     1       0.262  10.061  19.485  0.00  0.00    +0.000 N 
ATOM     24  H   UNL     1       0.996  10.162  18.784  0.00  0.00    +0.000 HD
BRANCH  23  25
ATOM     25  C   UNL     1      -0.970  10.724  19.239  0.00  0.00    +0.000 A 
ATOM     26  C   UNL     1      -1.415  11.809  20.007  0.00  0.00    +0.000 A 
ATOM     27  C   UNL     1      -2.679  12.376  19.805  0.00  0.00    +0.000 A 
ATOM     28  C   UNL     1      -3.514  11.872  18.817  0.00  0.00    +0.000 A 
ATOM     29  C   UNL     1      -3.058  10.828  18.018  0.00  0.00    +0.000 A 
ATOM     30  F   UNL     1      -3.858  10.347  17.056  0.00  0.00    +0.000 F 
ATOM     31  C   UNL     1      -1.794  10.259  18.208  0.00  0.00    +0.000 A 
ENDBRANCH  23  25
ENDBRANCH  20  21
ENDBRANCH   3  20
TORSDOF 6
ENDMDL
MODEL 4
REMARK VINA RESULT:      -7.5      4.229      5.880
REMARK  Name = 
REMARK  9 active torsions:
REMARK  status: ('A' for Active; 'I' for Inactive)
REMARK    1  A    between atoms: C_1  and  C_2
REMARK    2  A    between atoms: C_2  and  C_3
REMARK    3  A    between atoms: C_2  and  C_4
REMARK    4  A    between atoms: C_4  and  C_5
REMARK    5  A    between atoms: C_4  and  N_20
REMARK    6  A    between atoms: N_7  and  C_8
REMARK    7  A    between atoms: N_7  and  C_9
REMARK    8  A    between atoms: C_9  and  C_10
REMARK    9  A    between atoms: N_12  and  C_13
REMARK                            x       y       z     vdW  Elec       q    Type
REMARK                         _______ _______ _______ _____ _____    ______ ____
ROOT
ATOM      1  C   UNL     1       5.853   6.509  17.533  0.00  0.00    +0.000 C 
ATOM      2  O   UNL     1       5.802   7.113  16.460  0.00  0.00    +0.000 OA
ATOM      3  N   UNL     1       7.028   6.570  18.272  0.00  0.00    +0.000 N 
ATOM      4  C   UNL     1       7.238   5.996  19.592  0.00  0.00    +0.000 C 
ENDROOT
BRANCH   1   5
ATOM      5  C   UNL     1       4.640   5.682  18.065  0.00  0.00    +0.000 C 
BRANCH   5   6
ATOM      6  N   UNL     1       3.583   6.491  18.707  0.00  0.00    +0.000 N 
ATOM      7  C   UNL     1       2.838   6.139  19.802  0.00  0.00    +0.000 C 
ATOM      8  O   UNL     1       2.828   5.108  20.446  0.00  0.00    +0.000 OA
ATOM      9  C   UNL     1       1.923   7.255  20.065  0.00  0.00    +0.000 A 
ATOM     10  C   UNL     1       1.133   7.554  21.157  0.00  0.00    +0.000 A 
ATOM     11  C   UNL     1       0.429   8.765  21.128  0.00  0.00    +0.000 A 
ATOM     12  C   UNL     1       0.505   9.624  20.012  0.00  0.00    +0.000 A 
ATOM     13  C   UNL     1       1.286   9.282  18.905  0.00  0.00    +0.000 A 
ATOM     14  C   UNL     1       1.990   8.096  18.975  0.00  0.00    +0.000 A 
ATOM     15  C   UNL     1       2.931   7.501  18.040  0.00  0.00    +0.000 C 
ATOM     16  O   UNL     1       3.006   7.846  16.875  0.00  0.00    +0.000 OA
ENDBRANCH   5   6
BRANCH   5  18
ATOM     17  C   UNL     1       5.073   4.171  15.962  0.00  0.00    +0.000 C 
ATOM     18  C   UNL     1       4.033   4.858  16.863  0.00  0.00    +0.000 C 
ATOM     19  C   UNL     1       2.965   3.859  17.318  0.00  0.00    +0.000 C 
ENDBRANCH   5  18
ENDBRANCH   1   5
BRANCH   3  20
ATOM     20  C   UNL     1       8.172   7.275  17.683  0.00  0.00    +0.000 C 
BRANCH  20  21
ATOM     21  C   UNL     1       8.251   8.752  18.083  0.00  0.00    +0.000 C 
ATOM     22  O   UNL     1       7.548   9.572  17.495  0.00  0.00    +0.000 OA
ATOM     23  N   UNL     1       9.188   9.046  19.066  0.00  0.00    +0.000 N 
ATOM     24  H   UNL     1       9.805   8.286  19.348  0.00  0.00    +0.000 HD
BRANCH  23  25
ATOM     25  C   UNL     1       9.501  10.349  19.536  0.00  0.00    +0.000 A 
ATOM     26  C   UNL     1       9.141  10.803  20.812  0.00  0.00    +0.000 A 
ATOM     27  C   UNL     1       9.375  12.125  21.209  0.00  0.00    +0.000 A 
ATOM     28  C   UNL     1       9.989  13.012  20.335  0.00  0.00    +0.000 A 
ATOM     29  C   UNL     1      10.394  12.554  19.086  0.00  0.00    +0.000 A 
ATOM     30  F   UNL     1      10.998  13.406  18.245  0.00  0.00    +0.000 F 
ATOM     31  C   UNL     1      10.171  11.233  18.683  0.00  0.00    +0.000 A 
ENDBRANCH  23  25
ENDBRANCH  20  21
ENDBRANCH   3  20
TORSDOF 6
ENDMDL
MODEL 5
REMARK VINA RESULT:      -7.4      4.203      6.935
REMARK  Name = 
REMARK  9 active torsions:
REMARK  status: ('A' for Active; 'I' for Inactive)
REMARK    1  A    between atoms: C_1  and  C_2
REMARK    2  A    between atoms: C_2  and  C_3
REMARK    3  A    between atoms: C_2  and  C_4
REMARK    4  A    between atoms: C_4  and  C_5
REMARK    5  A    between atoms: C_4  and  N_20
REMARK    6  A    between atoms: N_7  and  C_8
REMARK    7  A    between atoms: N_7  and  C_9
REMARK    8  A    between atoms: C_9  and  C_10
REMARK    9  A    between atoms: N_12  and  C_13
REMARK                            x       y       z     vdW  Elec       q    Type
REMARK                         _______ _______ _______ _____ _____    ______ ____
ROOT
ATOM      1  C   UNL     1       0.430  10.417  19.805  0.00  0.00    +0.000 C 
ATOM      2  O   UNL     1       0.187  10.365  21.012  0.00  0.00    +0.000 OA
ATOM      3  N   UNL     1       1.150   9.377  19.229  0.00  0.00    +0.000 N 
ATOM      4  C   UNL     1       1.453   9.229  17.814  0.00  0.00    +0.000 C 
ENDROOT
BRANCH   1   5
ATOM      5  C   UNL     1      -0.040  11.619  18.926  0.00  0.00    +0.000 C 
BRANCH   5   6
ATOM      6  N   UNL     1      -1.507  11.731  18.781  0.00  0.00    +0.000 N 
ATOM      7  C   UNL     1      -2.395  12.114  19.751  0.00  0.00    +0.000 C 
ATOM      8  O   UNL     1      -2.210  12.389  20.921  0.00  0.00    +0.000 OA
ATOM      9  C   UNL     1      -3.729  12.073  19.142  0.00  0.00    +0.000 A 
ATOM     10  C   UNL     1      -4.944  12.578  19.560  0.00  0.00    +0.000 A 
ATOM     11  C   UNL     1      -6.032  12.441  18.687  0.00  0.00    +0.000 A 
ATOM     12  C   UNL     1      -5.889  11.786  17.445  0.00  0.00    +0.000 A 
ATOM     13  C   UNL     1      -4.656  11.255  17.060  0.00  0.00    +0.000 A 
ATOM     14  C   UNL     1      -3.597  11.430  17.930  0.00  0.00    +0.000 A 
ATOM     15  C   UNL     1      -2.195  11.067  17.794  0.00  0.00    +0.000 C 
ATOM     16  O   UNL     1      -1.803  10.255  16.977  0.00  0.00    +0.000 OA
ENDBRANCH   5   6
BRANCH   5  18
ATOM     17  C   UNL     1       2.048  12.907  19.861  0.00  0.00    +0.000 C 
ATOM     18  C   UNL     1       0.543  12.948  19.546  0.00  0.00    +0.000 C 
ATOM     19  C   UNL     1       0.198  14.184  18.710  0.00  0.00    +0.000 C 
ENDBRANCH   5  18
ENDBRANCH   1   5
BRANCH   3  20
ATOM     20  C   UNL     1       1.657   8.323  20.115  0.00  0.00    +0.000 C 
BRANCH  20  21
ATOM     21  C   UNL     1       2.389   7.200  19.373  0.00  0.00    +0.000 C 
ATOM     22  O   UNL     1       3.212   7.492  18.506  0.00  0.00    +0.000 OA
ATOM     23  N   UNL     1       1.997   5.913  19.717  0.00  0.00    +0.000 N 
ATOM     24  H   UNL     1       1.194   5.834  20.340  0.00  0.00    +0.000 HD
BRANCH  23  25
ATOM     25  C   UNL     1       2.469   4.721  19.105  0.00  0.00    +0.000 A 
ATOM     26  C   UNL     1       2.000   4.267  17.865  0.00  0.00    +0.000 A 
ATOM     27  C   UNL     1       2.410   3.038  17.335  0.00  0.00    +0.000 A 
ATOM     28  C   UNL     1       3.313   2.248  18.037  0.00  0.00    +0.000 A 
ATOM     29  C   UNL     1       3.820   2.717  19.244  0.00  0.00    +0.000 A 
ATOM     30  F   UNL     1       4.700   1.962  19.917  0.00  0.00    +0.000 F 
ATOM     31  C   UNL     1       3.421   3.948  19.777  0.00  0.00    +0.000 A 
ENDBRANCH  23  25
ENDBRANCH  20  21
ENDBRANCH   3  20
TORSDOF 6
ENDMDL
MODEL 6
REMARK VINA RESULT:      -7.4      5.122      8.874
REMARK  Name = 
REMARK  9 active torsions:
REMARK  status: ('A' for Active; 'I' for Inactive)
REMARK    1  A    between atoms: C_1  and  C_2
REMARK    2  A    between atoms: C_2  and  C_3
REMARK    3  A    between atoms: C_2  and  C_4
REMARK    4  A    between atoms: C_4  and  C_5
REMARK    5  A    between atoms: C_4  and  N_20
REMARK    6  A    between atoms: N_7  and  C_8
REMARK    7  A    between atoms: N_7  and  C_9
REMARK    8  A    between atoms: C_9  and  C_10
REMARK    9  A    between atoms: N_12  and  C_13
REMARK                            x       y       z     vdW  Elec       q    Type
REMARK                         _______ _______ _______ _____ _____    ______ ____
ROOT
ATOM      1  C   UNL     1      -0.555  11.649  21.876  0.00  0.00    +0.000 C 
ATOM      2  O   UNL     1      -0.501  11.418  23.085  0.00  0.00    +0.000 OA
ATOM      3  N   UNL     1       0.204  10.862  21.018  0.00  0.00    +0.000 N 
ATOM      4  C   UNL     1       0.199  10.933  19.565  0.00  0.00    +0.000 C 
ENDROOT
BRANCH   1   5
ATOM      5  C   UNL     1      -1.439  12.799  21.300  0.00  0.00    +0.000 C 
BRANCH   5   6
ATOM      6  N   UNL     1      -2.857  12.745  21.714  0.00  0.00    +0.000 N 
ATOM      7  C   UNL     1      -3.948  12.716  20.885  0.00  0.00    +0.000 C 
ATOM      8  O   UNL     1      -4.015  12.778  19.673  0.00  0.00    +0.000 OA
ATOM      9  C   UNL     1      -5.133  12.667  21.749  0.00  0.00    +0.000 A 
ATOM     10  C   UNL     1      -6.456  12.384  21.475  0.00  0.00    +0.000 A 
ATOM     11  C   UNL     1      -7.341  12.333  22.560  0.00  0.00    +0.000 A 
ATOM     12  C   UNL     1      -6.895  12.593  23.874  0.00  0.00    +0.000 A 
ATOM     13  C   UNL     1      -5.557  12.910  24.120  0.00  0.00    +0.000 A 
ATOM     14  C   UNL     1      -4.704  12.924  23.034  0.00  0.00    +0.000 A 
ATOM     15  C   UNL     1      -3.268  13.140  22.965  0.00  0.00    +0.000 C 
ATOM     16  O   UNL     1      -2.637  13.655  23.869  0.00  0.00    +0.000 OA
ENDBRANCH   5   6
BRANCH   5  18
ATOM     17  C   UNL     1       0.732  14.194  21.782  0.00  0.00    +0.000 C 
ATOM     18  C   UNL     1      -0.805  14.179  21.731  0.00  0.00    +0.000 C 
ATOM     19  C   UNL     1      -1.331  15.351  20.897  0.00  0.00    +0.000 C 
ENDBRANCH   5  18
ENDBRANCH   1   5
BRANCH   3  20
ATOM     20  C   UNL     1       1.095   9.861  21.615  0.00  0.00    +0.000 C 
BRANCH  20  21
ATOM     21  C   UNL     1       0.845   8.438  21.105  0.00  0.00    +0.000 C 
ATOM     22  O   UNL     1      -0.235   7.898  21.339  0.00  0.00    +0.000 OA
ATOM     23  N   UNL     1       1.922   7.848  20.456  0.00  0.00    +0.000 N 
ATOM     24  H   UNL     1       2.802   8.362  20.475  0.00  0.00    +0.000 HD
BRANCH  23  25
ATOM     25  C   UNL     1       1.957   6.511  19.976  0.00  0.00    +0.000 A 
ATOM     26  C   UNL     1       2.362   6.182  18.674  0.00  0.00    +0.000 A 
ATOM     27  C   UNL     1       2.290   4.868  18.198  0.00  0.00    +0.000 A 
ATOM     28  C   UNL     1       1.823   3.856  19.027  0.00  0.00    +0.000 A 
ATOM     29  C   UNL     1       1.468   4.168  20.335  0.00  0.00    +0.000 A 
ATOM     30  F   UNL     1       1.029   3.190  21.141  0.00  0.00    +0.000 F 
ATOM     31  C   UNL     1       1.544   5.477  20.822  0.00  0.00    +0.000 A 
ENDBRANCH  23  25
ENDBRANCH  20  21
ENDBRANCH   3  20
TORSDOF 6
ENDMDL
MODEL 7
REMARK VINA RESULT:      -7.3      3.630      9.105
REMARK  Name = 
REMARK  9 active torsions:
REMARK  status: ('A' for Active; 'I' for Inactive)
REMARK    1  A    between atoms: C_1  and  C_2
REMARK    2  A    between atoms: C_2  and  C_3
REMARK    3  A    between atoms: C_2  and  C_4
REMARK    4  A    between atoms: C_4  and  C_5
REMARK    5  A    between atoms: C_4  and  N_20
REMARK    6  A    between atoms: N_7  and  C_8
REMARK    7  A    between atoms: N_7  and  C_9
REMARK    8  A    between atoms: C_9  and  C_10
REMARK    9  A    between atoms: N_12  and  C_13
REMARK                            x       y       z     vdW  Elec       q    Type
REMARK                         _______ _______ _______ _____ _____    ______ ____
ROOT
ATOM      1  C   UNL     1       2.032   5.666  20.327  0.00  0.00    +0.000 C 
ATOM      2  O   UNL     1       2.141   5.269  21.489  0.00  0.00    +0.000 OA
ATOM      3  N   UNL     1       1.960   7.035  20.100  0.00  0.00    +0.000 N 
ATOM      4  C   UNL     1       1.917   7.683  18.798  0.00  0.00    +0.000 C 
ENDROOT
BRANCH   1   5
ATOM      5  C   UNL     1       1.964   4.672  19.126  0.00  0.00    +0.000 C 
BRANCH   5   6
ATOM      6  N   UNL     1       3.174   4.656  18.277  0.00  0.00    +0.000 N 
ATOM      7  C   UNL     1       3.326   3.995  17.086  0.00  0.00    +0.000 C 
ATOM      8  O   UNL     1       2.562   3.258  16.494  0.00  0.00    +0.000 OA
ATOM      9  C   UNL     1       4.689   4.273  16.621  0.00  0.00    +0.000 A 
ATOM     10  C   UNL     1       5.298   4.078  15.397  0.00  0.00    +0.000 A 
ATOM     11  C   UNL     1       6.612   4.541  15.252  0.00  0.00    +0.000 A 
ATOM     12  C   UNL     1       7.290   5.154  16.328  0.00  0.00    +0.000 A 
ATOM     13  C   UNL     1       6.663   5.308  17.566  0.00  0.00    +0.000 A 
ATOM     14  C   UNL     1       5.358   4.867  17.669  0.00  0.00    +0.000 A 
ATOM     15  C   UNL     1       4.420   4.948  18.778  0.00  0.00    +0.000 C 
ATOM     16  O   UNL     1       4.773   5.165  19.922  0.00  0.00    +0.000 OA
ENDBRANCH   5   6
BRANCH   5  18
ATOM     17  C   UNL     1       0.574   2.451  18.960  0.00  0.00    +0.000 C 
ATOM     18  C   UNL     1       1.683   3.225  19.691  0.00  0.00    +0.000 C 
ATOM     19  C   UNL     1       2.956   2.379  19.794  0.00  0.00    +0.000 C 
ENDBRANCH   5  18
ENDBRANCH   1   5
BRANCH   3  20
ATOM     20  C   UNL     1       1.926   7.922  21.268  0.00  0.00    +0.000 C 
BRANCH  20  21
ATOM     21  C   UNL     1       0.587   8.644  21.448  0.00  0.00    +0.000 C 
ATOM     22  O   UNL     1      -0.458   8.002  21.353  0.00  0.00    +0.000 OA
ATOM     23  N   UNL     1       0.679  10.015  21.649  0.00  0.00    +0.000 N 
ATOM     24  H   UNL     1       1.606  10.428  21.549  0.00  0.00    +0.000 HD
BRANCH  23  25
ATOM     25  C   UNL     1      -0.423  10.904  21.755  0.00  0.00    +0.000 A 
ATOM     26  C   UNL     1      -1.062  11.180  22.973  0.00  0.00    +0.000 A 
ATOM     27  C   UNL     1      -2.208  11.982  23.030  0.00  0.00    +0.000 A 
ATOM     28  C   UNL     1      -2.726  12.534  21.865  0.00  0.00    +0.000 A 
ATOM     29  C   UNL     1      -2.068  12.305  20.662  0.00  0.00    +0.000 A 
ATOM     30  F   UNL     1      -2.559  12.847  19.538  0.00  0.00    +0.000 F 
ATOM     31  C   UNL     1      -0.917  11.511  20.596  0.00  0.00    +0.000 A 
ENDBRANCH  23  25
ENDBRANCH  20  21
ENDBRANCH   3  20
TORSDOF 6
ENDMDL
MODEL 8
REMARK VINA RESULT:      -7.3      3.917      9.051
REMARK  Name = 
REMARK  9 active torsions:
REMARK  status: ('A' for Active; 'I' for Inactive)
REMARK    1  A    between atoms: C_1  and  C_2
REMARK    2  A    between atoms: C_2  and  C_3
REMARK    3  A    between atoms: C_2  and  C_4
REMARK    4  A    between atoms: C_4  and  C_5
REMARK    5  A    between atoms: C_4  and  N_20
REMARK    6  A    between atoms: N_7  and  C_8
REMARK    7  A    between atoms: N_7  and  C_9
REMARK    8  A    between atoms: C_9  and  C_10
REMARK    9  A    between atoms: N_12  and  C_13
REMARK                            x       y       z     vdW  Elec       q    Type
REMARK                         _______ _______ _______ _____ _____    ______ ____
ROOT
ATOM      1  C   UNL     1       2.004   5.761  20.196  0.00  0.00    +0.000 C 
ATOM      2  O   UNL     1       2.029   5.418  21.379  0.00  0.00    +0.000 OA
ATOM      3  N   UNL     1       2.000   7.119  19.900  0.00  0.00    +0.000 N 
ATOM      4  C   UNL     1       2.059   7.703  18.569  0.00  0.00    +0.000 C 
ENDROOT
BRANCH   1   5
ATOM      5  C   UNL     1       1.968   4.712  19.040  0.00  0.00    +0.000 C 
BRANCH   5   6
ATOM      6  N   UNL     1       3.205   4.650  18.233  0.00  0.00    +0.000 N 
ATOM      7  C   UNL     1       3.375   3.975  17.052  0.00  0.00    +0.000 C 
ATOM      8  O   UNL     1       2.607   3.258  16.440  0.00  0.00    +0.000 OA
ATOM      9  C   UNL     1       4.762   4.205  16.632  0.00  0.00    +0.000 A 
ATOM     10  C   UNL     1       5.404   3.980  15.431  0.00  0.00    +0.000 A 
ATOM     11  C   UNL     1       6.738   4.399  15.327  0.00  0.00    +0.000 A 
ATOM     12  C   UNL     1       7.398   4.997  16.421  0.00  0.00    +0.000 A 
ATOM     13  C   UNL     1       6.736   5.182  17.636  0.00  0.00    +0.000 A 
ATOM     14  C   UNL     1       5.414   4.785  17.698  0.00  0.00    +0.000 A 
ATOM     15  C   UNL     1       4.443   4.905  18.774  0.00  0.00    +0.000 C 
ATOM     16  O   UNL     1       4.764   5.119  19.928  0.00  0.00    +0.000 OA
ENDBRANCH   5   6
BRANCH   5  18
ATOM     17  C   UNL     1       0.591   2.480  18.914  0.00  0.00    +0.000 C 
ATOM     18  C   UNL     1       1.659   3.295  19.663  0.00  0.00    +0.000 C 
ATOM     19  C   UNL     1       2.926   2.460  19.876  0.00  0.00    +0.000 C 
ENDBRANCH   5  18
ENDBRANCH   1   5
BRANCH   3  20
ATOM     20  C   UNL     1       1.932   8.063  21.021  0.00  0.00    +0.000 C 
BRANCH  20  21
ATOM     21  C   UNL     1       0.573   8.759  21.153  0.00  0.00    +0.000 C 
ATOM     22  O   UNL     1      -0.409   8.098  21.488  0.00  0.00    +0.000 OA
ATOM     23  N   UNL     1       0.565  10.105  20.810  0.00  0.00    +0.000 N 
ATOM     24  H   UNL     1       1.423  10.476  20.403  0.00  0.00    +0.000 HD
BRANCH  23  25
ATOM     25  C   UNL     1      -0.588  10.934  20.770  0.00  0.00    +0.000 A 
ATOM     26  C   UNL     1      -1.252  11.254  19.578  0.00  0.00    +0.000 A 
ATOM     27  C   UNL     1      -2.325  12.153  19.560  0.00  0.00    +0.000 A 
ATOM     28  C   UNL     1      -2.759  12.737  20.743  0.00  0.00    +0.000 A 
ATOM     29  C   UNL     1      -2.137  12.385  21.935  0.00  0.00    +0.000 A 
ATOM     30  F   UNL     1      -2.562  12.938  23.081  0.00  0.00    +0.000 F 
ATOM     31  C   UNL     1      -1.069  11.481  21.965  0.00  0.00    +0.000 A 
ENDBRANCH  23  25
ENDBRANCH  20  21
ENDBRANCH   3  20
TORSDOF 6
ENDMDL
MODEL 9
REMARK VINA RESULT:      -7.3      1.370      2.307
REMARK  Name = 
REMARK  9 active torsions:
REMARK  status: ('A' for Active; 'I' for Inactive)
REMARK    1  A    between atoms: C_1  and  C_2
REMARK    2  A    between atoms: C_2  and  C_3
REMARK    3  A    between atoms: C_2  and  C_4
REMARK    4  A    between atoms: C_4  and  C_5
REMARK    5  A    between atoms: C_4  and  N_20
REMARK    6  A    between atoms: N_7  and  C_8
REMARK    7  A    between atoms: N_7  and  C_9
REMARK    8  A    between atoms: C_9  and  C_10
REMARK    9  A    between atoms: N_12  and  C_13
REMARK                            x       y       z     vdW  Elec       q    Type
REMARK                         _______ _______ _______ _____ _____    ______ ____
ROOT
ATOM      1  C   UNL     1       4.750   4.277  17.894  0.00  0.00    +0.000 C 
ATOM      2  O   UNL     1       4.650   3.709  16.805  0.00  0.00    +0.000 OA
ATOM      3  N   UNL     1       5.994   4.770  18.272  0.00  0.00    +0.000 N 
ATOM      4  C   UNL     1       6.279   5.538  19.474  0.00  0.00    +0.000 C 
ENDROOT
BRANCH   1   5
ATOM      5  C   UNL     1       3.525   4.441  18.848  0.00  0.00    +0.000 C 
BRANCH   5   6
ATOM      6  N   UNL     1       2.949   5.802  18.873  0.00  0.00    +0.000 N 
ATOM      7  C   UNL     1       3.215   6.817  17.991  0.00  0.00    +0.000 C 
ATOM      8  O   UNL     1       3.989   6.860  17.054  0.00  0.00    +0.000 OA
ATOM      9  C   UNL     1       2.415   7.969  18.421  0.00  0.00    +0.000 A 
ATOM     10  C   UNL     1       2.103   9.155  17.786  0.00  0.00    +0.000 A 
ATOM     11  C   UNL     1       1.226  10.026  18.448  0.00  0.00    +0.000 A 
ATOM     12  C   UNL     1       0.713   9.709  19.724  0.00  0.00    +0.000 A 
ATOM     13  C   UNL     1       1.073   8.518  20.358  0.00  0.00    +0.000 A 
ATOM     14  C   UNL     1       1.915   7.668  19.669  0.00  0.00    +0.000 A 
ATOM     15  C   UNL     1       2.409   6.345  20.015  0.00  0.00    +0.000 C 
ATOM     16  O   UNL     1       2.378   5.908  21.150  0.00  0.00    +0.000 OA
ENDBRANCH   5   6
BRANCH   5  18
ATOM     17  C   UNL     1       1.843   2.564  19.580  0.00  0.00    +0.000 C 
ATOM     18  C   UNL     1       2.420   3.397  18.423  0.00  0.00    +0.000 C 
ATOM     19  C   UNL     1       1.296   4.035  17.601  0.00  0.00    +0.000 C 
ENDBRANCH   5  18
ENDBRANCH   1   5
BRANCH   3  20
ATOM     20  C   UNL     1       7.134   4.501  17.388  0.00  0.00    +0.000 C 
BRANCH  20  21
ATOM     21  C   UNL     1       6.855   4.823  15.916  0.00  0.00    +0.000 C 
ATOM     22  O   UNL     1       6.641   5.989  15.587  0.00  0.00    +0.000 OA
ATOM     23  N   UNL     1       6.807   3.721  15.072  0.00  0.00    +0.000 N 
ATOM     24  H   UNL     1       6.850   2.805  15.516  0.00  0.00    +0.000 HD
BRANCH  23  25
ATOM     25  C   UNL     1       6.481   3.761  13.690  0.00  0.00    +0.000 A 
ATOM     26  C   UNL     1       7.366   4.240  12.714  0.00  0.00    +0.000 A 
ATOM     27  C   UNL     1       6.979   4.360  11.374  0.00  0.00    +0.000 A 
ATOM     28  C   UNL     1       5.698   3.988  10.987  0.00  0.00    +0.000 A 
ATOM     29  C   UNL     1       4.832   3.466  11.941  0.00  0.00    +0.000 A 
ATOM     30  F   UNL     1       3.599   3.095  11.568  0.00  0.00    +0.000 F 
ATOM     31  C   UNL     1       5.212   3.335  13.282  0.00  0.00    +0.000 A 
ENDBRANCH  23  25
ENDBRANCH  20  21
ENDBRANCH   3  20
TORSDOF 6
ENDMDL
