MODEL 1
REMARK VINA RESULT:      -8.2      0.000      0.000
REMARK  Name = 
REMARK  7 active torsions:
REMARK  status: ('A' for Active; 'I' for Inactive)
REMARK    1  A    between atoms: C_1  and  O_2
REMARK    2  A    between atoms: O_2  and  C_3
REMARK    3  A    between atoms: C_3  and  C_5
REMARK    4  A    between atoms: C_7  and  N_8
REMARK    5  A    between atoms: C_9  and  C_11
REMARK    6  A    between atoms: C_13  and  C_14
REMARK    7  A    between atoms: N_18  and  C_19
REMARK                            x       y       z     vdW  Elec       q    Type
REMARK                         _______ _______ _______ _____ _____    ______ ____
ROOT
ATOM      1  N   UNL     1       2.952   6.644  17.555  0.00  0.00    +0.000 N 
ATOM      2  C   UNL     1       4.315   6.592  17.302  0.00  0.00    +0.000 C 
ATOM      3  O   UNL     1       5.109   7.386  17.796  0.00  0.00    +0.000 OA
ATOM      4  H   UNL     1       2.337   6.037  17.022  0.00  0.00    +0.000 HD
ENDROOT
BRANCH   1   7
ATOM      5  C   UNL     1       1.208   9.613  19.095  0.00  0.00    +0.000 A 
ATOM      6  C   UNL     1       1.832   8.793  18.140  0.00  0.00    +0.000 A 
ATOM      7  C   UNL     1       2.317   7.522  18.480  0.00  0.00    +0.000 A 
ATOM      8  C   UNL     1       2.181   7.108  19.812  0.00  0.00    +0.000 A 
ATOM      9  F   UNL     1       2.648   5.904  20.182  0.00  0.00    +0.000 F 
ATOM     10  C   UNL     1       1.564   7.908  20.772  0.00  0.00    +0.000 A 
ATOM     11  C   UNL     1       1.079   9.163  20.405  0.00  0.00    +0.000 A 
ATOM     12  F   UNL     1       0.470   9.904  21.339  0.00  0.00    +0.000 F 
BRANCH   5  13
ATOM     13  C   UNL     1       0.729  10.967  18.745  0.00  0.00    +0.000 C 
ATOM     14  O   UNL     1       1.408  11.976  18.842  0.00  0.00    +0.000 OA
BRANCH  13  16
ATOM     15  C   UNL     1      -1.485  11.567  19.176  0.00  0.00    +0.000 C 
ATOM     16  O   UNL     1      -0.555  10.912  18.310  0.00  0.00    +0.000 OA
ENDBRANCH  13  16
ENDBRANCH   5  13
ENDBRANCH   1   7
BRANCH   2  17
ATOM     17  C   UNL     1       4.779   5.562  16.403  0.00  0.00    +0.000 A 
ATOM     18  C   UNL     1       5.477   5.635  15.206  0.00  0.00    +0.000 A 
ATOM     19  C   UNL     1       5.916   4.319  14.961  0.00  0.00    +0.000 A 
ATOM     20  N   UNL     1       5.541   3.476  15.918  0.00  0.00    +0.000 NA
ATOM     21  N   UNL     1       4.716   4.202  16.713  0.00  0.00    +0.000 N 
BRANCH  21  22
ATOM     22  C   UNL     1       3.906   3.526  17.673  0.00  0.00    +0.000 A 
ATOM     23  C   UNL     1       4.422   3.281  18.955  0.00  0.00    +0.000 A 
ATOM     24  C   UNL     1       3.623   2.675  19.927  0.00  0.00    +0.000 A 
ATOM     25  C   UNL     1       2.322   2.280  19.619  0.00  0.00    +0.000 A 
ATOM     26  C   UNL     1       1.823   2.471  18.332  0.00  0.00    +0.000 A 
ATOM     27  C   UNL     1       2.613   3.088  17.358  0.00  0.00    +0.000 A 
ENDBRANCH  21  22
BRANCH  19  28
ATOM     28  C   UNL     1       6.721   3.801  13.780  0.00  0.00    +0.000 C 
ATOM     29  C   UNL     1       6.931   4.601  12.515  0.00  0.00    +0.000 C 
ATOM     30  C   UNL     1       5.961   3.469  12.510  0.00  0.00    +0.000 C 
ENDBRANCH  19  28
ENDBRANCH   2  17
TORSDOF 6
ENDMDL
MODEL 2
REMARK VINA RESULT:      -8.2      0.496      1.290
REMARK  Name = 
REMARK  7 active torsions:
REMARK  status: ('A' for Active; 'I' for Inactive)
REMARK    1  A    between atoms: C_1  and  O_2
REMARK    2  A    between atoms: O_2  and  C_3
REMARK    3  A    between atoms: C_3  and  C_5
REMARK    4  A    between atoms: C_7  and  N_8
REMARK    5  A    between atoms: C_9  and  C_11
REMARK    6  A    between atoms: C_13  and  C_14
REMARK    7  A    between atoms: N_18  and  C_19
REMARK                            x       y       z     vdW  Elec       q    Type
REMARK                         _______ _______ _______ _____ _____    ______ ____
ROOT
ATOM      1  N   UNL     1       2.965   6.724  17.537  0.00  0.00    +0.000 N 
ATOM      2  C   UNL     1       4.329   6.650  17.297  0.00  0.00    +0.000 C 
ATOM      3  O   UNL     1       5.132   7.433  17.795  0.00  0.00    +0.000 OA
ATOM      4  H   UNL     1       2.346   6.125  17.000  0.00  0.00    +0.000 HD
ENDROOT
BRANCH   1   7
ATOM      5  C   UNL     1       1.271   9.733  19.056  0.00  0.00    +0.000 A 
ATOM      6  C   UNL     1       1.892   8.901  18.109  0.00  0.00    +0.000 A 
ATOM      7  C   UNL     1       2.335   7.615  18.454  0.00  0.00    +0.000 A 
ATOM      8  C   UNL     1       2.162   7.200  19.781  0.00  0.00    +0.000 A 
ATOM      9  F   UNL     1       2.588   5.982  20.154  0.00  0.00    +0.000 F 
ATOM     10  C   UNL     1       1.547   8.013  20.732  0.00  0.00    +0.000 A 
ATOM     11  C   UNL     1       1.104   9.281  20.361  0.00  0.00    +0.000 A 
ATOM     12  F   UNL     1       0.496  10.035  21.286  0.00  0.00    +0.000 F 
BRANCH   5  13
ATOM     13  C   UNL     1       0.836  11.100  18.702  0.00  0.00    +0.000 C 
ATOM     14  O   UNL     1      -0.331  11.433  18.579  0.00  0.00    +0.000 OA
BRANCH  13  16
ATOM     15  C   UNL     1       1.991  12.969  19.491  0.00  0.00    +0.000 C 
ATOM     16  O   UNL     1       1.914  11.907  18.537  0.00  0.00    +0.000 OA
ENDBRANCH  13  16
ENDBRANCH   5  13
ENDBRANCH   1   7
BRANCH   2  17
ATOM     17  C   UNL     1       4.785   5.609  16.406  0.00  0.00    +0.000 A 
ATOM     18  C   UNL     1       5.481   5.668  15.206  0.00  0.00    +0.000 A 
ATOM     19  C   UNL     1       5.912   4.348  14.972  0.00  0.00    +0.000 A 
ATOM     20  N   UNL     1       5.535   3.516  15.937  0.00  0.00    +0.000 NA
ATOM     21  N   UNL     1       4.716   4.253  16.728  0.00  0.00    +0.000 N 
BRANCH  21  22
ATOM     22  C   UNL     1       3.905   3.589  17.697  0.00  0.00    +0.000 A 
ATOM     23  C   UNL     1       2.610   3.182  17.343  0.00  0.00    +0.000 A 
ATOM     24  C   UNL     1       1.824   2.476  18.257  0.00  0.00    +0.000 A 
ATOM     25  C   UNL     1       2.309   2.205  19.535  0.00  0.00    +0.000 A 
ATOM     26  C   UNL     1       3.573   2.655  19.911  0.00  0.00    +0.000 A 
ATOM     27  C   UNL     1       4.369   3.350  18.997  0.00  0.00    +0.000 A 
ENDBRANCH  21  22
BRANCH  19  28
ATOM     28  C   UNL     1       6.710   3.815  13.793  0.00  0.00    +0.000 C 
ATOM     29  C   UNL     1       6.909   4.597  12.515  0.00  0.00    +0.000 C 
ATOM     30  C   UNL     1       5.943   3.462  12.534  0.00  0.00    +0.000 C 
ENDBRANCH  19  28
ENDBRANCH   2  17
TORSDOF 6
ENDMDL
MODEL 3
REMARK VINA RESULT:      -7.8      2.616      3.533
REMARK  Name = 
REMARK  7 active torsions:
REMARK  status: ('A' for Active; 'I' for Inactive)
REMARK    1  A    between atoms: C_1  and  O_2
REMARK    2  A    between atoms: O_2  and  C_3
REMARK    3  A    between atoms: C_3  and  C_5
REMARK    4  A    between atoms: C_7  and  N_8
REMARK    5  A    between atoms: C_9  and  C_11
REMARK    6  A    between atoms: C_13  and  C_14
REMARK    7  A    between atoms: N_18  and  C_19
REMARK                            x       y       z     vdW  Elec       q    Type
REMARK                         _______ _______ _______ _____ _____    ______ ____
ROOT
ATOM      1  N   UNL     1       1.635   8.874  18.494  0.00  0.00    +0.000 N 
ATOM      2  C   UNL     1       2.115   7.730  19.115  0.00  0.00    +0.000 C 
ATOM      3  O   UNL     1       1.783   7.405  20.250  0.00  0.00    +0.000 OA
ATOM      4  H   UNL     1       2.041   9.149  17.605  0.00  0.00    +0.000 HD
ENDROOT
BRANCH   1   7
ATOM      5  C   UNL     1      -0.287  11.212  20.745  0.00  0.00    +0.000 A 
ATOM      6  C   UNL     1       0.728  10.359  20.279  0.00  0.00    +0.000 A 
ATOM      7  C   UNL     1       0.637   9.742  19.022  0.00  0.00    +0.000 A 
ATOM      8  C   UNL     1      -0.514   9.985  18.259  0.00  0.00    +0.000 A 
ATOM      9  F   UNL     1      -0.646   9.399  17.058  0.00  0.00    +0.000 F 
ATOM     10  C   UNL     1      -1.528  10.829  18.707  0.00  0.00    +0.000 A 
ATOM     11  C   UNL     1      -1.408  11.440  19.953  0.00  0.00    +0.000 A 
ATOM     12  F   UNL     1      -2.385  12.264  20.352  0.00  0.00    +0.000 F 
BRANCH   5  13
ATOM     13  C   UNL     1      -0.208  11.834  22.084  0.00  0.00    +0.000 C 
ATOM     14  O   UNL     1      -0.554  11.279  23.114  0.00  0.00    +0.000 OA
BRANCH  13  16
ATOM     15  C   UNL     1      -0.551  14.095  22.550  0.00  0.00    +0.000 C 
ATOM     16  O   UNL     1       0.296  13.089  21.988  0.00  0.00    +0.000 OA
ENDBRANCH  13  16
ENDBRANCH   5  13
ENDBRANCH   1   7
BRANCH   2  17
ATOM     17  C   UNL     1       3.054   6.922  18.372  0.00  0.00    +0.000 A 
ATOM     18  C   UNL     1       3.956   7.252  17.370  0.00  0.00    +0.000 A 
ATOM     19  C   UNL     1       4.805   6.133  17.263  0.00  0.00    +0.000 A 
ATOM     20  N   UNL     1       4.483   5.172  18.124  0.00  0.00    +0.000 NA
ATOM     21  N   UNL     1       3.322   5.589  18.688  0.00  0.00    +0.000 N 
BRANCH  21  22
ATOM     22  C   UNL     1       2.547   4.662  19.446  0.00  0.00    +0.000 A 
ATOM     23  C   UNL     1       2.896   4.407  20.781  0.00  0.00    +0.000 A 
ATOM     24  C   UNL     1       2.113   3.549  21.558  0.00  0.00    +0.000 A 
ATOM     25  C   UNL     1       1.003   2.916  21.001  0.00  0.00    +0.000 A 
ATOM     26  C   UNL     1       0.684   3.123  19.660  0.00  0.00    +0.000 A 
ATOM     27  C   UNL     1       1.455   3.989  18.881  0.00  0.00    +0.000 A 
ENDBRANCH  21  22
BRANCH  19  28
ATOM     28  C   UNL     1       5.974   5.927  16.315  0.00  0.00    +0.000 C 
ATOM     29  C   UNL     1       7.009   4.843  16.509  0.00  0.00    +0.000 C 
ATOM     30  C   UNL     1       7.360   6.254  16.835  0.00  0.00    +0.000 C 
ENDBRANCH  19  28
ENDBRANCH   2  17
TORSDOF 6
ENDMDL
MODEL 4
REMARK VINA RESULT:      -7.8      2.379      3.386
REMARK  Name = 
REMARK  7 active torsions:
REMARK  status: ('A' for Active; 'I' for Inactive)
REMARK    1  A    between atoms: C_1  and  O_2
REMARK    2  A    between atoms: O_2  and  C_3
REMARK    3  A    between atoms: C_3  and  C_5
REMARK    4  A    between atoms: C_7  and  N_8
REMARK    5  A    between atoms: C_9  and  C_11
REMARK    6  A    between atoms: C_13  and  C_14
REMARK    7  A    between atoms: N_18  and  C_19
REMARK                            x       y       z     vdW  Elec       q    Type
REMARK                         _______ _______ _______ _____ _____    ______ ____
ROOT
ATOM      1  N   UNL     1       1.659   8.778  18.193  0.00  0.00    +0.000 N 
ATOM      2  C   UNL     1       2.285   7.750  18.884  0.00  0.00    +0.000 C 
ATOM      3  O   UNL     1       2.149   7.587  20.092  0.00  0.00    +0.000 OA
ATOM      4  H   UNL     1       1.909   8.929  17.221  0.00  0.00    +0.000 HD
ENDROOT
BRANCH   1   7
ATOM      5  C   UNL     1      -0.067  11.256  20.453  0.00  0.00    +0.000 A 
ATOM      6  C   UNL     1       0.901  10.365  19.960  0.00  0.00    +0.000 A 
ATOM      7  C   UNL     1       0.712   9.687  18.746  0.00  0.00    +0.000 A 
ATOM      8  C   UNL     1      -0.487   9.910  18.055  0.00  0.00    +0.000 A 
ATOM      9  F   UNL     1      -0.712   9.267  16.897  0.00  0.00    +0.000 F 
ATOM     10  C   UNL     1      -1.456  10.791  18.530  0.00  0.00    +0.000 A 
ATOM     11  C   UNL     1      -1.239  11.462  19.732  0.00  0.00    +0.000 A 
ATOM     12  F   UNL     1      -2.174  12.321  20.156  0.00  0.00    +0.000 F 
BRANCH   5  13
ATOM     13  C   UNL     1       0.116  11.942  21.749  0.00  0.00    +0.000 C 
ATOM     14  O   UNL     1       0.283  13.146  21.865  0.00  0.00    +0.000 OA
BRANCH  13  16
ATOM     15  C   UNL     1      -1.252  10.726  23.198  0.00  0.00    +0.000 C 
ATOM     16  O   UNL     1       0.074  11.045  22.765  0.00  0.00    +0.000 OA
ENDBRANCH  13  16
ENDBRANCH   5  13
ENDBRANCH   1   7
BRANCH   2  17
ATOM     17  C   UNL     1       3.138   6.868  18.123  0.00  0.00    +0.000 A 
ATOM     18  C   UNL     1       4.016   7.117  17.077  0.00  0.00    +0.000 A 
ATOM     19  C   UNL     1       4.784   5.942  16.961  0.00  0.00    +0.000 A 
ATOM     20  N   UNL     1       4.439   5.024  17.857  0.00  0.00    +0.000 NA
ATOM     21  N   UNL     1       3.332   5.527  18.459  0.00  0.00    +0.000 N 
BRANCH  21  22
ATOM     22  C   UNL     1       2.532   4.668  19.270  0.00  0.00    +0.000 A 
ATOM     23  C   UNL     1       1.478   3.955  18.681  0.00  0.00    +0.000 A 
ATOM     24  C   UNL     1       0.722   3.063  19.445  0.00  0.00    +0.000 A 
ATOM     25  C   UNL     1       0.990   2.903  20.804  0.00  0.00    +0.000 A 
ATOM     26  C   UNL     1       2.001   3.650  21.407  0.00  0.00    +0.000 A 
ATOM     27  C   UNL     1       2.768   4.535  20.645  0.00  0.00    +0.000 A 
ENDBRANCH  21  22
BRANCH  19  28
ATOM     28  C   UNL     1       5.897   5.641  15.971  0.00  0.00    +0.000 C 
ATOM     29  C   UNL     1       6.169   4.254  15.438  0.00  0.00    +0.000 C 
ATOM     30  C   UNL     1       7.076   4.830  16.471  0.00  0.00    +0.000 C 
ENDBRANCH  19  28
ENDBRANCH   2  17
TORSDOF 6
ENDMDL
MODEL 5
REMARK VINA RESULT:      -7.8      2.720      3.819
REMARK  Name = 
REMARK  7 active torsions:
REMARK  status: ('A' for Active; 'I' for Inactive)
REMARK    1  A    between atoms: C_1  and  O_2
REMARK    2  A    between atoms: O_2  and  C_3
REMARK    3  A    between atoms: C_3  and  C_5
REMARK    4  A    between atoms: C_7  and  N_8
REMARK    5  A    between atoms: C_9  and  C_11
REMARK    6  A    between atoms: C_13  and  C_14
REMARK    7  A    between atoms: N_18  and  C_19
REMARK                            x       y       z     vdW  Elec       q    Type
REMARK                         _______ _______ _______ _____ _____    ______ ____
ROOT
ATOM      1  N   UNL     1       1.610   8.967  17.799  0.00  0.00    +0.000 N 
ATOM      2  C   UNL     1       2.127   7.998  18.646  0.00  0.00    +0.000 C 
ATOM      3  O   UNL     1       1.724   7.841  19.794  0.00  0.00    +0.000 OA
ATOM      4  H   UNL     1       2.068   9.124  16.907  0.00  0.00    +0.000 HD
ENDROOT
BRANCH   1   7
ATOM      5  C   UNL     1      -1.859  10.440  17.955  0.00  0.00    +0.000 A 
ATOM      6  C   UNL     1      -0.802   9.573  17.629  0.00  0.00    +0.000 A 
ATOM      7  C   UNL     1       0.501   9.813  18.091  0.00  0.00    +0.000 A 
ATOM      8  C   UNL     1       0.717  10.961  18.865  0.00  0.00    +0.000 A 
ATOM      9  F   UNL     1       1.954  11.233  19.312  0.00  0.00    +0.000 F 
ATOM     10  C   UNL     1      -0.320  11.829  19.198  0.00  0.00    +0.000 A 
ATOM     11  C   UNL     1      -1.608  11.563  18.738  0.00  0.00    +0.000 A 
ATOM     12  F   UNL     1      -2.593  12.399  19.089  0.00  0.00    +0.000 F 
BRANCH   5  13
ATOM     13  C   UNL     1      -3.224  10.207  17.440  0.00  0.00    +0.000 C 
ATOM     14  O   UNL     1      -3.966   9.329  17.849  0.00  0.00    +0.000 OA
BRANCH  13  16
ATOM     15  C   UNL     1      -3.228  10.626  15.143  0.00  0.00    +0.000 C 
ATOM     16  O   UNL     1      -3.515  11.101  16.461  0.00  0.00    +0.000 OA
ENDBRANCH  13  16
ENDBRANCH   5  13
ENDBRANCH   1   7
BRANCH   2  17
ATOM     17  C   UNL     1       3.191   7.170  18.129  0.00  0.00    +0.000 A 
ATOM     18  C   UNL     1       4.268   7.468  17.306  0.00  0.00    +0.000 A 
ATOM     19  C   UNL     1       5.121   6.352  17.407  0.00  0.00    +0.000 A 
ATOM     20  N   UNL     1       4.640   5.422  18.226  0.00  0.00    +0.000 NA
ATOM     21  N   UNL     1       3.393   5.852  18.541  0.00  0.00    +0.000 N 
BRANCH  21  22
ATOM     22  C   UNL     1       2.486   4.948  19.172  0.00  0.00    +0.000 A 
ATOM     23  C   UNL     1       1.574   4.231  18.384  0.00  0.00    +0.000 A 
ATOM     24  C   UNL     1       0.720   3.297  18.975  0.00  0.00    +0.000 A 
ATOM     25  C   UNL     1       0.748   3.097  20.354  0.00  0.00    +0.000 A 
ATOM     26  C   UNL     1       1.615   3.845  21.149  0.00  0.00    +0.000 A 
ATOM     27  C   UNL     1       2.479   4.773  20.562  0.00  0.00    +0.000 A 
ENDBRANCH  21  22
BRANCH  19  28
ATOM     28  C   UNL     1       6.451   6.120  16.709  0.00  0.00    +0.000 C 
ATOM     29  C   UNL     1       7.461   5.101  17.184  0.00  0.00    +0.000 C 
ATOM     30  C   UNL     1       7.708   6.548  17.441  0.00  0.00    +0.000 C 
ENDBRANCH  19  28
ENDBRANCH   2  17
TORSDOF 6
ENDMDL
MODEL 6
REMARK VINA RESULT:      -7.7      2.489      3.174
REMARK  Name = 
REMARK  7 active torsions:
REMARK  status: ('A' for Active; 'I' for Inactive)
REMARK    1  A    between atoms: C_1  and  O_2
REMARK    2  A    between atoms: O_2  and  C_3
REMARK    3  A    between atoms: C_3  and  C_5
REMARK    4  A    between atoms: C_7  and  N_8
REMARK    5  A    between atoms: C_9  and  C_11
REMARK    6  A    between atoms: C_13  and  C_14
REMARK    7  A    between atoms: N_18  and  C_19
REMARK                            x       y       z     vdW  Elec       q    Type
REMARK                         _______ _______ _______ _____ _____    ______ ____
ROOT
ATOM      1  N   UNL     1       2.091   8.272  19.550  0.00  0.00    +0.000 N 
ATOM      2  C   UNL     1       2.248   7.776  18.264  0.00  0.00    +0.000 C 
ATOM      3  O   UNL     1       1.449   8.012  17.364  0.00  0.00    +0.000 OA
ATOM      4  H   UNL     1       2.720   7.942  20.276  0.00  0.00    +0.000 HD
ENDROOT
BRANCH   1   7
ATOM      5  C   UNL     1      -0.597  10.918  19.558  0.00  0.00    +0.000 A 
ATOM      6  C   UNL     1       0.398  10.042  19.090  0.00  0.00    +0.000 A 
ATOM      7  C   UNL     1       1.080   9.184  19.966  0.00  0.00    +0.000 A 
ATOM      8  C   UNL     1       0.753   9.250  21.328  0.00  0.00    +0.000 A 
ATOM      9  F   UNL     1       1.395   8.456  22.200  0.00  0.00    +0.000 F 
ATOM     10  C   UNL     1      -0.231  10.111  21.807  0.00  0.00    +0.000 A 
ATOM     11  C   UNL     1      -0.903  10.945  20.915  0.00  0.00    +0.000 A 
ATOM     12  F   UNL     1      -1.861  11.748  21.395  0.00  0.00    +0.000 F 
BRANCH   5  13
ATOM     13  C   UNL     1      -1.290  11.846  18.640  0.00  0.00    +0.000 C 
ATOM     14  O   UNL     1      -0.817  12.904  18.256  0.00  0.00    +0.000 OA
BRANCH  13  16
ATOM     15  C   UNL     1      -2.698  11.203  16.893  0.00  0.00    +0.000 C 
ATOM     16  O   UNL     1      -2.507  11.351  18.303  0.00  0.00    +0.000 OA
ENDBRANCH  13  16
ENDBRANCH   5  13
ENDBRANCH   1   7
BRANCH   2  17
ATOM     17  C   UNL     1       3.399   6.941  18.015  0.00  0.00    +0.000 A 
ATOM     18  C   UNL     1       4.618   7.214  17.411  0.00  0.00    +0.000 A 
ATOM     19  C   UNL     1       5.440   6.119  17.740  0.00  0.00    +0.000 A 
ATOM     20  N   UNL     1       4.810   5.225  18.494  0.00  0.00    +0.000 NA
ATOM     21  N   UNL     1       3.522   5.649  18.530  0.00  0.00    +0.000 N 
BRANCH  21  22
ATOM     22  C   UNL     1       2.513   4.763  19.014  0.00  0.00    +0.000 A 
ATOM     23  C   UNL     1       1.845   3.926  18.108  0.00  0.00    +0.000 A 
ATOM     24  C   UNL     1       0.898   3.009  18.571  0.00  0.00    +0.000 A 
ATOM     25  C   UNL     1       0.588   2.946  19.928  0.00  0.00    +0.000 A 
ATOM     26  C   UNL     1       1.208   3.814  20.825  0.00  0.00    +0.000 A 
ATOM     27  C   UNL     1       2.165   4.725  20.371  0.00  0.00    +0.000 A 
ENDBRANCH  21  22
BRANCH  19  28
ATOM     28  C   UNL     1       6.884   5.873  17.336  0.00  0.00    +0.000 C 
ATOM     29  C   UNL     1       7.678   4.677  17.808  0.00  0.00    +0.000 C 
ATOM     30  C   UNL     1       7.944   6.013  18.412  0.00  0.00    +0.000 C 
ENDBRANCH  19  28
ENDBRANCH   2  17
TORSDOF 6
ENDMDL
MODEL 7
REMARK VINA RESULT:      -7.6      2.484      3.238
REMARK  Name = 
REMARK  7 active torsions:
REMARK  status: ('A' for Active; 'I' for Inactive)
REMARK    1  A    between atoms: C_1  and  O_2
REMARK    2  A    between atoms: O_2  and  C_3
REMARK    3  A    between atoms: C_3  and  C_5
REMARK    4  A    between atoms: C_7  and  N_8
REMARK    5  A    between atoms: C_9  and  C_11
REMARK    6  A    between atoms: C_13  and  C_14
REMARK    7  A    between atoms: N_18  and  C_19
REMARK                            x       y       z     vdW  Elec       q    Type
REMARK                         _______ _______ _______ _____ _____    ______ ____
ROOT
ATOM      1  N   UNL     1       2.108   8.284  19.555  0.00  0.00    +0.000 N 
ATOM      2  C   UNL     1       2.275   7.792  18.269  0.00  0.00    +0.000 C 
ATOM      3  O   UNL     1       1.487   8.036  17.361  0.00  0.00    +0.000 OA
ATOM      4  H   UNL     1       2.727   7.947  20.286  0.00  0.00    +0.000 HD
ENDROOT
BRANCH   1   7
ATOM      5  C   UNL     1      -0.501  11.008  19.560  0.00  0.00    +0.000 A 
ATOM      6  C   UNL     1       0.495  10.130  19.101  0.00  0.00    +0.000 A 
ATOM      7  C   UNL     1       1.099   9.202  19.964  0.00  0.00    +0.000 A 
ATOM      8  C   UNL     1       0.693   9.201  21.305  0.00  0.00    +0.000 A 
ATOM      9  F   UNL     1       1.259   8.340  22.166  0.00  0.00    +0.000 F 
ATOM     10  C   UNL     1      -0.294  10.065  21.776  0.00  0.00    +0.000 A 
ATOM     11  C   UNL     1      -0.887  10.968  20.896  0.00  0.00    +0.000 A 
ATOM     12  F   UNL     1      -1.850  11.772  21.365  0.00  0.00    +0.000 F 
BRANCH   5  13
ATOM     13  C   UNL     1      -1.111  12.008  18.659  0.00  0.00    +0.000 C 
ATOM     14  O   UNL     1      -2.278  11.982  18.303  0.00  0.00    +0.000 OA
BRANCH  13  16
ATOM     15  C   UNL     1      -0.342  14.191  18.966  0.00  0.00    +0.000 C 
ATOM     16  O   UNL     1      -0.191  12.936  18.297  0.00  0.00    +0.000 OA
ENDBRANCH  13  16
ENDBRANCH   5  13
ENDBRANCH   1   7
BRANCH   2  17
ATOM     17  C   UNL     1       3.422   6.949  18.029  0.00  0.00    +0.000 A 
ATOM     18  C   UNL     1       4.644   7.211  17.426  0.00  0.00    +0.000 A 
ATOM     19  C   UNL     1       5.459   6.114  17.765  0.00  0.00    +0.000 A 
ATOM     20  N   UNL     1       4.823   5.229  18.525  0.00  0.00    +0.000 NA
ATOM     21  N   UNL     1       3.537   5.660  18.554  0.00  0.00    +0.000 N 
BRANCH  21  22
ATOM     22  C   UNL     1       2.522   4.783  19.042  0.00  0.00    +0.000 A 
ATOM     23  C   UNL     1       1.821   3.974  18.135  0.00  0.00    +0.000 A 
ATOM     24  C   UNL     1       0.867   3.066  18.600  0.00  0.00    +0.000 A 
ATOM     25  C   UNL     1       0.583   2.984  19.962  0.00  0.00    +0.000 A 
ATOM     26  C   UNL     1       1.237   3.823  20.862  0.00  0.00    +0.000 A 
ATOM     27  C   UNL     1       2.201   4.726  20.404  0.00  0.00    +0.000 A 
ENDBRANCH  21  22
BRANCH  19  28
ATOM     28  C   UNL     1       6.903   5.858  17.366  0.00  0.00    +0.000 C 
ATOM     29  C   UNL     1       7.733   4.740  17.956  0.00  0.00    +0.000 C 
ATOM     30  C   UNL     1       7.974   6.142  18.401  0.00  0.00    +0.000 C 
ENDBRANCH  19  28
ENDBRANCH   2  17
TORSDOF 6
ENDMDL
MODEL 8
REMARK VINA RESULT:      -7.4      2.413      3.068
REMARK  Name = 
REMARK  7 active torsions:
REMARK  status: ('A' for Active; 'I' for Inactive)
REMARK    1  A    between atoms: C_1  and  O_2
REMARK    2  A    between atoms: O_2  and  C_3
REMARK    3  A    between atoms: C_3  and  C_5
REMARK    4  A    between atoms: C_7  and  N_8
REMARK    5  A    between atoms: C_9  and  C_11
REMARK    6  A    between atoms: C_13  and  C_14
REMARK    7  A    between atoms: N_18  and  C_19
REMARK                            x       y       z     vdW  Elec       q    Type
REMARK                         _______ _______ _______ _____ _____    ______ ____
ROOT
ATOM      1  N   UNL     1       2.190   8.243  19.522  0.00  0.00    +0.000 N 
ATOM      2  C   UNL     1       2.244   7.634  18.277  0.00  0.00    +0.000 C 
ATOM      3  O   UNL     1       1.360   7.767  17.437  0.00  0.00    +0.000 OA
ATOM      4  H   UNL     1       2.892   7.995  20.213  0.00  0.00    +0.000 HD
ENDROOT
BRANCH   1   7
ATOM      5  C   UNL     1      -0.190  11.166  19.664  0.00  0.00    +0.000 A 
ATOM      6  C   UNL     1       0.804  10.290  19.197  0.00  0.00    +0.000 A 
ATOM      7  C   UNL     1       1.194   9.169  19.946  0.00  0.00    +0.000 A 
ATOM      8  C   UNL     1       0.576   8.968  21.188  0.00  0.00    +0.000 A 
ATOM      9  F   UNL     1       0.933   7.915  21.942  0.00  0.00    +0.000 F 
ATOM     10  C   UNL     1      -0.413   9.827  21.664  0.00  0.00    +0.000 A 
ATOM     11  C   UNL     1      -0.791  10.926  20.896  0.00  0.00    +0.000 A 
ATOM     12  F   UNL     1      -1.759  11.724  21.363  0.00  0.00    +0.000 F 
BRANCH   5  13
ATOM     13  C   UNL     1      -0.575  12.365  18.891  0.00  0.00    +0.000 C 
ATOM     14  O   UNL     1      -1.318  12.343  17.923  0.00  0.00    +0.000 OA
BRANCH  13  16
ATOM     15  C   UNL     1       1.165  13.908  18.685  0.00  0.00    +0.000 C 
ATOM     16  O   UNL     1       0.016  13.469  19.414  0.00  0.00    +0.000 OA
ENDBRANCH  13  16
ENDBRANCH   5  13
ENDBRANCH   1   7
BRANCH   2  17
ATOM     17  C   UNL     1       3.392   6.803  18.000  0.00  0.00    +0.000 A 
ATOM     18  C   UNL     1       4.599   7.085  17.375  0.00  0.00    +0.000 A 
ATOM     19  C   UNL     1       5.429   5.988  17.678  0.00  0.00    +0.000 A 
ATOM     20  N   UNL     1       4.815   5.085  18.436  0.00  0.00    +0.000 NA
ATOM     21  N   UNL     1       3.527   5.506  18.499  0.00  0.00    +0.000 N 
BRANCH  21  22
ATOM     22  C   UNL     1       2.529   4.614  18.993  0.00  0.00    +0.000 A 
ATOM     23  C   UNL     1       2.295   4.545  20.375  0.00  0.00    +0.000 A 
ATOM     24  C   UNL     1       1.281   3.723  20.872  0.00  0.00    +0.000 A 
ATOM     25  C   UNL     1       0.520   2.944  20.003  0.00  0.00    +0.000 A 
ATOM     26  C   UNL     1       0.785   2.967  18.635  0.00  0.00    +0.000 A 
ATOM     27  C   UNL     1       1.790   3.796  18.129  0.00  0.00    +0.000 A 
ENDBRANCH  21  22
BRANCH  19  28
ATOM     28  C   UNL     1       6.866   5.749  17.245  0.00  0.00    +0.000 C 
ATOM     29  C   UNL     1       7.730   4.656  17.830  0.00  0.00    +0.000 C 
ATOM     30  C   UNL     1       7.959   6.068  18.247  0.00  0.00    +0.000 C 
ENDBRANCH  19  28
ENDBRANCH   2  17
TORSDOF 6
ENDMDL
MODEL 9
REMARK VINA RESULT:      -7.4      2.149      2.884
REMARK  Name = 
REMARK  7 active torsions:
REMARK  status: ('A' for Active; 'I' for Inactive)
REMARK    1  A    between atoms: C_1  and  O_2
REMARK    2  A    between atoms: O_2  and  C_3
REMARK    3  A    between atoms: C_3  and  C_5
REMARK    4  A    between atoms: C_7  and  N_8
REMARK    5  A    between atoms: C_9  and  C_11
REMARK    6  A    between atoms: C_13  and  C_14
REMARK    7  A    between atoms: N_18  and  C_19
REMARK                            x       y       z     vdW  Elec       q    Type
REMARK                         _______ _______ _______ _____ _____    ______ ____
ROOT
ATOM      1  N   UNL     1       2.219   7.971  19.740  0.00  0.00    +0.000 N 
ATOM      2  C   UNL     1       2.326   7.787  18.369  0.00  0.00    +0.000 C 
ATOM      3  O   UNL     1       1.552   8.306  17.570  0.00  0.00    +0.000 OA
ATOM      4  H   UNL     1       2.814   7.419  20.350  0.00  0.00    +0.000 HD
ENDROOT
BRANCH   1   7
ATOM      5  C   UNL     1       0.339  11.049  20.845  0.00  0.00    +0.000 A 
ATOM      6  C   UNL     1       1.274  10.235  20.183  0.00  0.00    +0.000 A 
ATOM      7  C   UNL     1       1.300   8.847  20.386  0.00  0.00    +0.000 A 
ATOM      8  C   UNL     1       0.379   8.304  21.293  0.00  0.00    +0.000 A 
ATOM      9  F   UNL     1       0.384   6.981  21.527  0.00  0.00    +0.000 F 
ATOM     10  C   UNL     1      -0.555   9.097  21.956  0.00  0.00    +0.000 A 
ATOM     11  C   UNL     1      -0.568  10.471  21.728  0.00  0.00    +0.000 A 
ATOM     12  F   UNL     1      -1.490  11.210  22.359  0.00  0.00    +0.000 F 
BRANCH   5  13
ATOM     13  C   UNL     1       0.335  12.514  20.658  0.00  0.00    +0.000 C 
ATOM     14  O   UNL     1      -0.233  13.082  19.739  0.00  0.00    +0.000 OA
BRANCH  13  16
ATOM     15  C   UNL     1       1.643  14.355  21.252  0.00  0.00    +0.000 C 
ATOM     16  O   UNL     1       1.047  13.115  21.644  0.00  0.00    +0.000 OA
ENDBRANCH  13  16
ENDBRANCH   5  13
ENDBRANCH   1   7
BRANCH   2  17
ATOM     17  C   UNL     1       3.391   6.932  17.900  0.00  0.00    +0.000 A 
ATOM     18  C   UNL     1       4.486   7.193  17.088  0.00  0.00    +0.000 A 
ATOM     19  C   UNL     1       5.326   6.072  17.242  0.00  0.00    +0.000 A 
ATOM     20  N   UNL     1       4.820   5.175  18.082  0.00  0.00    +0.000 NA
ATOM     21  N   UNL     1       3.572   5.627  18.359  0.00  0.00    +0.000 N 
BRANCH  21  22
ATOM     22  C   UNL     1       2.645   4.753  19.002  0.00  0.00    +0.000 A 
ATOM     23  C   UNL     1       2.645   4.663  20.402  0.00  0.00    +0.000 A 
ATOM     24  C   UNL     1       1.705   3.861  21.053  0.00  0.00    +0.000 A 
ATOM     25  C   UNL     1       0.786   3.119  20.313  0.00  0.00    +0.000 A 
ATOM     26  C   UNL     1       0.816   3.161  18.920  0.00  0.00    +0.000 A 
ATOM     27  C   UNL     1       1.746   3.971  18.264  0.00  0.00    +0.000 A 
ENDBRANCH  21  22
BRANCH  19  28
ATOM     28  C   UNL     1       6.666   5.804  16.577  0.00  0.00    +0.000 C 
ATOM     29  C   UNL     1       6.931   4.585  15.725  0.00  0.00    +0.000 C 
ATOM     30  C   UNL     1       7.487   4.644  17.106  0.00  0.00    +0.000 C 
ENDBRANCH  19  28
ENDBRANCH   2  17
TORSDOF 6
ENDMDL
