MODEL 1
REMARK VINA RESULT:      -8.1      0.000      0.000
REMARK  Name = 
REMARK  7 active torsions:
REMARK  status: ('A' for Active; 'I' for Inactive)
REMARK    1  A    between atoms: C_1  and  N_2
REMARK    2  A    between atoms: N_2  and  C_19
REMARK    3  A    between atoms: C_3  and  C_5
REMARK    4  A    between atoms: C_9  and  N_10
REMARK    5  A    between atoms: C_13  and  C_14
REMARK    6  A    between atoms: C_16  and  N_17
REMARK    7  A    between atoms: C_22  and  C_23
REMARK                            x       y       z     vdW  Elec       q    Type
REMARK                         _______ _______ _______ _____ _____    ______ ____
ROOT
ATOM      1  C   UNL     1      -0.179  11.395  18.719  0.00  0.00    +0.000 C 
ATOM      2  N   UNL     1       0.457  10.712  19.858  0.00  0.00    +0.000 N 
ATOM      3  C   UNL     1       0.395  11.168  21.193  0.00  0.00    +0.000 C 
ATOM      4  O   UNL     1       0.860  10.585  22.175  0.00  0.00    +0.000 OA
ENDROOT
BRANCH   3   5
ATOM      5  C   UNL     1      -0.261  12.454  21.538  0.00  0.00    +0.000 A 
ATOM      6  C   UNL     1       0.445  13.648  21.699  0.00  0.00    +0.000 A 
ATOM      7  C   UNL     1      -0.238  14.840  21.932  0.00  0.00    +0.000 A 
ATOM      8  C   UNL     1      -1.622  14.829  22.091  0.00  0.00    +0.000 A 
ATOM      9  C   UNL     1      -2.319  13.615  22.058  0.00  0.00    +0.000 A 
ATOM     10  C   UNL     1      -1.641  12.426  21.777  0.00  0.00    +0.000 A 
BRANCH   9  11
ATOM     11  N   UNL     1      -3.722  13.617  22.247  0.00  0.00    +0.000 N 
ATOM     12  N   UNL     1      -4.500  14.394  21.440  0.00  0.00    +0.000 NA
ATOM     13  C   UNL     1      -5.744  13.997  21.705  0.00  0.00    +0.000 A 
ATOM     14  C   UNL     1      -5.795  13.093  22.770  0.00  0.00    +0.000 A 
ATOM     15  C   UNL     1      -4.490  12.887  23.161  0.00  0.00    +0.000 A 
BRANCH  15  16
ATOM     16  N   UNL     1      -3.983  12.178  24.207  0.00  0.00    +0.000 N 
ATOM     17  H   UNL     1      -3.054  11.758  24.162  0.00  0.00    +0.000 HD
ATOM     18  H   UNL     1      -4.589  11.690  24.868  0.00  0.00    +0.000 HD
ENDBRANCH  15  16
BRANCH  14  19
ATOM     19  C   UNL     1      -6.961  12.542  23.358  0.00  0.00    +0.000 C 
ATOM     20  N   UNL     1      -7.917  12.102  23.837  0.00  0.00    +0.000 NA
ENDBRANCH  14  19
ENDBRANCH   9  11
ENDBRANCH   3   5
BRANCH   2  21
ATOM     21  C   UNL     1       1.122   9.468  19.529  0.00  0.00    +0.000 A 
ATOM     22  C   UNL     1       1.687   9.220  18.273  0.00  0.00    +0.000 A 
ATOM     23  C   UNL     1       2.304   7.998  17.971  0.00  0.00    +0.000 A 
ATOM     24  C   UNL     1       2.404   6.974  18.918  0.00  0.00    +0.000 A 
ATOM     25  C   UNL     1       1.863   7.232  20.184  0.00  0.00    +0.000 A 
ATOM     26  C   UNL     1       1.237   8.447  20.482  0.00  0.00    +0.000 A 
BRANCH  24  27
ATOM     27  C   UNL     1       3.059   5.685  18.616  0.00  0.00    +0.000 A 
ATOM     28  C   UNL     1       2.474   4.747  17.749  0.00  0.00    +0.000 A 
ATOM     29  C   UNL     1       3.116   3.545  17.442  0.00  0.00    +0.000 A 
ATOM     30  C   UNL     1       4.361   3.257  17.989  0.00  0.00    +0.000 A 
ATOM     31  C   UNL     1       4.958   4.160  18.859  0.00  0.00    +0.000 A 
ATOM     32  C   UNL     1       4.309   5.354  19.177  0.00  0.00    +0.000 A 
ENDBRANCH  24  27
ENDBRANCH   2  21
TORSDOF 6
ENDMDL
MODEL 2
REMARK VINA RESULT:      -8.1      0.684      1.109
REMARK  Name = 
REMARK  7 active torsions:
REMARK  status: ('A' for Active; 'I' for Inactive)
REMARK    1  A    between atoms: C_1  and  N_2
REMARK    2  A    between atoms: N_2  and  C_19
REMARK    3  A    between atoms: C_3  and  C_5
REMARK    4  A    between atoms: C_9  and  N_10
REMARK    5  A    between atoms: C_13  and  C_14
REMARK    6  A    between atoms: C_16  and  N_17
REMARK    7  A    between atoms: C_22  and  C_23
REMARK                            x       y       z     vdW  Elec       q    Type
REMARK                         _______ _______ _______ _____ _____    ______ ____
ROOT
ATOM      1  C   UNL     1       0.280  11.988  18.721  0.00  0.00    +0.000 C 
ATOM      2  N   UNL     1       0.622  11.046  19.800  0.00  0.00    +0.000 N 
ATOM      3  C   UNL     1       0.332  11.263  21.165  0.00  0.00    +0.000 C 
ATOM      4  O   UNL     1       0.546  10.467  22.081  0.00  0.00    +0.000 OA
ENDROOT
BRANCH   3   5
ATOM      5  C   UNL     1      -0.277  12.534  21.630  0.00  0.00    +0.000 A 
ATOM      6  C   UNL     1       0.470  13.687  21.886  0.00  0.00    +0.000 A 
ATOM      7  C   UNL     1      -0.171  14.875  22.231  0.00  0.00    +0.000 A 
ATOM      8  C   UNL     1      -1.553  14.894  22.408  0.00  0.00    +0.000 A 
ATOM      9  C   UNL     1      -2.290  13.710  22.279  0.00  0.00    +0.000 A 
ATOM     10  C   UNL     1      -1.655  12.530  21.886  0.00  0.00    +0.000 A 
BRANCH   9  11
ATOM     11  N   UNL     1      -3.690  13.741  22.487  0.00  0.00    +0.000 N 
ATOM     12  N   UNL     1      -4.446  14.639  21.792  0.00  0.00    +0.000 NA
ATOM     13  C   UNL     1      -5.701  14.258  22.025  0.00  0.00    +0.000 A 
ATOM     14  C   UNL     1      -5.776  13.233  22.972  0.00  0.00    +0.000 A 
ATOM     15  C   UNL     1      -4.476  12.933  23.317  0.00  0.00    +0.000 A 
BRANCH  15  16
ATOM     16  N   UNL     1      -3.986  12.083  24.261  0.00  0.00    +0.000 N 
ATOM     17  H   UNL     1      -3.719  11.127  24.025  0.00  0.00    +0.000 HD
ATOM     18  H   UNL     1      -4.233  12.176  25.247  0.00  0.00    +0.000 HD
ENDBRANCH  15  16
BRANCH  14  19
ATOM     19  C   UNL     1      -6.956  12.657  23.505  0.00  0.00    +0.000 C 
ATOM     20  N   UNL     1      -7.913  12.183  23.948  0.00  0.00    +0.000 NA
ENDBRANCH  14  19
ENDBRANCH   9  11
ENDBRANCH   3   5
BRANCH   2  21
ATOM     21  C   UNL     1       1.240   9.812  19.360  0.00  0.00    +0.000 A 
ATOM     22  C   UNL     1       1.422   8.712  20.205  0.00  0.00    +0.000 A 
ATOM     23  C   UNL     1       2.045   7.538  19.761  0.00  0.00    +0.000 A 
ATOM     24  C   UNL     1       2.495   7.399  18.444  0.00  0.00    +0.000 A 
ATOM     25  C   UNL     1       2.287   8.490  17.590  0.00  0.00    +0.000 A 
ATOM     26  C   UNL     1       1.676   9.667  18.036  0.00  0.00    +0.000 A 
BRANCH  24  27
ATOM     27  C   UNL     1       3.144   6.164  17.961  0.00  0.00    +0.000 A 
ATOM     28  C   UNL     1       2.505   4.914  18.047  0.00  0.00    +0.000 A 
ATOM     29  C   UNL     1       3.112   3.755  17.557  0.00  0.00    +0.000 A 
ATOM     30  C   UNL     1       4.368   3.820  16.964  0.00  0.00    +0.000 A 
ATOM     31  C   UNL     1       5.028   5.039  16.876  0.00  0.00    +0.000 A 
ATOM     32  C   UNL     1       4.427   6.194  17.380  0.00  0.00    +0.000 A 
ENDBRANCH  24  27
ENDBRANCH   2  21
TORSDOF 6
ENDMDL
MODEL 3
REMARK VINA RESULT:      -8.1      0.972      1.374
REMARK  Name = 
REMARK  7 active torsions:
REMARK  status: ('A' for Active; 'I' for Inactive)
REMARK    1  A    between atoms: C_1  and  N_2
REMARK    2  A    between atoms: N_2  and  C_19
REMARK    3  A    between atoms: C_3  and  C_5
REMARK    4  A    between atoms: C_9  and  N_10
REMARK    5  A    between atoms: C_13  and  C_14
REMARK    6  A    between atoms: C_16  and  N_17
REMARK    7  A    between atoms: C_22  and  C_23
REMARK                            x       y       z     vdW  Elec       q    Type
REMARK                         _______ _______ _______ _____ _____    ______ ____
ROOT
ATOM      1  C   UNL     1      -0.392  11.202  18.794  0.00  0.00    +0.000 C 
ATOM      2  N   UNL     1       0.536  10.596  19.764  0.00  0.00    +0.000 N 
ATOM      3  C   UNL     1       0.684  11.032  21.099  0.00  0.00    +0.000 C 
ATOM      4  O   UNL     1       1.402  10.506  21.952  0.00  0.00    +0.000 OA
ENDROOT
BRANCH   3   5
ATOM      5  C   UNL     1      -0.042  12.223  21.606  0.00  0.00    +0.000 A 
ATOM      6  C   UNL     1       0.442  13.526  21.465  0.00  0.00    +0.000 A 
ATOM      7  C   UNL     1      -0.331  14.609  21.879  0.00  0.00    +0.000 A 
ATOM      8  C   UNL     1      -1.551  14.391  22.515  0.00  0.00    +0.000 A 
ATOM      9  C   UNL     1      -1.980  13.082  22.774  0.00  0.00    +0.000 A 
ATOM     10  C   UNL     1      -1.229  11.997  22.316  0.00  0.00    +0.000 A 
BRANCH   9  11
ATOM     11  N   UNL     1      -3.209  12.877  23.443  0.00  0.00    +0.000 N 
ATOM     12  N   UNL     1      -3.231  12.866  24.807  0.00  0.00    +0.000 NA
ATOM     13  C   UNL     1      -4.527  12.895  25.114  0.00  0.00    +0.000 A 
ATOM     14  C   UNL     1      -5.341  12.772  23.984  0.00  0.00    +0.000 A 
ATOM     15  C   UNL     1      -4.489  12.702  22.903  0.00  0.00    +0.000 A 
BRANCH  15  16
ATOM     16  N   UNL     1      -4.751  12.483  21.585  0.00  0.00    +0.000 N 
ATOM     17  H   UNL     1      -4.557  13.195  20.881  0.00  0.00    +0.000 HD
ATOM     18  H   UNL     1      -5.486  11.841  21.284  0.00  0.00    +0.000 HD
ENDBRANCH  15  16
BRANCH  14  19
ATOM     19  C   UNL     1      -6.755  12.684  23.965  0.00  0.00    +0.000 C 
ATOM     20  N   UNL     1      -7.909  12.620  23.943  0.00  0.00    +0.000 NA
ENDBRANCH  14  19
ENDBRANCH   9  11
ENDBRANCH   3   5
BRANCH   2  21
ATOM     21  C   UNL     1       1.269   9.448  19.272  0.00  0.00    +0.000 A 
ATOM     22  C   UNL     1       1.808   9.388  17.983  0.00  0.00    +0.000 A 
ATOM     23  C   UNL     1       2.492   8.255  17.522  0.00  0.00    +0.000 A 
ATOM     24  C   UNL     1       2.690   7.136  18.337  0.00  0.00    +0.000 A 
ATOM     25  C   UNL     1       2.175   7.207  19.638  0.00  0.00    +0.000 A 
ATOM     26  C   UNL     1       1.481   8.333  20.094  0.00  0.00    +0.000 A 
BRANCH  24  27
ATOM     27  C   UNL     1       3.417   5.940  17.868  0.00  0.00    +0.000 A 
ATOM     28  C   UNL     1       2.786   4.689  17.761  0.00  0.00    +0.000 A 
ATOM     29  C   UNL     1       3.471   3.569  17.284  0.00  0.00    +0.000 A 
ATOM     30  C   UNL     1       4.802   3.677  16.895  0.00  0.00    +0.000 A 
ATOM     31  C   UNL     1       5.455   4.898  17.000  0.00  0.00    +0.000 A 
ATOM     32  C   UNL     1       4.773   6.013  17.492  0.00  0.00    +0.000 A 
ENDBRANCH  24  27
ENDBRANCH   2  21
TORSDOF 6
ENDMDL
MODEL 4
REMARK VINA RESULT:      -7.9      1.195      1.456
REMARK  Name = 
REMARK  7 active torsions:
REMARK  status: ('A' for Active; 'I' for Inactive)
REMARK    1  A    between atoms: C_1  and  N_2
REMARK    2  A    between atoms: N_2  and  C_19
REMARK    3  A    between atoms: C_3  and  C_5
REMARK    4  A    between atoms: C_9  and  N_10
REMARK    5  A    between atoms: C_13  and  C_14
REMARK    6  A    between atoms: C_16  and  N_17
REMARK    7  A    between atoms: C_22  and  C_23
REMARK                            x       y       z     vdW  Elec       q    Type
REMARK                         _______ _______ _______ _____ _____    ______ ____
ROOT
ATOM      1  C   UNL     1      -1.310  10.712  18.776  0.00  0.00    +0.000 C 
ATOM      2  N   UNL     1      -0.000  10.796  19.443  0.00  0.00    +0.000 N 
ATOM      3  C   UNL     1       0.379  11.835  20.321  0.00  0.00    +0.000 C 
ATOM      4  O   UNL     1       1.441  11.899  20.944  0.00  0.00    +0.000 OA
ENDROOT
BRANCH   3   5
ATOM      5  C   UNL     1      -0.513  12.995  20.572  0.00  0.00    +0.000 A 
ATOM      6  C   UNL     1      -0.326  14.241  19.970  0.00  0.00    +0.000 A 
ATOM      7  C   UNL     1      -1.250  15.263  20.174  0.00  0.00    +0.000 A 
ATOM      8  C   UNL     1      -2.317  15.072  21.049  0.00  0.00    +0.000 A 
ATOM      9  C   UNL     1      -2.436  13.867  21.753  0.00  0.00    +0.000 A 
ATOM     10  C   UNL     1      -1.537  12.826  21.513  0.00  0.00    +0.000 A 
BRANCH   9  11
ATOM     11  N   UNL     1      -3.511  13.698  22.658  0.00  0.00    +0.000 N 
ATOM     12  N   UNL     1      -3.423  14.241  23.906  0.00  0.00    +0.000 NA
ATOM     13  C   UNL     1      -4.652  14.117  24.404  0.00  0.00    +0.000 A 
ATOM     14  C   UNL     1      -5.489  13.372  23.568  0.00  0.00    +0.000 A 
ATOM     15  C   UNL     1      -4.736  13.050  22.460  0.00  0.00    +0.000 A 
BRANCH  15  16
ATOM     16  N   UNL     1      -5.032  12.260  21.391  0.00  0.00    +0.000 N 
ATOM     17  H   UNL     1      -5.762  12.520  20.728  0.00  0.00    +0.000 HD
ATOM     18  H   UNL     1      -4.875  11.252  21.410  0.00  0.00    +0.000 HD
ENDBRANCH  15  16
BRANCH  14  19
ATOM     19  C   UNL     1      -6.826  12.986  23.835  0.00  0.00    +0.000 C 
ATOM     20  N   UNL     1      -7.914  12.660  24.051  0.00  0.00    +0.000 NA
ENDBRANCH  14  19
ENDBRANCH   9  11
ENDBRANCH   3   5
BRANCH   2  21
ATOM     21  C   UNL     1       0.888   9.681  19.185  0.00  0.00    +0.000 A 
ATOM     22  C   UNL     1       1.525   9.488  17.955  0.00  0.00    +0.000 A 
ATOM     23  C   UNL     1       2.361   8.387  17.723  0.00  0.00    +0.000 A 
ATOM     24  C   UNL     1       2.617   7.439  18.718  0.00  0.00    +0.000 A 
ATOM     25  C   UNL     1       2.001   7.647  19.959  0.00  0.00    +0.000 A 
ATOM     26  C   UNL     1       1.158   8.739  20.187  0.00  0.00    +0.000 A 
BRANCH  24  27
ATOM     27  C   UNL     1       3.503   6.279  18.489  0.00  0.00    +0.000 A 
ATOM     28  C   UNL     1       4.401   6.240  17.409  0.00  0.00    +0.000 A 
ATOM     29  C   UNL     1       5.259   5.155  17.218  0.00  0.00    +0.000 A 
ATOM     30  C   UNL     1       5.246   4.087  18.109  0.00  0.00    +0.000 A 
ATOM     31  C   UNL     1       4.361   4.093  19.180  0.00  0.00    +0.000 A 
ATOM     32  C   UNL     1       3.492   5.172  19.360  0.00  0.00    +0.000 A 
ENDBRANCH  24  27
ENDBRANCH   2  21
TORSDOF 6
ENDMDL
MODEL 5
REMARK VINA RESULT:      -7.9      0.813      1.145
REMARK  Name = 
REMARK  7 active torsions:
REMARK  status: ('A' for Active; 'I' for Inactive)
REMARK    1  A    between atoms: C_1  and  N_2
REMARK    2  A    between atoms: N_2  and  C_19
REMARK    3  A    between atoms: C_3  and  C_5
REMARK    4  A    between atoms: C_9  and  N_10
REMARK    5  A    between atoms: C_13  and  C_14
REMARK    6  A    between atoms: C_16  and  N_17
REMARK    7  A    between atoms: C_22  and  C_23
REMARK                            x       y       z     vdW  Elec       q    Type
REMARK                         _______ _______ _______ _____ _____    ______ ____
ROOT
ATOM      1  C   UNL     1      -0.496  11.313  18.627  0.00  0.00    +0.000 C 
ATOM      2  N   UNL     1       0.364  10.724  19.666  0.00  0.00    +0.000 N 
ATOM      3  C   UNL     1       0.443  11.196  20.994  0.00  0.00    +0.000 C 
ATOM      4  O   UNL     1       1.102  10.685  21.902  0.00  0.00    +0.000 OA
ENDROOT
BRANCH   3   5
ATOM      5  C   UNL     1      -0.292  12.412  21.423  0.00  0.00    +0.000 A 
ATOM      6  C   UNL     1       0.337  13.637  21.660  0.00  0.00    +0.000 A 
ATOM      7  C   UNL     1      -0.420  14.764  21.971  0.00  0.00    +0.000 A 
ATOM      8  C   UNL     1      -1.799  14.654  22.133  0.00  0.00    +0.000 A 
ATOM      9  C   UNL     1      -2.417  13.401  22.023  0.00  0.00    +0.000 A 
ATOM     10  C   UNL     1      -1.666  12.280  21.664  0.00  0.00    +0.000 A 
BRANCH   9  11
ATOM     11  N   UNL     1      -3.816  13.301  22.216  0.00  0.00    +0.000 N 
ATOM     12  N   UNL     1      -4.584  12.743  21.237  0.00  0.00    +0.000 NA
ATOM     13  C   UNL     1      -5.776  12.580  21.809  0.00  0.00    +0.000 A 
ATOM     14  C   UNL     1      -5.835  13.157  23.081  0.00  0.00    +0.000 A 
ATOM     15  C   UNL     1      -4.582  13.676  23.326  0.00  0.00    +0.000 A 
BRANCH  15  16
ATOM     16  N   UNL     1      -4.124  14.422  24.368  0.00  0.00    +0.000 N 
ATOM     17  H   UNL     1      -3.354  15.081  24.250  0.00  0.00    +0.000 HD
ATOM     18  H   UNL     1      -4.205  14.101  25.334  0.00  0.00    +0.000 HD
ENDBRANCH  15  16
BRANCH  14  19
ATOM     19  C   UNL     1      -6.972  13.236  23.923  0.00  0.00    +0.000 C 
ATOM     20  N   UNL     1      -7.899  13.290  24.612  0.00  0.00    +0.000 NA
ENDBRANCH  14  19
ENDBRANCH   9  11
ENDBRANCH   3   5
BRANCH   2  21
ATOM     21  C   UNL     1       1.106   9.550  19.250  0.00  0.00    +0.000 A 
ATOM     22  C   UNL     1       1.668   9.422  17.976  0.00  0.00    +0.000 A 
ATOM     23  C   UNL     1       2.361   8.266  17.590  0.00  0.00    +0.000 A 
ATOM     24  C   UNL     1       2.543   7.193  18.468  0.00  0.00    +0.000 A 
ATOM     25  C   UNL     1       2.004   7.333  19.753  0.00  0.00    +0.000 A 
ATOM     26  C   UNL     1       1.303   8.482  20.135  0.00  0.00    +0.000 A 
BRANCH  24  27
ATOM     27  C   UNL     1       3.278   5.973  18.077  0.00  0.00    +0.000 A 
ATOM     28  C   UNL     1       4.679   5.963  17.961  0.00  0.00    +0.000 A 
ATOM     29  C   UNL     1       5.370   4.797  17.624  0.00  0.00    +0.000 A 
ATOM     30  C   UNL     1       4.677   3.612  17.402  0.00  0.00    +0.000 A 
ATOM     31  C   UNL     1       3.292   3.595  17.497  0.00  0.00    +0.000 A 
ATOM     32  C   UNL     1       2.601   4.765  17.820  0.00  0.00    +0.000 A 
ENDBRANCH  24  27
ENDBRANCH   2  21
TORSDOF 6
ENDMDL
MODEL 6
REMARK VINA RESULT:      -7.9      1.206      1.719
REMARK  Name = 
REMARK  7 active torsions:
REMARK  status: ('A' for Active; 'I' for Inactive)
REMARK    1  A    between atoms: C_1  and  N_2
REMARK    2  A    between atoms: N_2  and  C_19
REMARK    3  A    between atoms: C_3  and  C_5
REMARK    4  A    between atoms: C_9  and  N_10
REMARK    5  A    between atoms: C_13  and  C_14
REMARK    6  A    between atoms: C_16  and  N_17
REMARK    7  A    between atoms: C_22  and  C_23
REMARK                            x       y       z     vdW  Elec       q    Type
REMARK                         _______ _______ _______ _____ _____    ______ ____
ROOT
ATOM      1  C   UNL     1      -1.061  11.097  18.387  0.00  0.00    +0.000 C 
ATOM      2  N   UNL     1       0.038  10.961  19.356  0.00  0.00    +0.000 N 
ATOM      3  C   UNL     1       0.263  11.847  20.432  0.00  0.00    +0.000 C 
ATOM      4  O   UNL     1       1.133  11.724  21.297  0.00  0.00    +0.000 OA
ENDROOT
BRANCH   3   5
ATOM      5  C   UNL     1      -0.568  13.064  20.613  0.00  0.00    +0.000 A 
ATOM      6  C   UNL     1      -0.314  14.264  19.945  0.00  0.00    +0.000 A 
ATOM      7  C   UNL     1      -1.185  15.342  20.087  0.00  0.00    +0.000 A 
ATOM      8  C   UNL     1      -2.263  15.255  20.965  0.00  0.00    +0.000 A 
ATOM      9  C   UNL     1      -2.446  14.099  21.734  0.00  0.00    +0.000 A 
ATOM     10  C   UNL     1      -1.603  13.000  21.556  0.00  0.00    +0.000 A 
BRANCH   9  11
ATOM     11  N   UNL     1      -3.532  14.036  22.640  0.00  0.00    +0.000 N 
ATOM     12  N   UNL     1      -3.499  14.797  23.771  0.00  0.00    +0.000 NA
ATOM     13  C   UNL     1      -4.731  14.697  24.268  0.00  0.00    +0.000 A 
ATOM     14  C   UNL     1      -5.511  13.772  23.568  0.00  0.00    +0.000 A 
ATOM     15  C   UNL     1      -4.718  13.298  22.545  0.00  0.00    +0.000 A 
BRANCH  15  16
ATOM     16  N   UNL     1      -4.949  12.316  21.631  0.00  0.00    +0.000 N 
ATOM     17  H   UNL     1      -5.241  11.382  21.920  0.00  0.00    +0.000 HD
ATOM     18  H   UNL     1      -4.479  12.305  20.725  0.00  0.00    +0.000 HD
ENDBRANCH  15  16
BRANCH  14  19
ATOM     19  C   UNL     1      -6.832  13.368  23.882  0.00  0.00    +0.000 C 
ATOM     20  N   UNL     1      -7.914  13.043  24.130  0.00  0.00    +0.000 NA
ENDBRANCH  14  19
ENDBRANCH   9  11
ENDBRANCH   3   5
BRANCH   2  21
ATOM     21  C   UNL     1       0.871   9.789  19.174  0.00  0.00    +0.000 A 
ATOM     22  C   UNL     1       1.072   8.839  20.181  0.00  0.00    +0.000 A 
ATOM     23  C   UNL     1       1.903   7.726  19.987  0.00  0.00    +0.000 A 
ATOM     24  C   UNL     1       2.553   7.499  18.770  0.00  0.00    +0.000 A 
ATOM     25  C   UNL     1       2.329   8.436  17.754  0.00  0.00    +0.000 A 
ATOM     26  C   UNL     1       1.510   9.553  17.950  0.00  0.00    +0.000 A 
BRANCH  24  27
ATOM     27  C   UNL     1       3.423   6.326  18.551  0.00  0.00    +0.000 A 
ATOM     28  C   UNL     1       3.666   5.389  19.569  0.00  0.00    +0.000 A 
ATOM     29  C   UNL     1       4.464   4.264  19.344  0.00  0.00    +0.000 A 
ATOM     30  C   UNL     1       5.028   4.046  18.092  0.00  0.00    +0.000 A 
ATOM     31  C   UNL     1       4.814   4.962  17.070  0.00  0.00    +0.000 A 
ATOM     32  C   UNL     1       4.030   6.094  17.301  0.00  0.00    +0.000 A 
ENDBRANCH  24  27
ENDBRANCH   2  21
TORSDOF 6
ENDMDL
MODEL 7
REMARK VINA RESULT:      -7.9      1.455      2.068
REMARK  Name = 
REMARK  7 active torsions:
REMARK  status: ('A' for Active; 'I' for Inactive)
REMARK    1  A    between atoms: C_1  and  N_2
REMARK    2  A    between atoms: N_2  and  C_19
REMARK    3  A    between atoms: C_3  and  C_5
REMARK    4  A    between atoms: C_9  and  N_10
REMARK    5  A    between atoms: C_13  and  C_14
REMARK    6  A    between atoms: C_16  and  N_17
REMARK    7  A    between atoms: C_22  and  C_23
REMARK                            x       y       z     vdW  Elec       q    Type
REMARK                         _______ _______ _______ _____ _____    ______ ____
ROOT
ATOM      1  C   UNL     1       1.251  10.891  21.392  0.00  0.00    +0.000 C 
ATOM      2  N   UNL     1       0.778  10.484  20.058  0.00  0.00    +0.000 N 
ATOM      3  C   UNL     1      -0.199  11.182  19.315  0.00  0.00    +0.000 C 
ATOM      4  O   UNL     1      -0.567  10.904  18.172  0.00  0.00    +0.000 OA
ENDROOT
BRANCH   3   5
ATOM      5  C   UNL     1      -0.902  12.360  19.882  0.00  0.00    +0.000 A 
ATOM      6  C   UNL     1      -0.612  13.673  19.505  0.00  0.00    +0.000 A 
ATOM      7  C   UNL     1      -1.371  14.729  20.005  0.00  0.00    +0.000 A 
ATOM      8  C   UNL     1      -2.365  14.486  20.950  0.00  0.00    +0.000 A 
ATOM      9  C   UNL     1      -2.572  13.185  21.427  0.00  0.00    +0.000 A 
ATOM     10  C   UNL     1      -1.845  12.120  20.891  0.00  0.00    +0.000 A 
BRANCH   9  11
ATOM     11  N   UNL     1      -3.569  12.958  22.406  0.00  0.00    +0.000 N 
ATOM     12  N   UNL     1      -3.192  12.662  23.682  0.00  0.00    +0.000 NA
ATOM     13  C   UNL     1      -4.321  12.746  24.384  0.00  0.00    +0.000 A 
ATOM     14  C   UNL     1      -5.439  12.938  23.567  0.00  0.00    +0.000 A 
ATOM     15  C   UNL     1      -4.961  13.020  22.277  0.00  0.00    +0.000 A 
BRANCH  15  16
ATOM     16  N   UNL     1      -5.628  13.108  21.093  0.00  0.00    +0.000 N 
ATOM     17  H   UNL     1      -6.431  12.512  20.892  0.00  0.00    +0.000 HD
ATOM     18  H   UNL     1      -5.166  13.424  20.240  0.00  0.00    +0.000 HD
ENDBRANCH  15  16
BRANCH  14  19
ATOM     19  C   UNL     1      -6.793  12.987  23.982  0.00  0.00    +0.000 C 
ATOM     20  N   UNL     1      -7.899  13.017  24.317  0.00  0.00    +0.000 NA
ENDBRANCH  14  19
ENDBRANCH   9  11
ENDBRANCH   3   5
BRANCH   2  21
ATOM     21  C   UNL     1       1.440   9.320  19.505  0.00  0.00    +0.000 A 
ATOM     22  C   UNL     1       1.629   8.140  20.231  0.00  0.00    +0.000 A 
ATOM     23  C   UNL     1       2.295   7.035  19.681  0.00  0.00    +0.000 A 
ATOM     24  C   UNL     1       2.783   7.052  18.371  0.00  0.00    +0.000 A 
ATOM     25  C   UNL     1       2.569   8.224  17.635  0.00  0.00    +0.000 A 
ATOM     26  C   UNL     1       1.915   9.330  18.187  0.00  0.00    +0.000 A 
BRANCH  24  27
ATOM     27  C   UNL     1       3.478   5.892  17.777  0.00  0.00    +0.000 A 
ATOM     28  C   UNL     1       3.083   4.573  18.059  0.00  0.00    +0.000 A 
ATOM     29  C   UNL     1       3.724   3.482  17.467  0.00  0.00    +0.000 A 
ATOM     30  C   UNL     1       4.769   3.685  16.572  0.00  0.00    +0.000 A 
ATOM     31  C   UNL     1       5.188   4.978  16.284  0.00  0.00    +0.000 A 
ATOM     32  C   UNL     1       4.557   6.067  16.888  0.00  0.00    +0.000 A 
ENDBRANCH  24  27
ENDBRANCH   2  21
TORSDOF 6
ENDMDL
MODEL 8
REMARK VINA RESULT:      -7.9      0.923      1.391
REMARK  Name = 
REMARK  7 active torsions:
REMARK  status: ('A' for Active; 'I' for Inactive)
REMARK    1  A    between atoms: C_1  and  N_2
REMARK    2  A    between atoms: N_2  and  C_19
REMARK    3  A    between atoms: C_3  and  C_5
REMARK    4  A    between atoms: C_9  and  N_10
REMARK    5  A    between atoms: C_13  and  C_14
REMARK    6  A    between atoms: C_16  and  N_17
REMARK    7  A    between atoms: C_22  and  C_23
REMARK                            x       y       z     vdW  Elec       q    Type
REMARK                         _______ _______ _______ _____ _____    ______ ____
ROOT
ATOM      1  C   UNL     1      -0.956  11.163  18.398  0.00  0.00    +0.000 C 
ATOM      2  N   UNL     1       0.064  10.935  19.435  0.00  0.00    +0.000 N 
ATOM      3  C   UNL     1       0.214  11.733  20.590  0.00  0.00    +0.000 C 
ATOM      4  O   UNL     1       1.013  11.530  21.506  0.00  0.00    +0.000 OA
ENDROOT
BRANCH   3   5
ATOM      5  C   UNL     1      -0.615  12.946  20.801  0.00  0.00    +0.000 A 
ATOM      6  C   UNL     1      -0.105  14.243  20.702  0.00  0.00    +0.000 A 
ATOM      7  C   UNL     1      -0.954  15.341  20.820  0.00  0.00    +0.000 A 
ATOM      8  C   UNL     1      -2.300  15.150  21.124  0.00  0.00    +0.000 A 
ATOM      9  C   UNL     1      -2.788  13.857  21.351  0.00  0.00    +0.000 A 
ATOM     10  C   UNL     1      -1.949  12.754  21.186  0.00  0.00    +0.000 A 
BRANCH   9  11
ATOM     11  N   UNL     1      -4.153  13.682  21.684  0.00  0.00    +0.000 N 
ATOM     12  N   UNL     1      -5.106  14.304  20.933  0.00  0.00    +0.000 NA
ATOM     13  C   UNL     1      -6.251  13.759  21.341  0.00  0.00    +0.000 A 
ATOM     14  C   UNL     1      -6.072  12.913  22.439  0.00  0.00    +0.000 A 
ATOM     15  C   UNL     1      -4.719  12.904  22.701  0.00  0.00    +0.000 A 
BRANCH  15  16
ATOM     16  N   UNL     1      -4.020  12.325  23.715  0.00  0.00    +0.000 N 
ATOM     17  H   UNL     1      -3.708  12.868  24.521  0.00  0.00    +0.000 HD
ATOM     18  H   UNL     1      -3.436  11.501  23.562  0.00  0.00    +0.000 HD
ENDBRANCH  15  16
BRANCH  14  19
ATOM     19  C   UNL     1      -7.087  12.242  23.165  0.00  0.00    +0.000 C 
ATOM     20  N   UNL     1      -7.916  11.688  23.751  0.00  0.00    +0.000 NA
ENDBRANCH  14  19
ENDBRANCH   9  11
ENDBRANCH   3   5
BRANCH   2  21
ATOM     21  C   UNL     1       0.896   9.768  19.226  0.00  0.00    +0.000 A 
ATOM     22  C   UNL     1       1.089   8.790  20.208  0.00  0.00    +0.000 A 
ATOM     23  C   UNL     1       1.918   7.681  19.990  0.00  0.00    +0.000 A 
ATOM     24  C   UNL     1       2.576   7.486  18.771  0.00  0.00    +0.000 A 
ATOM     25  C   UNL     1       2.361   8.451  17.779  0.00  0.00    +0.000 A 
ATOM     26  C   UNL     1       1.542   9.563  18.000  0.00  0.00    +0.000 A 
BRANCH  24  27
ATOM     27  C   UNL     1       3.445   6.318  18.526  0.00  0.00    +0.000 A 
ATOM     28  C   UNL     1       3.676   5.350  19.518  0.00  0.00    +0.000 A 
ATOM     29  C   UNL     1       4.472   4.230  19.267  0.00  0.00    +0.000 A 
ATOM     30  C   UNL     1       5.049   4.048  18.015  0.00  0.00    +0.000 A 
ATOM     31  C   UNL     1       4.849   4.994  17.019  0.00  0.00    +0.000 A 
ATOM     32  C   UNL     1       4.065   6.121  17.276  0.00  0.00    +0.000 A 
ENDBRANCH  24  27
ENDBRANCH   2  21
TORSDOF 6
ENDMDL
MODEL 9
REMARK VINA RESULT:      -7.8      0.995      1.457
REMARK  Name = 
REMARK  7 active torsions:
REMARK  status: ('A' for Active; 'I' for Inactive)
REMARK    1  A    between atoms: C_1  and  N_2
REMARK    2  A    between atoms: N_2  and  C_19
REMARK    3  A    between atoms: C_3  and  C_5
REMARK    4  A    between atoms: C_9  and  N_10
REMARK    5  A    between atoms: C_13  and  C_14
REMARK    6  A    between atoms: C_16  and  N_17
REMARK    7  A    between atoms: C_22  and  C_23
REMARK                            x       y       z     vdW  Elec       q    Type
REMARK                         _______ _______ _______ _____ _____    ______ ____
ROOT
ATOM      1  C   UNL     1       0.015   9.877  22.311  0.00  0.00    +0.000 C 
ATOM      2  N   UNL     1       0.482  10.204  20.953  0.00  0.00    +0.000 N 
ATOM      3  C   UNL     1       0.381  11.484  20.366  0.00  0.00    +0.000 C 
ATOM      4  O   UNL     1       0.820  11.805  19.260  0.00  0.00    +0.000 OA
ENDROOT
BRANCH   3   5
ATOM      5  C   UNL     1      -0.302  12.601  21.066  0.00  0.00    +0.000 A 
ATOM      6  C   UNL     1       0.381  13.701  21.590  0.00  0.00    +0.000 A 
ATOM      7  C   UNL     1      -0.327  14.761  22.153  0.00  0.00    +0.000 A 
ATOM      8  C   UNL     1      -1.712  14.687  22.274  0.00  0.00    +0.000 A 
ATOM      9  C   UNL     1      -2.388  13.530  21.866  0.00  0.00    +0.000 A 
ATOM     10  C   UNL     1      -1.686  12.487  21.257  0.00  0.00    +0.000 A 
BRANCH   9  11
ATOM     11  N   UNL     1      -3.794  13.460  22.018  0.00  0.00    +0.000 N 
ATOM     12  N   UNL     1      -4.594  14.035  21.077  0.00  0.00    +0.000 NA
ATOM     13  C   UNL     1      -5.817  13.596  21.374  0.00  0.00    +0.000 A 
ATOM     14  C   UNL     1      -5.843  12.876  22.571  0.00  0.00    +0.000 A 
ATOM     15  C   UNL     1      -4.541  12.833  23.022  0.00  0.00    +0.000 A 
BRANCH  15  16
ATOM     16  N   UNL     1      -4.025  12.342  24.182  0.00  0.00    +0.000 N 
ATOM     17  H   UNL     1      -3.282  11.643  24.177  0.00  0.00    +0.000 HD
ATOM     18  H   UNL     1      -4.575  12.306  25.041  0.00  0.00    +0.000 HD
ENDBRANCH  15  16
BRANCH  14  19
ATOM     19  C   UNL     1      -6.988  12.343  23.214  0.00  0.00    +0.000 C 
ATOM     20  N   UNL     1      -7.916  11.901  23.744  0.00  0.00    +0.000 NA
ENDBRANCH  14  19
ENDBRANCH   9  11
ENDBRANCH   3   5
BRANCH   2  21
ATOM     21  C   UNL     1       1.128   9.114  20.251  0.00  0.00    +0.000 A 
ATOM     22  C   UNL     1       1.441   7.897  20.866  0.00  0.00    +0.000 A 
ATOM     23  C   UNL     1       2.089   6.866  20.171  0.00  0.00    +0.000 A 
ATOM     24  C   UNL     1       2.435   6.996  18.822  0.00  0.00    +0.000 A 
ATOM     25  C   UNL     1       2.097   8.204  18.200  0.00  0.00    +0.000 A 
ATOM     26  C   UNL     1       1.460   9.237  18.896  0.00  0.00    +0.000 A 
BRANCH  24  27
ATOM     27  C   UNL     1       3.109   5.914  18.076  0.00  0.00    +0.000 A 
ATOM     28  C   UNL     1       2.480   4.680  17.840  0.00  0.00    +0.000 A 
ATOM     29  C   UNL     1       3.112   3.674  17.104  0.00  0.00    +0.000 A 
ATOM     30  C   UNL     1       4.383   3.883  16.581  0.00  0.00    +0.000 A 
ATOM     31  C   UNL     1       5.033   5.089  16.809  0.00  0.00    +0.000 A 
ATOM     32  C   UNL     1       4.408   6.087  17.557  0.00  0.00    +0.000 A 
ENDBRANCH  24  27
ENDBRANCH   2  21
TORSDOF 6
ENDMDL
