MODEL 1
REMARK VINA RESULT:      -8.4      0.000      0.000
REMARK  Name = 
REMARK  7 active torsions:
REMARK  status: ('A' for Active; 'I' for Inactive)
REMARK    1  A    between atoms: C_1  and  C_2
REMARK    2  A    between atoms: C_3  and  C_4
REMARK    3  A    between atoms: N_6  and  C_7
REMARK    4  A    between atoms: C_11  and  C_12
REMARK    5  A    between atoms: C_12  and  C_13
REMARK    6  A    between atoms: N_17  and  C_18
REMARK    7  A    between atoms: C_23  and  C_24
REMARK                            x       y       z     vdW  Elec       q    Type
REMARK                         _______ _______ _______ _____ _____    ______ ____
ROOT
ATOM      1  C   UNL     1       2.557   7.443  18.421  0.00  0.00    +0.000 C 
ATOM      2  O   UNL     1       2.481   7.485  19.646  0.00  0.00    +0.000 OA
ATOM      3  N   UNL     1       2.149   8.444  17.555  0.00  0.00    +0.000 N 
ATOM      4  H   UNL     1       2.126   8.231  16.566  0.00  0.00    +0.000 HD
ENDROOT
BRANCH   1   7
ATOM      5  C   UNL     1       5.340   7.018  17.070  0.00  0.00    +0.000 C 
ATOM      6  C   UNL     1       4.311   5.929  17.229  0.00  0.00    +0.000 A 
ATOM      7  C   UNL     1       3.046   6.158  17.826  0.00  0.00    +0.000 A 
ATOM      8  C   UNL     1       2.148   5.082  17.996  0.00  0.00    +0.000 A 
ATOM      9  C   UNL     1       2.469   3.794  17.590  0.00  0.00    +0.000 A 
ATOM     10  C   UNL     1       3.698   3.561  16.994  0.00  0.00    +0.000 A 
ATOM     11  C   UNL     1       4.627   4.606  16.793  0.00  0.00    +0.000 A 
BRANCH  11  12
ATOM     12  C   UNL     1       5.937   4.191  16.141  0.00  0.00    +0.000 C 
ATOM     13  F   UNL     1       6.360   4.973  15.113  0.00  0.00    +0.000 F 
ATOM     14  F   UNL     1       6.966   4.169  17.037  0.00  0.00    +0.000 F 
ATOM     15  F   UNL     1       5.872   2.928  15.629  0.00  0.00    +0.000 F 
ENDBRANCH  11  12
ENDBRANCH   1   7
BRANCH   3  16
ATOM     16  C   UNL     1       1.590   9.691  17.937  0.00  0.00    +0.000 A 
ATOM     17  C   UNL     1       2.342  10.852  18.127  0.00  0.00    +0.000 A 
ATOM     18  C   UNL     1       1.755  12.018  18.625  0.00  0.00    +0.000 A 
ATOM     19  C   UNL     1       0.396  12.043  18.917  0.00  0.00    +0.000 A 
ATOM     20  C   UNL     1      -0.396  10.916  18.666  0.00  0.00    +0.000 A 
ATOM     21  C   UNL     1       0.209   9.746  18.168  0.00  0.00    +0.000 A 
BRANCH  20  22
ATOM     22  C   UNL     1      -1.877  10.951  18.970  0.00  0.00    +0.000 C 
BRANCH  22  23
ATOM     23  C   UNL     1      -2.747  11.145  17.773  0.00  0.00    +0.000 A 
ATOM     24  N   UNL     1      -2.402  10.911  16.524  0.00  0.00    +0.000 NA
ATOM     25  N   UNL     1      -3.503  11.121  15.726  0.00  0.00    +0.000 NA
ATOM     26  C   UNL     1      -4.493  11.485  16.502  0.00  0.00    +0.000 A 
ATOM     27  N   UNL     1      -4.061  11.545  17.794  0.00  0.00    +0.000 N 
ATOM     28  C   UNL     1      -4.848  11.945  18.927  0.00  0.00    +0.000 C 
ENDBRANCH  22  23
ENDBRANCH  20  22
ENDBRANCH   3  16
TORSDOF 5
ENDMDL
MODEL 2
REMARK VINA RESULT:      -8.3      5.007      9.065
REMARK  Name = 
REMARK  7 active torsions:
REMARK  status: ('A' for Active; 'I' for Inactive)
REMARK    1  A    between atoms: C_1  and  C_2
REMARK    2  A    between atoms: C_3  and  C_4
REMARK    3  A    between atoms: N_6  and  C_7
REMARK    4  A    between atoms: C_11  and  C_12
REMARK    5  A    between atoms: C_12  and  C_13
REMARK    6  A    between atoms: N_17  and  C_18
REMARK    7  A    between atoms: C_23  and  C_24
REMARK                            x       y       z     vdW  Elec       q    Type
REMARK                         _______ _______ _______ _____ _____    ______ ____
ROOT
ATOM      1  C   UNL     1       2.088   8.121  18.427  0.00  0.00    +0.000 C 
ATOM      2  O   UNL     1       2.229   8.431  17.247  0.00  0.00    +0.000 OA
ATOM      3  N   UNL     1       2.389   6.885  18.975  0.00  0.00    +0.000 N 
ATOM      4  H   UNL     1       2.091   6.707  19.926  0.00  0.00    +0.000 HD
ENDROOT
BRANCH   1   7
ATOM      5  C   UNL     1       0.945   7.579  21.283  0.00  0.00    +0.000 C 
ATOM      6  C   UNL     1       0.944   8.934  20.623  0.00  0.00    +0.000 A 
ATOM      7  C   UNL     1       1.449   9.145  19.315  0.00  0.00    +0.000 A 
ATOM      8  C   UNL     1       1.469  10.449  18.775  0.00  0.00    +0.000 A 
ATOM      9  C   UNL     1       1.004  11.542  19.493  0.00  0.00    +0.000 A 
ATOM     10  C   UNL     1       0.497  11.346  20.767  0.00  0.00    +0.000 A 
ATOM     11  C   UNL     1       0.446  10.059  21.347  0.00  0.00    +0.000 A 
BRANCH  11  12
ATOM     12  C   UNL     1      -0.123  10.007  22.758  0.00  0.00    +0.000 C 
ATOM     13  F   UNL     1       0.738   9.595  23.726  0.00  0.00    +0.000 F 
ATOM     14  F   UNL     1      -0.582  11.225  23.165  0.00  0.00    +0.000 F 
ATOM     15  F   UNL     1      -1.192   9.165  22.844  0.00  0.00    +0.000 F 
ENDBRANCH  11  12
ENDBRANCH   1   7
BRANCH   3  16
ATOM     16  C   UNL     1       2.924   5.775  18.271  0.00  0.00    +0.000 A 
ATOM     17  C   UNL     1       2.162   4.679  17.860  0.00  0.00    +0.000 A 
ATOM     18  C   UNL     1       2.765   3.559  17.283  0.00  0.00    +0.000 A 
ATOM     19  C   UNL     1       4.141   3.533  17.085  0.00  0.00    +0.000 A 
ATOM     20  C   UNL     1       4.919   4.648  17.419  0.00  0.00    +0.000 A 
ATOM     21  C   UNL     1       4.299   5.769  18.005  0.00  0.00    +0.000 A 
BRANCH  20  22
ATOM     22  C   UNL     1       6.413   4.624  17.189  0.00  0.00    +0.000 C 
BRANCH  22  23
ATOM     23  C   UNL     1       7.090   5.937  17.400  0.00  0.00    +0.000 A 
ATOM     24  N   UNL     1       7.164   6.914  16.521  0.00  0.00    +0.000 NA
ATOM     25  N   UNL     1       7.783   7.987  17.121  0.00  0.00    +0.000 NA
ATOM     26  C   UNL     1       8.078   7.640  18.349  0.00  0.00    +0.000 A 
ATOM     27  N   UNL     1       7.691   6.350  18.564  0.00  0.00    +0.000 N 
ATOM     28  C   UNL     1       7.883   5.605  19.776  0.00  0.00    +0.000 C 
ENDBRANCH  22  23
ENDBRANCH  20  22
ENDBRANCH   3  16
TORSDOF 5
ENDMDL
MODEL 3
REMARK VINA RESULT:      -8.2      1.580      2.299
REMARK  Name = 
REMARK  7 active torsions:
REMARK  status: ('A' for Active; 'I' for Inactive)
REMARK    1  A    between atoms: C_1  and  C_2
REMARK    2  A    between atoms: C_3  and  C_4
REMARK    3  A    between atoms: N_6  and  C_7
REMARK    4  A    between atoms: C_11  and  C_12
REMARK    5  A    between atoms: C_12  and  C_13
REMARK    6  A    between atoms: N_17  and  C_18
REMARK    7  A    between atoms: C_23  and  C_24
REMARK                            x       y       z     vdW  Elec       q    Type
REMARK                         _______ _______ _______ _____ _____    ______ ____
ROOT
ATOM      1  C   UNL     1       2.536   7.495  18.729  0.00  0.00    +0.000 C 
ATOM      2  O   UNL     1       2.269   7.569  19.925  0.00  0.00    +0.000 OA
ATOM      3  N   UNL     1       2.258   8.467  17.781  0.00  0.00    +0.000 N 
ATOM      4  H   UNL     1       2.393   8.226  16.807  0.00  0.00    +0.000 HD
ENDROOT
BRANCH   1   7
ATOM      5  C   UNL     1       1.577   4.649  19.586  0.00  0.00    +0.000 C 
ATOM      6  C   UNL     1       2.694   4.896  18.607  0.00  0.00    +0.000 A 
ATOM      7  C   UNL     1       3.124   6.201  18.254  0.00  0.00    +0.000 A 
ATOM      8  C   UNL     1       4.139   6.366  17.287  0.00  0.00    +0.000 A 
ATOM      9  C   UNL     1       4.737   5.278  16.667  0.00  0.00    +0.000 A 
ATOM     10  C   UNL     1       4.334   3.998  17.012  0.00  0.00    +0.000 A 
ATOM     11  C   UNL     1       3.329   3.781  17.981  0.00  0.00    +0.000 A 
BRANCH  11  12
ATOM     12  C   UNL     1       2.985   2.322  18.240  0.00  0.00    +0.000 C 
ATOM     13  F   UNL     1       3.785   1.409  17.629  0.00  0.00    +0.000 F 
ATOM     14  F   UNL     1       3.027   2.019  19.569  0.00  0.00    +0.000 F 
ATOM     15  F   UNL     1       1.718   2.018  17.836  0.00  0.00    +0.000 F 
ENDBRANCH  11  12
ENDBRANCH   1   7
BRANCH   3  16
ATOM     16  C   UNL     1       1.634   9.715  18.035  0.00  0.00    +0.000 A 
ATOM     17  C   UNL     1       2.326  10.926  18.110  0.00  0.00    +0.000 A 
ATOM     18  C   UNL     1       1.677  12.104  18.488  0.00  0.00    +0.000 A 
ATOM     19  C   UNL     1       0.316  12.089  18.772  0.00  0.00    +0.000 A 
ATOM     20  C   UNL     1      -0.417  10.904  18.633  0.00  0.00    +0.000 A 
ATOM     21  C   UNL     1       0.251   9.723  18.256  0.00  0.00    +0.000 A 
BRANCH  20  22
ATOM     22  C   UNL     1      -1.899  10.894  18.927  0.00  0.00    +0.000 C 
BRANCH  22  23
ATOM     23  C   UNL     1      -2.766  11.101  17.731  0.00  0.00    +0.000 A 
ATOM     24  N   UNL     1      -2.433  10.840  16.484  0.00  0.00    +0.000 NA
ATOM     25  N   UNL     1      -3.530  11.075  15.687  0.00  0.00    +0.000 NA
ATOM     26  C   UNL     1      -4.505  11.480  16.461  0.00  0.00    +0.000 A 
ATOM     27  N   UNL     1      -4.067  11.543  17.751  0.00  0.00    +0.000 N 
ATOM     28  C   UNL     1      -4.837  11.982  18.881  0.00  0.00    +0.000 C 
ENDBRANCH  22  23
ENDBRANCH  20  22
ENDBRANCH   3  16
TORSDOF 5
ENDMDL
MODEL 4
REMARK VINA RESULT:      -8.1      2.698      4.012
REMARK  Name = 
REMARK  7 active torsions:
REMARK  status: ('A' for Active; 'I' for Inactive)
REMARK    1  A    between atoms: C_1  and  C_2
REMARK    2  A    between atoms: C_3  and  C_4
REMARK    3  A    between atoms: N_6  and  C_7
REMARK    4  A    between atoms: C_11  and  C_12
REMARK    5  A    between atoms: C_12  and  C_13
REMARK    6  A    between atoms: N_17  and  C_18
REMARK    7  A    between atoms: C_23  and  C_24
REMARK                            x       y       z     vdW  Elec       q    Type
REMARK                         _______ _______ _______ _____ _____    ______ ____
ROOT
ATOM      1  C   UNL     1       2.437   7.435  18.522  0.00  0.00    +0.000 C 
ATOM      2  O   UNL     1       2.381   7.444  19.748  0.00  0.00    +0.000 OA
ATOM      3  N   UNL     1       1.981   8.443  17.688  0.00  0.00    +0.000 N 
ATOM      4  H   UNL     1       1.948   8.253  16.694  0.00  0.00    +0.000 HD
ENDROOT
BRANCH   1   7
ATOM      5  C   UNL     1       5.244   7.110  17.192  0.00  0.00    +0.000 C 
ATOM      6  C   UNL     1       4.234   5.997  17.297  0.00  0.00    +0.000 A 
ATOM      7  C   UNL     1       2.957   6.181  17.886  0.00  0.00    +0.000 A 
ATOM      8  C   UNL     1       2.077   5.084  18.005  0.00  0.00    +0.000 A 
ATOM      9  C   UNL     1       2.427   3.818  17.556  0.00  0.00    +0.000 A 
ATOM     10  C   UNL     1       3.667   3.629  16.968  0.00  0.00    +0.000 A 
ATOM     11  C   UNL     1       4.579   4.698  16.818  0.00  0.00    +0.000 A 
BRANCH  11  12
ATOM     12  C   UNL     1       5.905   4.330  16.168  0.00  0.00    +0.000 C 
ATOM     13  F   UNL     1       6.295   5.122  15.134  0.00  0.00    +0.000 F 
ATOM     14  F   UNL     1       6.933   4.357  17.063  0.00  0.00    +0.000 F 
ATOM     15  F   UNL     1       5.890   3.062  15.665  0.00  0.00    +0.000 F 
ENDBRANCH  11  12
ENDBRANCH   1   7
BRANCH   3  16
ATOM     16  C   UNL     1       1.388   9.661  18.111  0.00  0.00    +0.000 A 
ATOM     17  C   UNL     1       0.017   9.821  18.327  0.00  0.00    +0.000 A 
ATOM     18  C   UNL     1      -0.523  11.075  18.619  0.00  0.00    +0.000 A 
ATOM     19  C   UNL     1       0.307  12.185  18.724  0.00  0.00    +0.000 A 
ATOM     20  C   UNL     1       1.693  12.039  18.586  0.00  0.00    +0.000 A 
ATOM     21  C   UNL     1       2.225  10.770  18.286  0.00  0.00    +0.000 A 
BRANCH  20  22
ATOM     22  C   UNL     1       2.596  13.245  18.716  0.00  0.00    +0.000 C 
BRANCH  22  23
ATOM     23  C   UNL     1       2.455  13.983  20.005  0.00  0.00    +0.000 A 
ATOM     24  N   UNL     1       2.781  13.524  21.195  0.00  0.00    +0.000 NA
ATOM     25  N   UNL     1       2.592  14.531  22.112  0.00  0.00    +0.000 NA
ATOM     26  C   UNL     1       2.150  15.581  21.465  0.00  0.00    +0.000 A 
ATOM     27  N   UNL     1       2.018  15.278  20.142  0.00  0.00    +0.000 N 
ATOM     28  C   UNL     1       1.522  16.160  19.123  0.00  0.00    +0.000 C 
ENDBRANCH  22  23
ENDBRANCH  20  22
ENDBRANCH   3  16
TORSDOF 5
ENDMDL
MODEL 5
REMARK VINA RESULT:      -8.1      5.124      9.272
REMARK  Name = 
REMARK  7 active torsions:
REMARK  status: ('A' for Active; 'I' for Inactive)
REMARK    1  A    between atoms: C_1  and  C_2
REMARK    2  A    between atoms: C_3  and  C_4
REMARK    3  A    between atoms: N_6  and  C_7
REMARK    4  A    between atoms: C_11  and  C_12
REMARK    5  A    between atoms: C_12  and  C_13
REMARK    6  A    between atoms: N_17  and  C_18
REMARK    7  A    between atoms: C_23  and  C_24
REMARK                            x       y       z     vdW  Elec       q    Type
REMARK                         _______ _______ _______ _____ _____    ______ ____
ROOT
ATOM      1  C   UNL     1       3.015   6.752  18.403  0.00  0.00    +0.000 C 
ATOM      2  O   UNL     1       2.499   5.649  18.246  0.00  0.00    +0.000 OA
ATOM      3  N   UNL     1       4.367   7.031  18.292  0.00  0.00    +0.000 N 
ATOM      4  H   UNL     1       4.685   7.944  18.590  0.00  0.00    +0.000 HD
ENDROOT
BRANCH   1   7
ATOM      5  C   UNL     1       1.595   6.926  21.180  0.00  0.00    +0.000 C 
ATOM      6  C   UNL     1       1.467   7.975  20.107  0.00  0.00    +0.000 A 
ATOM      7  C   UNL     1       2.105   7.858  18.846  0.00  0.00    +0.000 A 
ATOM      8  C   UNL     1       1.991   8.903  17.904  0.00  0.00    +0.000 A 
ATOM      9  C   UNL     1       1.265  10.053  18.178  0.00  0.00    +0.000 A 
ATOM     10  C   UNL     1       0.627  10.174  19.401  0.00  0.00    +0.000 A 
ATOM     11  C   UNL     1       0.703   9.151  20.373  0.00  0.00    +0.000 A 
BRANCH  11  12
ATOM     12  C   UNL     1      -0.037   9.437  21.672  0.00  0.00    +0.000 C 
ATOM     13  F   UNL     1      -0.797  10.563  21.683  0.00  0.00    +0.000 F 
ATOM     14  F   UNL     1      -0.879   8.419  22.011  0.00  0.00    +0.000 F 
ATOM     15  F   UNL     1       0.819   9.569  22.726  0.00  0.00    +0.000 F 
ENDBRANCH  11  12
ENDBRANCH   1   7
BRANCH   3  16
ATOM     16  C   UNL     1       5.380   6.094  17.962  0.00  0.00    +0.000 A 
ATOM     17  C   UNL     1       6.531   5.896  18.728  0.00  0.00    +0.000 A 
ATOM     18  C   UNL     1       7.553   5.052  18.288  0.00  0.00    +0.000 A 
ATOM     19  C   UNL     1       7.425   4.373  17.081  0.00  0.00    +0.000 A 
ATOM     20  C   UNL     1       6.250   4.496  16.330  0.00  0.00    +0.000 A 
ATOM     21  C   UNL     1       5.229   5.354  16.783  0.00  0.00    +0.000 A 
BRANCH  20  22
ATOM     22  C   UNL     1       6.106   3.744  15.025  0.00  0.00    +0.000 C 
BRANCH  22  23
ATOM     23  C   UNL     1       6.768   4.402  13.860  0.00  0.00    +0.000 A 
ATOM     24  N   UNL     1       7.611   5.410  13.922  0.00  0.00    +0.000 NA
ATOM     25  N   UNL     1       8.071   5.667  12.651  0.00  0.00    +0.000 NA
ATOM     26  C   UNL     1       7.494   4.815  11.840  0.00  0.00    +0.000 A 
ATOM     27  N   UNL     1       6.642   4.018  12.547  0.00  0.00    +0.000 N 
ATOM     28  C   UNL     1       5.802   2.990  12.000  0.00  0.00    +0.000 C 
ENDBRANCH  22  23
ENDBRANCH  20  22
ENDBRANCH   3  16
TORSDOF 5
ENDMDL
MODEL 6
REMARK VINA RESULT:      -8.1      5.104      9.349
REMARK  Name = 
REMARK  7 active torsions:
REMARK  status: ('A' for Active; 'I' for Inactive)
REMARK    1  A    between atoms: C_1  and  C_2
REMARK    2  A    between atoms: C_3  and  C_4
REMARK    3  A    between atoms: N_6  and  C_7
REMARK    4  A    between atoms: C_11  and  C_12
REMARK    5  A    between atoms: C_12  and  C_13
REMARK    6  A    between atoms: N_17  and  C_18
REMARK    7  A    between atoms: C_23  and  C_24
REMARK                            x       y       z     vdW  Elec       q    Type
REMARK                         _______ _______ _______ _____ _____    ______ ____
ROOT
ATOM      1  C   UNL     1       1.765   7.562  20.243  0.00  0.00    +0.000 C 
ATOM      2  O   UNL     1       2.443   7.693  19.228  0.00  0.00    +0.000 OA
ATOM      3  N   UNL     1       1.549   6.372  20.919  0.00  0.00    +0.000 N 
ATOM      4  H   UNL     1       0.853   6.368  21.654  0.00  0.00    +0.000 HD
ENDROOT
BRANCH   1   7
ATOM      5  C   UNL     1       0.571   9.796  18.415  0.00  0.00    +0.000 C 
ATOM      6  C   UNL     1       0.467   9.799  19.918  0.00  0.00    +0.000 A 
ATOM      7  C   UNL     1       1.040   8.783  20.724  0.00  0.00    +0.000 A 
ATOM      8  C   UNL     1       0.859   8.814  22.124  0.00  0.00    +0.000 A 
ATOM      9  C   UNL     1       0.132   9.822  22.741  0.00  0.00    +0.000 A 
ATOM     10  C   UNL     1      -0.422  10.827  21.965  0.00  0.00    +0.000 A 
ATOM     11  C   UNL     1      -0.261  10.845  20.562  0.00  0.00    +0.000 A 
BRANCH  11  12
ATOM     12  C   UNL     1      -0.940  12.004  19.847  0.00  0.00    +0.000 C 
ATOM     13  F   UNL     1      -0.137  12.762  19.055  0.00  0.00    +0.000 F 
ATOM     14  F   UNL     1      -1.957  11.578  19.043  0.00  0.00    +0.000 F 
ATOM     15  F   UNL     1      -1.510  12.879  20.725  0.00  0.00    +0.000 F 
ENDBRANCH  11  12
ENDBRANCH   1   7
BRANCH   3  16
ATOM     16  C   UNL     1       2.087   5.109  20.561  0.00  0.00    +0.000 A 
ATOM     17  C   UNL     1       2.053   3.988  21.395  0.00  0.00    +0.000 A 
ATOM     18  C   UNL     1       2.709   2.808  21.041  0.00  0.00    +0.000 A 
ATOM     19  C   UNL     1       3.390   2.724  19.831  0.00  0.00    +0.000 A 
ATOM     20  C   UNL     1       3.376   3.807  18.944  0.00  0.00    +0.000 A 
ATOM     21  C   UNL     1       2.715   4.993  19.315  0.00  0.00    +0.000 A 
BRANCH  20  22
ATOM     22  C   UNL     1       4.104   3.708  17.622  0.00  0.00    +0.000 C 
BRANCH  22  23
ATOM     23  C   UNL     1       5.530   4.147  17.670  0.00  0.00    +0.000 A 
ATOM     24  N   UNL     1       6.206   4.449  18.759  0.00  0.00    +0.000 NA
ATOM     25  N   UNL     1       7.507   4.713  18.398  0.00  0.00    +0.000 NA
ATOM     26  C   UNL     1       7.596   4.574  17.098  0.00  0.00    +0.000 A 
ATOM     27  N   UNL     1       6.373   4.249  16.590  0.00  0.00    +0.000 N 
ATOM     28  C   UNL     1       6.063   4.054  15.202  0.00  0.00    +0.000 C 
ENDBRANCH  22  23
ENDBRANCH  20  22
ENDBRANCH   3  16
TORSDOF 5
ENDMDL
MODEL 7
REMARK VINA RESULT:      -8.1      4.875      8.530
REMARK  Name = 
REMARK  7 active torsions:
REMARK  status: ('A' for Active; 'I' for Inactive)
REMARK    1  A    between atoms: C_1  and  C_2
REMARK    2  A    between atoms: C_3  and  C_4
REMARK    3  A    between atoms: N_6  and  C_7
REMARK    4  A    between atoms: C_11  and  C_12
REMARK    5  A    between atoms: C_12  and  C_13
REMARK    6  A    between atoms: N_17  and  C_18
REMARK    7  A    between atoms: C_23  and  C_24
REMARK                            x       y       z     vdW  Elec       q    Type
REMARK                         _______ _______ _______ _____ _____    ______ ____
ROOT
ATOM      1  C   UNL     1       1.996   8.857  18.314  0.00  0.00    +0.000 C 
ATOM      2  O   UNL     1       1.945   9.240  17.148  0.00  0.00    +0.000 OA
ATOM      3  N   UNL     1       2.700   7.754  18.768  0.00  0.00    +0.000 N 
ATOM      4  H   UNL     1       2.544   7.457  19.723  0.00  0.00    +0.000 HD
ENDROOT
BRANCH   1   7
ATOM      5  C   UNL     1       1.210   7.836  21.159  0.00  0.00    +0.000 C 
ATOM      6  C   UNL     1       0.793   9.173  20.604  0.00  0.00    +0.000 A 
ATOM      7  C   UNL     1       1.146   9.600  19.299  0.00  0.00    +0.000 A 
ATOM      8  C   UNL     1       0.771  10.888  18.859  0.00  0.00    +0.000 A 
ATOM      9  C   UNL     1       0.058  11.757  19.674  0.00  0.00    +0.000 A 
ATOM     10  C   UNL     1      -0.302  11.346  20.947  0.00  0.00    +0.000 A 
ATOM     11  C   UNL     1       0.041  10.064  21.429  0.00  0.00    +0.000 A 
BRANCH  11  12
ATOM     12  C   UNL     1      -0.411   9.765  22.851  0.00  0.00    +0.000 C 
ATOM     13  F   UNL     1      -1.160  10.730  23.447  0.00  0.00    +0.000 F 
ATOM     14  F   UNL     1      -1.156   8.624  22.918  0.00  0.00    +0.000 F 
ATOM     15  F   UNL     1       0.646   9.561  23.688  0.00  0.00    +0.000 F 
ENDBRANCH  11  12
ENDBRANCH   1   7
BRANCH   3  16
ATOM     16  C   UNL     1       3.491   6.890  17.968  0.00  0.00    +0.000 A 
ATOM     17  C   UNL     1       4.454   7.340  17.061  0.00  0.00    +0.000 A 
ATOM     18  C   UNL     1       5.112   6.449  16.209  0.00  0.00    +0.000 A 
ATOM     19  C   UNL     1       4.831   5.089  16.271  0.00  0.00    +0.000 A 
ATOM     20  C   UNL     1       3.925   4.603  17.221  0.00  0.00    +0.000 A 
ATOM     21  C   UNL     1       3.264   5.512  18.071  0.00  0.00    +0.000 A 
BRANCH  20  22
ATOM     22  C   UNL     1       3.632   3.122  17.297  0.00  0.00    +0.000 C 
BRANCH  22  23
ATOM     23  C   UNL     1       2.512   2.761  18.215  0.00  0.00    +0.000 A 
ATOM     24  N   UNL     1       1.241   2.672  17.881  0.00  0.00    +0.000 NA
ATOM     25  N   UNL     1       0.538   2.227  18.976  0.00  0.00    +0.000 NA
ATOM     26  C   UNL     1       1.392   2.059  19.956  0.00  0.00    +0.000 A 
ATOM     27  N   UNL     1       2.641   2.411  19.537  0.00  0.00    +0.000 N 
ATOM     28  C   UNL     1       3.832   2.401  20.339  0.00  0.00    +0.000 C 
ENDBRANCH  22  23
ENDBRANCH  20  22
ENDBRANCH   3  16
TORSDOF 5
ENDMDL
MODEL 8
REMARK VINA RESULT:      -8.0      4.867      8.755
REMARK  Name = 
REMARK  7 active torsions:
REMARK  status: ('A' for Active; 'I' for Inactive)
REMARK    1  A    between atoms: C_1  and  C_2
REMARK    2  A    between atoms: C_3  and  C_4
REMARK    3  A    between atoms: N_6  and  C_7
REMARK    4  A    between atoms: C_11  and  C_12
REMARK    5  A    between atoms: C_12  and  C_13
REMARK    6  A    between atoms: N_17  and  C_18
REMARK    7  A    between atoms: C_23  and  C_24
REMARK                            x       y       z     vdW  Elec       q    Type
REMARK                         _______ _______ _______ _____ _____    ______ ____
ROOT
ATOM      1  C   UNL     1       2.057   8.801  18.319  0.00  0.00    +0.000 C 
ATOM      2  O   UNL     1       2.136   9.242  17.175  0.00  0.00    +0.000 OA
ATOM      3  N   UNL     1       2.657   7.640  18.776  0.00  0.00    +0.000 N 
ATOM      4  H   UNL     1       2.397   7.306  19.696  0.00  0.00    +0.000 HD
ENDROOT
BRANCH   1   7
ATOM      5  C   UNL     1       1.287   7.869  21.198  0.00  0.00    +0.000 C 
ATOM      6  C   UNL     1       0.809   9.156  20.579  0.00  0.00    +0.000 A 
ATOM      7  C   UNL     1       1.156   9.542  19.259  0.00  0.00    +0.000 A 
ATOM      8  C   UNL     1       0.721  10.788  18.758  0.00  0.00    +0.000 A 
ATOM      9  C   UNL     1      -0.046  11.654  19.524  0.00  0.00    +0.000 A 
ATOM     10  C   UNL     1      -0.402  11.282  20.810  0.00  0.00    +0.000 A 
ATOM     11  C   UNL     1       0.001  10.042  21.354  0.00  0.00    +0.000 A 
BRANCH  11  12
ATOM     12  C   UNL     1      -0.454   9.783  22.783  0.00  0.00    +0.000 C 
ATOM     13  F   UNL     1      -1.217  10.758  23.345  0.00  0.00    +0.000 F 
ATOM     14  F   UNL     1      -1.186   8.637  22.883  0.00  0.00    +0.000 F 
ATOM     15  F   UNL     1       0.601   9.619  23.631  0.00  0.00    +0.000 F 
ENDBRANCH  11  12
ENDBRANCH   1   7
BRANCH   3  16
ATOM     16  C   UNL     1       3.475   6.773  18.007  0.00  0.00    +0.000 A 
ATOM     17  C   UNL     1       4.341   7.213  17.002  0.00  0.00    +0.000 A 
ATOM     18  C   UNL     1       5.026   6.304  16.193  0.00  0.00    +0.000 A 
ATOM     19  C   UNL     1       4.873   4.937  16.395  0.00  0.00    +0.000 A 
ATOM     20  C   UNL     1       4.070   4.469  17.443  0.00  0.00    +0.000 A 
ATOM     21  C   UNL     1       3.380   5.397  18.248  0.00  0.00    +0.000 A 
BRANCH  20  22
ATOM     22  C   UNL     1       3.916   2.983  17.671  0.00  0.00    +0.000 C 
BRANCH  22  23
ATOM     23  C   UNL     1       3.639   2.603  19.087  0.00  0.00    +0.000 A 
ATOM     24  N   UNL     1       4.544   2.411  20.024  0.00  0.00    +0.000 NA
ATOM     25  N   UNL     1       3.890   2.168  21.211  0.00  0.00    +0.000 NA
ATOM     26  C   UNL     1       2.603   2.211  20.972  0.00  0.00    +0.000 A 
ATOM     27  N   UNL     1       2.393   2.451  19.646  0.00  0.00    +0.000 N 
ATOM     28  C   UNL     1       1.115   2.527  18.997  0.00  0.00    +0.000 C 
ENDBRANCH  22  23
ENDBRANCH  20  22
ENDBRANCH   3  16
TORSDOF 5
ENDMDL
MODEL 9
REMARK VINA RESULT:      -8.0      4.782      8.590
REMARK  Name = 
REMARK  7 active torsions:
REMARK  status: ('A' for Active; 'I' for Inactive)
REMARK    1  A    between atoms: C_1  and  C_2
REMARK    2  A    between atoms: C_3  and  C_4
REMARK    3  A    between atoms: N_6  and  C_7
REMARK    4  A    between atoms: C_11  and  C_12
REMARK    5  A    between atoms: C_12  and  C_13
REMARK    6  A    between atoms: N_17  and  C_18
REMARK    7  A    between atoms: C_23  and  C_24
REMARK                            x       y       z     vdW  Elec       q    Type
REMARK                         _______ _______ _______ _____ _____    ______ ____
ROOT
ATOM      1  C   UNL     1       2.024   7.316  19.774  0.00  0.00    +0.000 C 
ATOM      2  O   UNL     1       1.855   6.299  20.441  0.00  0.00    +0.000 OA
ATOM      3  N   UNL     1       2.835   7.419  18.655  0.00  0.00    +0.000 N 
ATOM      4  H   UNL     1       3.007   8.344  18.282  0.00  0.00    +0.000 HD
ENDROOT
BRANCH   1   7
ATOM      5  C   UNL     1       0.817   9.577  17.989  0.00  0.00    +0.000 C 
ATOM      6  C   UNL     1       0.789   9.594  19.495  0.00  0.00    +0.000 A 
ATOM      7  C   UNL     1       1.366   8.564  20.280  0.00  0.00    +0.000 A 
ATOM      8  C   UNL     1       1.257   8.611  21.686  0.00  0.00    +0.000 A 
ATOM      9  C   UNL     1       0.596   9.647  22.331  0.00  0.00    +0.000 A 
ATOM     10  C   UNL     1       0.038  10.666  21.575  0.00  0.00    +0.000 A 
ATOM     11  C   UNL     1       0.129  10.669  20.165  0.00  0.00    +0.000 A 
BRANCH  11  12
ATOM     12  C   UNL     1      -0.546  11.845  19.476  0.00  0.00    +0.000 C 
ATOM     13  F   UNL     1       0.244  12.572  18.642  0.00  0.00    +0.000 F 
ATOM     14  F   UNL     1      -1.612  11.449  18.724  0.00  0.00    +0.000 F 
ATOM     15  F   UNL     1      -1.044  12.743  20.374  0.00  0.00    +0.000 F 
ENDBRANCH  11  12
ENDBRANCH   1   7
BRANCH   3  16
ATOM     16  C   UNL     1       3.594   6.365  18.084  0.00  0.00    +0.000 A 
ATOM     17  C   UNL     1       4.443   6.528  16.986  0.00  0.00    +0.000 A 
ATOM     18  C   UNL     1       5.066   5.430  16.389  0.00  0.00    +0.000 A 
ATOM     19  C   UNL     1       4.867   4.152  16.900  0.00  0.00    +0.000 A 
ATOM     20  C   UNL     1       4.081   3.970  18.044  0.00  0.00    +0.000 A 
ATOM     21  C   UNL     1       3.454   5.085  18.634  0.00  0.00    +0.000 A 
BRANCH  20  22
ATOM     22  C   UNL     1       3.878   2.581  18.607  0.00  0.00    +0.000 C 
BRANCH  22  23
ATOM     23  C   UNL     1       3.094   2.540  19.876  0.00  0.00    +0.000 A 
ATOM     24  N   UNL     1       3.596   2.573  21.093  0.00  0.00    +0.000 NA
ATOM     25  N   UNL     1       2.552   2.611  21.989  0.00  0.00    +0.000 NA
ATOM     26  C   UNL     1       1.437   2.595  21.302  0.00  0.00    +0.000 A 
ATOM     27  N   UNL     1       1.723   2.520  19.970  0.00  0.00    +0.000 N 
ATOM     28  C   UNL     1       0.762   2.441  18.906  0.00  0.00    +0.000 C 
ENDBRANCH  22  23
ENDBRANCH  20  22
ENDBRANCH   3  16
TORSDOF 5
ENDMDL
