MODEL 1
REMARK VINA RESULT:      -7.9      0.000      0.000
REMARK  Name = 
REMARK  7 active torsions:
REMARK  status: ('A' for Active; 'I' for Inactive)
REMARK    1  A    between atoms: C_1  and  C_2
REMARK    2  A    between atoms: N_4  and  C_5
REMARK    3  A    between atoms: C_11  and  C_12
REMARK    4  A    between atoms: C_13  and  N_14
REMARK    5  A    between atoms: C_15  and  C_17
REMARK    6  A    between atoms: C_17  and  N_18
REMARK    7  A    between atoms: C_21  and  C_22
REMARK                            x       y       z     vdW  Elec       q    Type
REMARK                         _______ _______ _______ _____ _____    ______ ____
ROOT
ATOM      1  N   UNL     1       0.486  11.015  20.469  0.00  0.00    +0.000 N 
ATOM      2  C   UNL     1       0.320  10.596  19.158  0.00  0.00    +0.000 C 
ATOM      3  O   UNL     1      -0.764  10.323  18.651  0.00  0.00    +0.000 OA
ATOM      4  H   UNL     1       1.436  11.061  20.834  0.00  0.00    +0.000 HD
ENDROOT
BRANCH   1  11
ATOM      5  C   UNL     1      -0.208   9.470  23.184  0.00  0.00    +0.000 C 
ATOM      6  C   UNL     1      -0.809  10.698  22.603  0.00  0.00    +0.000 A 
ATOM      7  N   UNL     1      -1.760  11.318  23.301  0.00  0.00    +0.000 NA
ATOM      8  N   UNL     1      -2.232  12.281  22.477  0.00  0.00    +0.000 N 
ATOM      9  C   UNL     1      -1.444  12.407  21.336  0.00  0.00    +0.000 A 
ATOM     10  C   UNL     1      -1.549  13.581  20.421  0.00  0.00    +0.000 C 
ATOM     11  C   UNL     1      -0.533  11.355  21.369  0.00  0.00    +0.000 A 
BRANCH   8  12
ATOM     12  C   UNL     1      -3.368  13.037  22.887  0.00  0.00    +0.000 A 
ATOM     13  C   UNL     1      -3.199  14.046  23.847  0.00  0.00    +0.000 A 
ATOM     14  C   UNL     1      -4.275  14.859  24.209  0.00  0.00    +0.000 A 
ATOM     15  C   UNL     1      -5.531  14.643  23.647  0.00  0.00    +0.000 A 
ATOM     16  C   UNL     1      -5.719  13.604  22.736  0.00  0.00    +0.000 A 
ATOM     17  C   UNL     1      -4.642  12.798  22.355  0.00  0.00    +0.000 A 
ENDBRANCH   8  12
ENDBRANCH   1  11
BRANCH   2  18
ATOM     18  C   UNL     1       1.551  10.293  18.343  0.00  0.00    +0.000 C 
BRANCH  18  19
ATOM     19  N   UNL     1       2.032   8.933  18.337  0.00  0.00    +0.000 N 
ATOM     20  N   UNL     1       1.917   8.191  19.453  0.00  0.00    +0.000 NA
ATOM     21  N   UNL     1       2.578   7.078  19.193  0.00  0.00    +0.000 NA
ATOM     22  C   UNL     1       3.104   7.209  17.929  0.00  0.00    +0.000 A 
ATOM     23  N   UNL     1       2.831   8.413  17.378  0.00  0.00    +0.000 NA
BRANCH  22  24
ATOM     24  C   UNL     1       3.840   6.127  17.289  0.00  0.00    +0.000 A 
ATOM     25  C   UNL     1       4.888   6.422  16.398  0.00  0.00    +0.000 A 
ATOM     26  C   UNL     1       5.632   5.397  15.809  0.00  0.00    +0.000 A 
ATOM     27  C   UNL     1       5.326   4.077  16.106  0.00  0.00    +0.000 A 
ATOM     28  F   UNL     1       6.044   3.092  15.550  0.00  0.00    +0.000 F 
ATOM     29  C   UNL     1       4.288   3.760  16.975  0.00  0.00    +0.000 A 
ATOM     30  C   UNL     1       3.543   4.785  17.566  0.00  0.00    +0.000 A 
ENDBRANCH  22  24
ENDBRANCH  18  19
ENDBRANCH   2  18
TORSDOF 5
ENDMDL
MODEL 2
REMARK VINA RESULT:      -7.9      0.863      1.692
REMARK  Name = 
REMARK  7 active torsions:
REMARK  status: ('A' for Active; 'I' for Inactive)
REMARK    1  A    between atoms: C_1  and  C_2
REMARK    2  A    between atoms: N_4  and  C_5
REMARK    3  A    between atoms: C_11  and  C_12
REMARK    4  A    between atoms: C_13  and  N_14
REMARK    5  A    between atoms: C_15  and  C_17
REMARK    6  A    between atoms: C_17  and  N_18
REMARK    7  A    between atoms: C_21  and  C_22
REMARK                            x       y       z     vdW  Elec       q    Type
REMARK                         _______ _______ _______ _____ _____    ______ ____
ROOT
ATOM      1  N   UNL     1       0.690  11.312  20.380  0.00  0.00    +0.000 N 
ATOM      2  C   UNL     1       0.232  10.755  19.197  0.00  0.00    +0.000 C 
ATOM      3  O   UNL     1      -0.937  10.444  18.985  0.00  0.00    +0.000 OA
ATOM      4  H   UNL     1       1.698  11.384  20.510  0.00  0.00    +0.000 HD
ENDROOT
BRANCH   1  11
ATOM      5  C   UNL     1      -0.443   9.508  22.769  0.00  0.00    +0.000 C 
ATOM      6  C   UNL     1      -0.561  10.970  22.537  0.00  0.00    +0.000 A 
ATOM      7  N   UNL     1      -1.189  11.700  23.459  0.00  0.00    +0.000 NA
ATOM      8  N   UNL     1      -1.294  12.936  22.920  0.00  0.00    +0.000 N 
ATOM      9  C   UNL     1      -0.553  13.045  21.746  0.00  0.00    +0.000 A 
ATOM     10  C   UNL     1      -0.241  14.363  21.121  0.00  0.00    +0.000 C 
ATOM     11  C   UNL     1      -0.099  11.764  21.447  0.00  0.00    +0.000 A 
BRANCH   8  12
ATOM     12  C   UNL     1      -2.052  13.924  23.613  0.00  0.00    +0.000 A 
ATOM     13  C   UNL     1      -3.408  14.084  23.293  0.00  0.00    +0.000 A 
ATOM     14  C   UNL     1      -4.198  14.985  24.009  0.00  0.00    +0.000 A 
ATOM     15  C   UNL     1      -3.630  15.759  25.019  0.00  0.00    +0.000 A 
ATOM     16  C   UNL     1      -2.269  15.647  25.303  0.00  0.00    +0.000 A 
ATOM     17  C   UNL     1      -1.477  14.733  24.602  0.00  0.00    +0.000 A 
ENDBRANCH   8  12
ENDBRANCH   1  11
BRANCH   2  18
ATOM     18  C   UNL     1       1.246  10.346  18.159  0.00  0.00    +0.000 C 
BRANCH  18  19
ATOM     19  N   UNL     1       1.807   9.020  18.257  0.00  0.00    +0.000 N 
ATOM     20  N   UNL     1       1.733   8.361  19.427  0.00  0.00    +0.000 NA
ATOM     21  N   UNL     1       2.460   7.272  19.252  0.00  0.00    +0.000 NA
ATOM     22  C   UNL     1       2.980   7.337  17.982  0.00  0.00    +0.000 A 
ATOM     23  N   UNL     1       2.638   8.476  17.340  0.00  0.00    +0.000 NA
BRANCH  22  24
ATOM     24  C   UNL     1       3.781   6.255  17.425  0.00  0.00    +0.000 A 
ATOM     25  C   UNL     1       3.434   4.917  17.688  0.00  0.00    +0.000 A 
ATOM     26  C   UNL     1       4.164   3.868  17.125  0.00  0.00    +0.000 A 
ATOM     27  C   UNL     1       5.245   4.155  16.304  0.00  0.00    +0.000 A 
ATOM     28  F   UNL     1       5.942   3.151  15.756  0.00  0.00    +0.000 F 
ATOM     29  C   UNL     1       5.614   5.468  16.037  0.00  0.00    +0.000 A 
ATOM     30  C   UNL     1       4.883   6.520  16.598  0.00  0.00    +0.000 A 
ENDBRANCH  22  24
ENDBRANCH  18  19
ENDBRANCH   2  18
TORSDOF 5
ENDMDL
MODEL 3
REMARK VINA RESULT:      -7.8      2.559      4.342
REMARK  Name = 
REMARK  7 active torsions:
REMARK  status: ('A' for Active; 'I' for Inactive)
REMARK    1  A    between atoms: C_1  and  C_2
REMARK    2  A    between atoms: N_4  and  C_5
REMARK    3  A    between atoms: C_11  and  C_12
REMARK    4  A    between atoms: C_13  and  N_14
REMARK    5  A    between atoms: C_15  and  C_17
REMARK    6  A    between atoms: C_17  and  N_18
REMARK    7  A    between atoms: C_21  and  C_22
REMARK                            x       y       z     vdW  Elec       q    Type
REMARK                         _______ _______ _______ _____ _____    ______ ____
ROOT
ATOM      1  N   UNL     1       2.178   7.009  20.608  0.00  0.00    +0.000 N 
ATOM      2  C   UNL     1       1.633   5.736  20.626  0.00  0.00    +0.000 C 
ATOM      3  O   UNL     1       0.432   5.495  20.529  0.00  0.00    +0.000 OA
ATOM      4  H   UNL     1       3.162   7.105  20.854  0.00  0.00    +0.000 HD
ENDROOT
BRANCH   1  11
ATOM      5  C   UNL     1       2.339   8.622  17.849  0.00  0.00    +0.000 C 
ATOM      6  C   UNL     1       1.534   8.892  19.067  0.00  0.00    +0.000 A 
ATOM      7  N   UNL     1       0.698   9.930  19.046  0.00  0.00    +0.000 NA
ATOM      8  N   UNL     1       0.234  10.035  20.312  0.00  0.00    +0.000 N 
ATOM      9  C   UNL     1       0.614   8.942  21.087  0.00  0.00    +0.000 A 
ATOM     10  C   UNL     1      -0.010   8.649  22.410  0.00  0.00    +0.000 C 
ATOM     11  C   UNL     1       1.501   8.201  20.313  0.00  0.00    +0.000 A 
BRANCH   8  12
ATOM     12  C   UNL     1      -0.585  11.151  20.651  0.00  0.00    +0.000 A 
ATOM     13  C   UNL     1      -0.357  11.813  21.867  0.00  0.00    +0.000 A 
ATOM     14  C   UNL     1      -1.087  12.959  22.190  0.00  0.00    +0.000 A 
ATOM     15  C   UNL     1      -2.074  13.424  21.324  0.00  0.00    +0.000 A 
ATOM     16  C   UNL     1      -2.346  12.736  20.142  0.00  0.00    +0.000 A 
ATOM     17  C   UNL     1      -1.606  11.599  19.803  0.00  0.00    +0.000 A 
ENDBRANCH   8  12
ENDBRANCH   1  11
BRANCH   2  18
ATOM     18  C   UNL     1       2.536   4.575  20.952  0.00  0.00    +0.000 C 
BRANCH  18  19
ATOM     19  N   UNL     1       3.447   4.126  19.926  0.00  0.00    +0.000 N 
ATOM     20  N   UNL     1       4.136   2.986  20.113  0.00  0.00    +0.000 NA
ATOM     21  N   UNL     1       4.983   2.930  19.102  0.00  0.00    +0.000 NA
ATOM     22  C   UNL     1       4.797   4.070  18.357  0.00  0.00    +0.000 A 
ATOM     23  N   UNL     1       3.867   4.891  18.894  0.00  0.00    +0.000 NA
BRANCH  22  24
ATOM     24  C   UNL     1       5.523   4.303  17.117  0.00  0.00    +0.000 A 
ATOM     25  C   UNL     1       4.856   4.203  15.882  0.00  0.00    +0.000 A 
ATOM     26  C   UNL     1       5.527   4.467  14.686  0.00  0.00    +0.000 A 
ATOM     27  C   UNL     1       6.867   4.826  14.722  0.00  0.00    +0.000 A 
ATOM     28  F   UNL     1       7.510   5.089  13.578  0.00  0.00    +0.000 F 
ATOM     29  C   UNL     1       7.551   4.922  15.929  0.00  0.00    +0.000 A 
ATOM     30  C   UNL     1       6.880   4.660  17.127  0.00  0.00    +0.000 A 
ENDBRANCH  22  24
ENDBRANCH  18  19
ENDBRANCH   2  18
TORSDOF 5
ENDMDL
MODEL 4
REMARK VINA RESULT:      -7.8      2.499      3.386
REMARK  Name = 
REMARK  7 active torsions:
REMARK  status: ('A' for Active; 'I' for Inactive)
REMARK    1  A    between atoms: C_1  and  C_2
REMARK    2  A    between atoms: N_4  and  C_5
REMARK    3  A    between atoms: C_11  and  C_12
REMARK    4  A    between atoms: C_13  and  N_14
REMARK    5  A    between atoms: C_15  and  C_17
REMARK    6  A    between atoms: C_17  and  N_18
REMARK    7  A    between atoms: C_21  and  C_22
REMARK                            x       y       z     vdW  Elec       q    Type
REMARK                         _______ _______ _______ _____ _____    ______ ____
ROOT
ATOM      1  N   UNL     1      -1.088  11.338  18.020  0.00  0.00    +0.000 N 
ATOM      2  C   UNL     1      -0.325  10.449  18.759  0.00  0.00    +0.000 C 
ATOM      3  O   UNL     1      -0.738   9.824  19.732  0.00  0.00    +0.000 OA
ATOM      4  H   UNL     1      -0.606  11.920  17.336  0.00  0.00    +0.000 HD
ENDROOT
BRANCH   1  11
ATOM      5  C   UNL     1      -3.307  10.443  15.895  0.00  0.00    +0.000 C 
ATOM      6  C   UNL     1      -3.461  11.104  17.216  0.00  0.00    +0.000 A 
ATOM      7  N   UNL     1      -4.697  11.347  17.652  0.00  0.00    +0.000 NA
ATOM      8  N   UNL     1      -4.537  12.089  18.772  0.00  0.00    +0.000 N 
ATOM      9  C   UNL     1      -3.201  12.145  19.160  0.00  0.00    +0.000 A 
ATOM     10  C   UNL     1      -2.783  12.625  20.509  0.00  0.00    +0.000 C 
ATOM     11  C   UNL     1      -2.469  11.548  18.138  0.00  0.00    +0.000 A 
BRANCH   8  12
ATOM     12  C   UNL     1      -5.692  12.633  19.404  0.00  0.00    +0.000 A 
ATOM     13  C   UNL     1      -6.456  11.808  20.244  0.00  0.00    +0.000 A 
ATOM     14  C   UNL     1      -7.544  12.332  20.943  0.00  0.00    +0.000 A 
ATOM     15  C   UNL     1      -7.903  13.668  20.775  0.00  0.00    +0.000 A 
ATOM     16  C   UNL     1      -7.184  14.478  19.896  0.00  0.00    +0.000 A 
ATOM     17  C   UNL     1      -6.080  13.965  19.208  0.00  0.00    +0.000 A 
ENDBRANCH   8  12
ENDBRANCH   1  11
BRANCH   2  18
ATOM     18  C   UNL     1       1.151  10.358  18.468  0.00  0.00    +0.000 C 
BRANCH  18  19
ATOM     19  N   UNL     1       1.758   9.049  18.483  0.00  0.00    +0.000 N 
ATOM     20  N   UNL     1       1.760   8.341  19.626  0.00  0.00    +0.000 NA
ATOM     21  N   UNL     1       2.512   7.285  19.373  0.00  0.00    +0.000 NA
ATOM     22  C   UNL     1       2.971   7.420  18.084  0.00  0.00    +0.000 A 
ATOM     23  N   UNL     1       2.562   8.572  17.507  0.00  0.00    +0.000 NA
BRANCH  22  24
ATOM     24  C   UNL     1       3.778   6.389  17.446  0.00  0.00    +0.000 A 
ATOM     25  C   UNL     1       3.444   5.032  17.610  0.00  0.00    +0.000 A 
ATOM     26  C   UNL     1       4.181   4.034  16.969  0.00  0.00    +0.000 A 
ATOM     27  C   UNL     1       5.257   4.391  16.168  0.00  0.00    +0.000 A 
ATOM     28  F   UNL     1       5.959   3.436  15.544  0.00  0.00    +0.000 F 
ATOM     29  C   UNL     1       5.613   5.723  15.998  0.00  0.00    +0.000 A 
ATOM     30  C   UNL     1       4.875   6.724  16.638  0.00  0.00    +0.000 A 
ENDBRANCH  22  24
ENDBRANCH  18  19
ENDBRANCH   2  18
TORSDOF 5
ENDMDL
MODEL 5
REMARK VINA RESULT:      -7.7      0.851      1.089
REMARK  Name = 
REMARK  7 active torsions:
REMARK  status: ('A' for Active; 'I' for Inactive)
REMARK    1  A    between atoms: C_1  and  C_2
REMARK    2  A    between atoms: N_4  and  C_5
REMARK    3  A    between atoms: C_11  and  C_12
REMARK    4  A    between atoms: C_13  and  N_14
REMARK    5  A    between atoms: C_15  and  C_17
REMARK    6  A    between atoms: C_17  and  N_18
REMARK    7  A    between atoms: C_21  and  C_22
REMARK                            x       y       z     vdW  Elec       q    Type
REMARK                         _______ _______ _______ _____ _____    ______ ____
ROOT
ATOM      1  N   UNL     1       0.747  11.313  20.526  0.00  0.00    +0.000 N 
ATOM      2  C   UNL     1       0.397  11.097  19.203  0.00  0.00    +0.000 C 
ATOM      3  O   UNL     1      -0.756  11.113  18.781  0.00  0.00    +0.000 OA
ATOM      4  H   UNL     1       1.710  11.120  20.798  0.00  0.00    +0.000 HD
ENDROOT
BRANCH   1  11
ATOM      5  C   UNL     1      -0.403   9.496  22.896  0.00  0.00    +0.000 C 
ATOM      6  C   UNL     1      -0.575  10.948  22.636  0.00  0.00    +0.000 A 
ATOM      7  N   UNL     1      -1.272  11.662  23.520  0.00  0.00    +0.000 NA
ATOM      8  N   UNL     1      -1.409  12.884  22.957  0.00  0.00    +0.000 N 
ATOM      9  C   UNL     1      -0.625  13.009  21.812  0.00  0.00    +0.000 A 
ATOM     10  C   UNL     1      -0.346  14.331  21.179  0.00  0.00    +0.000 C 
ATOM     11  C   UNL     1      -0.104  11.745  21.553  0.00  0.00    +0.000 A 
BRANCH   8  12
ATOM     12  C   UNL     1      -2.237  13.847  23.603  0.00  0.00    +0.000 A 
ATOM     13  C   UNL     1      -1.683  14.647  24.614  0.00  0.00    +0.000 A 
ATOM     14  C   UNL     1      -2.444  15.655  25.209  0.00  0.00    +0.000 A 
ATOM     15  C   UNL     1      -3.771  15.842  24.828  0.00  0.00    +0.000 A 
ATOM     16  C   UNL     1      -4.345  15.011  23.866  0.00  0.00    +0.000 A 
ATOM     17  C   UNL     1      -3.583  14.013  23.253  0.00  0.00    +0.000 A 
ENDBRANCH   8  12
ENDBRANCH   1  11
BRANCH   2  18
ATOM     18  C   UNL     1       1.468  10.647  18.243  0.00  0.00    +0.000 C 
BRANCH  18  19
ATOM     19  N   UNL     1       1.888   9.268  18.306  0.00  0.00    +0.000 N 
ATOM     20  N   UNL     1       1.692   8.573  19.441  0.00  0.00    +0.000 NA
ATOM     21  N   UNL     1       2.314   7.424  19.250  0.00  0.00    +0.000 NA
ATOM     22  C   UNL     1       2.901   7.487  18.008  0.00  0.00    +0.000 A 
ATOM     23  N   UNL     1       2.706   8.680  17.404  0.00  0.00    +0.000 NA
BRANCH  22  24
ATOM     24  C   UNL     1       3.616   6.353  17.440  0.00  0.00    +0.000 A 
ATOM     25  C   UNL     1       4.750   6.569  16.635  0.00  0.00    +0.000 A 
ATOM     26  C   UNL     1       5.472   5.491  16.119  0.00  0.00    +0.000 A 
ATOM     27  C   UNL     1       5.060   4.196  16.401  0.00  0.00    +0.000 A 
ATOM     28  F   UNL     1       5.756   3.161  15.915  0.00  0.00    +0.000 F 
ATOM     29  C   UNL     1       3.937   3.957  17.185  0.00  0.00    +0.000 A 
ATOM     30  C   UNL     1       3.213   5.035  17.704  0.00  0.00    +0.000 A 
ENDBRANCH  22  24
ENDBRANCH  18  19
ENDBRANCH   2  18
TORSDOF 5
ENDMDL
MODEL 6
REMARK VINA RESULT:      -7.6      2.182      2.740
REMARK  Name = 
REMARK  7 active torsions:
REMARK  status: ('A' for Active; 'I' for Inactive)
REMARK    1  A    between atoms: C_1  and  C_2
REMARK    2  A    between atoms: N_4  and  C_5
REMARK    3  A    between atoms: C_11  and  C_12
REMARK    4  A    between atoms: C_13  and  N_14
REMARK    5  A    between atoms: C_15  and  C_17
REMARK    6  A    between atoms: C_17  and  N_18
REMARK    7  A    between atoms: C_21  and  C_22
REMARK                            x       y       z     vdW  Elec       q    Type
REMARK                         _______ _______ _______ _____ _____    ______ ____
ROOT
ATOM      1  N   UNL     1       0.321  10.103  19.764  0.00  0.00    +0.000 N 
ATOM      2  C   UNL     1       1.286  10.677  18.953  0.00  0.00    +0.000 C 
ATOM      3  O   UNL     1       1.654  11.846  19.036  0.00  0.00    +0.000 OA
ATOM      4  H   UNL     1      -0.022   9.178  19.509  0.00  0.00    +0.000 HD
ENDROOT
BRANCH   1  11
ATOM      5  C   UNL     1       0.773   9.169  22.792  0.00  0.00    +0.000 C 
ATOM      6  C   UNL     1      -0.024  10.298  22.250  0.00  0.00    +0.000 A 
ATOM      7  N   UNL     1      -0.632  11.106  23.118  0.00  0.00    +0.000 NA
ATOM      8  N   UNL     1      -1.404  11.920  22.362  0.00  0.00    +0.000 N 
ATOM      9  C   UNL     1      -1.130  11.767  21.005  0.00  0.00    +0.000 A 
ATOM     10  C   UNL     1      -1.602  12.745  19.982  0.00  0.00    +0.000 C 
ATOM     11  C   UNL     1      -0.265  10.682  20.899  0.00  0.00    +0.000 A 
BRANCH   8  12
ATOM     12  C   UNL     1      -2.297  12.819  23.015  0.00  0.00    +0.000 A 
ATOM     13  C   UNL     1      -1.794  14.031  23.511  0.00  0.00    +0.000 A 
ATOM     14  C   UNL     1      -2.657  14.969  24.081  0.00  0.00    +0.000 A 
ATOM     15  C   UNL     1      -4.016  14.684  24.198  0.00  0.00    +0.000 A 
ATOM     16  C   UNL     1      -4.512  13.455  23.761  0.00  0.00    +0.000 A 
ATOM     17  C   UNL     1      -3.656  12.521  23.171  0.00  0.00    +0.000 A 
ENDBRANCH   8  12
ENDBRANCH   1  11
BRANCH   2  18
ATOM     18  C   UNL     1       1.806   9.880  17.784  0.00  0.00    +0.000 C 
BRANCH  18  19
ATOM     19  N   UNL     1       2.411   8.600  18.062  0.00  0.00    +0.000 N 
ATOM     20  N   UNL     1       3.306   8.095  17.195  0.00  0.00    +0.000 NA
ATOM     21  N   UNL     1       3.550   6.872  17.629  0.00  0.00    +0.000 NA
ATOM     22  C   UNL     1       2.755   6.671  18.732  0.00  0.00    +0.000 A 
ATOM     23  N   UNL     1       1.962   7.733  18.998  0.00  0.00    +0.000 NA
BRANCH  22  24
ATOM     24  C   UNL     1       2.822   5.443  19.512  0.00  0.00    +0.000 A 
ATOM     25  C   UNL     1       1.940   5.247  20.590  0.00  0.00    +0.000 A 
ATOM     26  C   UNL     1       1.961   4.057  21.321  0.00  0.00    +0.000 A 
ATOM     27  C   UNL     1       2.867   3.064  20.978  0.00  0.00    +0.000 A 
ATOM     28  F   UNL     1       2.883   1.918  21.671  0.00  0.00    +0.000 F 
ATOM     29  C   UNL     1       3.756   3.238  19.924  0.00  0.00    +0.000 A 
ATOM     30  C   UNL     1       3.735   4.428  19.190  0.00  0.00    +0.000 A 
ENDBRANCH  22  24
ENDBRANCH  18  19
ENDBRANCH   2  18
TORSDOF 5
ENDMDL
MODEL 7
REMARK VINA RESULT:      -7.6      1.315      1.790
REMARK  Name = 
REMARK  7 active torsions:
REMARK  status: ('A' for Active; 'I' for Inactive)
REMARK    1  A    between atoms: C_1  and  C_2
REMARK    2  A    between atoms: N_4  and  C_5
REMARK    3  A    between atoms: C_11  and  C_12
REMARK    4  A    between atoms: C_13  and  N_14
REMARK    5  A    between atoms: C_15  and  C_17
REMARK    6  A    between atoms: C_17  and  N_18
REMARK    7  A    between atoms: C_21  and  C_22
REMARK                            x       y       z     vdW  Elec       q    Type
REMARK                         _______ _______ _______ _____ _____    ______ ____
ROOT
ATOM      1  N   UNL     1      -0.097  10.268  20.200  0.00  0.00    +0.000 N 
ATOM      2  C   UNL     1       0.979  10.732  19.462  0.00  0.00    +0.000 C 
ATOM      3  O   UNL     1       1.397  11.887  19.499  0.00  0.00    +0.000 OA
ATOM      4  H   UNL     1      -0.459   9.342  19.977  0.00  0.00    +0.000 HD
ENDROOT
BRANCH   1  11
ATOM      5  C   UNL     1      -0.024   9.563  23.321  0.00  0.00    +0.000 C 
ATOM      6  C   UNL     1      -0.699  10.678  22.609  0.00  0.00    +0.000 A 
ATOM      7  N   UNL     1      -1.355  11.579  23.341  0.00  0.00    +0.000 NA
ATOM      8  N   UNL     1      -1.997  12.362  22.444  0.00  0.00    +0.000 N 
ATOM      9  C   UNL     1      -1.587  12.088  21.141  0.00  0.00    +0.000 A 
ATOM     10  C   UNL     1      -1.894  12.999  20.001  0.00  0.00    +0.000 C 
ATOM     11  C   UNL     1      -0.772  10.962  21.214  0.00  0.00    +0.000 A 
BRANCH   8  12
ATOM     12  C   UNL     1      -2.908  13.348  22.923  0.00  0.00    +0.000 A 
ATOM     13  C   UNL     1      -4.278  13.182  22.671  0.00  0.00    +0.000 A 
ATOM     14  C   UNL     1      -5.203  14.085  23.197  0.00  0.00    +0.000 A 
ATOM     15  C   UNL     1      -4.764  15.180  23.939  0.00  0.00    +0.000 A 
ATOM     16  C   UNL     1      -3.399  15.383  24.142  0.00  0.00    +0.000 A 
ATOM     17  C   UNL     1      -2.469  14.471  23.635  0.00  0.00    +0.000 A 
ENDBRANCH   8  12
ENDBRANCH   1  11
BRANCH   2  18
ATOM     18  C   UNL     1       1.580   9.822  18.422  0.00  0.00    +0.000 C 
BRANCH  18  19
ATOM     19  N   UNL     1       1.790   8.441  18.782  0.00  0.00    +0.000 N 
ATOM     20  N   UNL     1       1.823   8.099  20.082  0.00  0.00    +0.000 NA
ATOM     21  N   UNL     1       2.186   6.830  20.093  0.00  0.00    +0.000 NA
ATOM     22  C   UNL     1       2.399   6.462  18.786  0.00  0.00    +0.000 A 
ATOM     23  N   UNL     1       2.220   7.488  17.924  0.00  0.00    +0.000 NA
BRANCH  22  24
ATOM     24  C   UNL     1       2.745   5.095  18.420  0.00  0.00    +0.000 A 
ATOM     25  C   UNL     1       3.998   4.819  17.841  0.00  0.00    +0.000 A 
ATOM     26  C   UNL     1       4.363   3.508  17.525  0.00  0.00    +0.000 A 
ATOM     27  C   UNL     1       3.475   2.473  17.782  0.00  0.00    +0.000 A 
ATOM     28  F   UNL     1       3.826   1.215  17.489  0.00  0.00    +0.000 F 
ATOM     29  C   UNL     1       2.228   2.722  18.343  0.00  0.00    +0.000 A 
ATOM     30  C   UNL     1       1.861   4.034  18.662  0.00  0.00    +0.000 A 
ENDBRANCH  22  24
ENDBRANCH  18  19
ENDBRANCH   2  18
TORSDOF 5
ENDMDL
MODEL 8
REMARK VINA RESULT:      -7.6      1.158      1.637
REMARK  Name = 
REMARK  7 active torsions:
REMARK  status: ('A' for Active; 'I' for Inactive)
REMARK    1  A    between atoms: C_1  and  C_2
REMARK    2  A    between atoms: N_4  and  C_5
REMARK    3  A    between atoms: C_11  and  C_12
REMARK    4  A    between atoms: C_13  and  N_14
REMARK    5  A    between atoms: C_15  and  C_17
REMARK    6  A    between atoms: C_17  and  N_18
REMARK    7  A    between atoms: C_21  and  C_22
REMARK                            x       y       z     vdW  Elec       q    Type
REMARK                         _______ _______ _______ _____ _____    ______ ____
ROOT
ATOM      1  N   UNL     1       0.570  10.850  20.092  0.00  0.00    +0.000 N 
ATOM      2  C   UNL     1      -0.009  10.319  18.951  0.00  0.00    +0.000 C 
ATOM      3  O   UNL     1      -1.208  10.088  18.826  0.00  0.00    +0.000 OA
ATOM      4  H   UNL     1       1.588  10.853  20.149  0.00  0.00    +0.000 HD
ENDROOT
BRANCH   1  11
ATOM      5  C   UNL     1      -0.276   9.191  22.694  0.00  0.00    +0.000 C 
ATOM      6  C   UNL     1      -0.438  10.635  22.388  0.00  0.00    +0.000 A 
ATOM      7  N   UNL     1      -0.975  11.415  23.326  0.00  0.00    +0.000 NA
ATOM      8  N   UNL     1      -1.154  12.615  22.726  0.00  0.00    +0.000 N 
ATOM      9  C   UNL     1      -0.544  12.656  21.475  0.00  0.00    +0.000 A 
ATOM     10  C   UNL     1      -0.319  13.935  20.741  0.00  0.00    +0.000 C 
ATOM     11  C   UNL     1      -0.107  11.362  21.208  0.00  0.00    +0.000 A 
BRANCH   8  12
ATOM     12  C   UNL     1      -1.847  13.638  23.435  0.00  0.00    +0.000 A 
ATOM     13  C   UNL     1      -3.250  13.646  23.412  0.00  0.00    +0.000 A 
ATOM     14  C   UNL     1      -3.960  14.585  24.162  0.00  0.00    +0.000 A 
ATOM     15  C   UNL     1      -3.276  15.545  24.904  0.00  0.00    +0.000 A 
ATOM     16  C   UNL     1      -1.881  15.579  24.884  0.00  0.00    +0.000 A 
ATOM     17  C   UNL     1      -1.164  14.630  24.150  0.00  0.00    +0.000 A 
ENDBRANCH   8  12
ENDBRANCH   1  11
BRANCH   2  18
ATOM     18  C   UNL     1       0.897   9.835  17.848  0.00  0.00    +0.000 C 
BRANCH  18  19
ATOM     19  N   UNL     1       1.739   8.696  18.124  0.00  0.00    +0.000 N 
ATOM     20  N   UNL     1       1.681   8.115  19.336  0.00  0.00    +0.000 NA
ATOM     21  N   UNL     1       2.659   7.228  19.337  0.00  0.00    +0.000 NA
ATOM     22  C   UNL     1       3.301   7.337  18.126  0.00  0.00    +0.000 A 
ATOM     23  N   UNL     1       2.780   8.314  17.351  0.00  0.00    +0.000 NA
BRANCH  22  24
ATOM     24  C   UNL     1       4.396   6.451  17.756  0.00  0.00    +0.000 A 
ATOM     25  C   UNL     1       5.007   6.578  16.495  0.00  0.00    +0.000 A 
ATOM     26  C   UNL     1       6.087   5.765  16.142  0.00  0.00    +0.000 A 
ATOM     27  C   UNL     1       6.553   4.821  17.045  0.00  0.00    +0.000 A 
ATOM     28  F   UNL     1       7.594   4.047  16.713  0.00  0.00    +0.000 F 
ATOM     29  C   UNL     1       5.959   4.669  18.293  0.00  0.00    +0.000 A 
ATOM     30  C   UNL     1       4.879   5.483  18.649  0.00  0.00    +0.000 A 
ENDBRANCH  22  24
ENDBRANCH  18  19
ENDBRANCH   2  18
TORSDOF 5
ENDMDL
MODEL 9
REMARK VINA RESULT:      -7.6      1.031      1.554
REMARK  Name = 
REMARK  7 active torsions:
REMARK  status: ('A' for Active; 'I' for Inactive)
REMARK    1  A    between atoms: C_1  and  C_2
REMARK    2  A    between atoms: N_4  and  C_5
REMARK    3  A    between atoms: C_11  and  C_12
REMARK    4  A    between atoms: C_13  and  N_14
REMARK    5  A    between atoms: C_15  and  C_17
REMARK    6  A    between atoms: C_17  and  N_18
REMARK    7  A    between atoms: C_21  and  C_22
REMARK                            x       y       z     vdW  Elec       q    Type
REMARK                         _______ _______ _______ _____ _____    ______ ____
ROOT
ATOM      1  N   UNL     1      -0.334  11.032  20.013  0.00  0.00    +0.000 N 
ATOM      2  C   UNL     1       0.917  11.216  19.448  0.00  0.00    +0.000 C 
ATOM      3  O   UNL     1       1.744  12.032  19.846  0.00  0.00    +0.000 OA
ATOM      4  H   UNL     1      -0.999  10.446  19.510  0.00  0.00    +0.000 HD
ENDROOT
BRANCH   1  11
ATOM      5  C   UNL     1      -0.502   9.563  22.851  0.00  0.00    +0.000 C 
ATOM      6  C   UNL     1      -0.827  10.964  22.480  0.00  0.00    +0.000 A 
ATOM      7  N   UNL     1      -1.213  11.793  23.450  0.00  0.00    +0.000 NA
ATOM      8  N   UNL     1      -1.598  12.924  22.815  0.00  0.00    +0.000 N 
ATOM      9  C   UNL     1      -1.264  12.889  21.463  0.00  0.00    +0.000 A 
ATOM     10  C   UNL     1      -1.289  14.109  20.605  0.00  0.00    +0.000 C 
ATOM     11  C   UNL     1      -0.800  11.602  21.206  0.00  0.00    +0.000 A 
BRANCH   8  12
ATOM     12  C   UNL     1      -2.201  13.966  23.577  0.00  0.00    +0.000 A 
ATOM     13  C   UNL     1      -3.571  14.221  23.409  0.00  0.00    +0.000 A 
ATOM     14  C   UNL     1      -4.209  15.178  24.199  0.00  0.00    +0.000 A 
ATOM     15  C   UNL     1      -3.478  15.915  25.129  0.00  0.00    +0.000 A 
ATOM     16  C   UNL     1      -2.105  15.707  25.258  0.00  0.00    +0.000 A 
ATOM     17  C   UNL     1      -1.463  14.736  24.484  0.00  0.00    +0.000 A 
ENDBRANCH   8  12
ENDBRANCH   1  11
BRANCH   2  18
ATOM     18  C   UNL     1       1.234  10.496  18.162  0.00  0.00    +0.000 C 
BRANCH  18  19
ATOM     19  N   UNL     1       1.769   9.160  18.256  0.00  0.00    +0.000 N 
ATOM     20  N   UNL     1       1.677   8.497  19.423  0.00  0.00    +0.000 NA
ATOM     21  N   UNL     1       2.383   7.395  19.247  0.00  0.00    +0.000 NA
ATOM     22  C   UNL     1       2.912   7.456  17.979  0.00  0.00    +0.000 A 
ATOM     23  N   UNL     1       2.595   8.604  17.341  0.00  0.00    +0.000 NA
BRANCH  22  24
ATOM     24  C   UNL     1       3.695   6.361  17.422  0.00  0.00    +0.000 A 
ATOM     25  C   UNL     1       4.779   6.636  16.569  0.00  0.00    +0.000 A 
ATOM     26  C   UNL     1       5.567   5.601  16.061  0.00  0.00    +0.000 A 
ATOM     27  C   UNL     1       5.268   4.289  16.401  0.00  0.00    +0.000 A 
ATOM     28  F   UNL     1       6.027   3.295  15.923  0.00  0.00    +0.000 F 
ATOM     29  C   UNL     1       4.195   3.991  17.233  0.00  0.00    +0.000 A 
ATOM     30  C   UNL     1       3.407   5.026  17.744  0.00  0.00    +0.000 A 
ENDBRANCH  22  24
ENDBRANCH  18  19
ENDBRANCH   2  18
TORSDOF 5
ENDMDL
