MODEL 1
REMARK VINA RESULT:      -8.3      0.000      0.000
REMARK  Name = 
REMARK  3 active torsions:
REMARK  status: ('A' for Active; 'I' for Inactive)
REMARK    1  A    between atoms: C_2  and  C_3
REMARK    2  A    between atoms: C_15  and  C_16
REMARK    3  A    between atoms: C_20  and  C_21
REMARK                            x       y       z     vdW  Elec       q    Type
REMARK                         _______ _______ _______ _____ _____    ______ ____
ROOT
ATOM      1  O   UNL     1       0.667   8.467  22.038  0.00  0.00    +0.000 OA
ATOM      2  C   UNL     1       1.016   8.699  20.883  0.00  0.00    +0.000 C 
ATOM      3  N   UNL     1       1.718   7.761  20.103  0.00  0.00    +0.000 N 
ATOM      4  C   UNL     1       2.150   7.963  18.717  0.00  0.00    +0.000 C 
ATOM      5  C   UNL     1       1.852   6.749  17.849  0.00  0.00    +0.000 C 
ATOM      6  C   UNL     1       2.370   5.444  18.448  0.00  0.00    +0.000 C 
ATOM      7  C   UNL     1       1.935   5.308  19.914  0.00  0.00    +0.000 C 
ATOM      8  C   UNL     1       2.226   6.553  20.749  0.00  0.00    +0.000 C 
ENDROOT
BRANCH   2   9
ATOM      9  C   UNL     1       0.607  10.012  20.279  0.00  0.00    +0.000 A 
ATOM     10  C   UNL     1      -0.482  10.028  19.401  0.00  0.00    +0.000 A 
ATOM     11  C   UNL     1      -0.782  11.204  18.701  0.00  0.00    +0.000 A 
ATOM     12  C   UNL     1       0.063  12.301  18.904  0.00  0.00    +0.000 A 
ATOM     13  N   UNL     1       0.108  13.550  18.334  0.00  0.00    +0.000 NA
ATOM     14  C   UNL     1       1.152  14.139  18.880  0.00  0.00    +0.000 A 
ATOM     15  N   UNL     1       1.781  13.327  19.783  0.00  0.00    +0.000 N 
ATOM     16  C   UNL     1       1.082  12.159  19.831  0.00  0.00    +0.000 A 
ATOM     17  N   UNL     1       1.378  11.091  20.583  0.00  0.00    +0.000 NA
ATOM     18  H   UNL     1       2.624  13.522  20.302  0.00  0.00    +0.000 HD
ENDBRANCH   2   9
BRANCH   6  19
ATOM     19  C   UNL     1       3.865   5.312  18.267  0.00  0.00    +0.000 A 
ATOM     20  N   UNL     1       4.633   5.386  19.364  0.00  0.00    +0.000 NA
ATOM     21  C   UNL     1       5.953   5.238  19.175  0.00  0.00    +0.000 A 
ATOM     22  C   UNL     1       6.530   5.009  17.946  0.00  0.00    +0.000 A 
ATOM     23  C   UNL     1       5.672   4.933  16.868  0.00  0.00    +0.000 A 
ATOM     24  N   UNL     1       4.343   5.093  17.029  0.00  0.00    +0.000 NA
BRANCH  23  25
ATOM     25  C   UNL     1       6.121   4.693  15.480  0.00  0.00    +0.000 A 
ATOM     26  C   UNL     1       7.297   5.277  14.962  0.00  0.00    +0.000 A 
ATOM     27  C   UNL     1       7.687   5.068  13.635  0.00  0.00    +0.000 A 
ATOM     28  C   UNL     1       6.918   4.265  12.809  0.00  0.00    +0.000 A 
ATOM     29  F   UNL     1       7.286   4.078  11.535  0.00  0.00    +0.000 F 
ATOM     30  C   UNL     1       5.771   3.648  13.288  0.00  0.00    +0.000 A 
ATOM     31  C   UNL     1       5.382   3.859  14.613  0.00  0.00    +0.000 A 
ENDBRANCH  23  25
ENDBRANCH   6  19
TORSDOF 3
ENDMDL
MODEL 2
REMARK VINA RESULT:      -8.1      5.709     11.334
REMARK  Name = 
REMARK  3 active torsions:
REMARK  status: ('A' for Active; 'I' for Inactive)
REMARK    1  A    between atoms: C_2  and  C_3
REMARK    2  A    between atoms: C_15  and  C_16
REMARK    3  A    between atoms: C_20  and  C_21
REMARK                            x       y       z     vdW  Elec       q    Type
REMARK                         _______ _______ _______ _____ _____    ______ ____
ROOT
ATOM      1  O   UNL     1       1.177  10.116  21.986  0.00  0.00    +0.000 OA
ATOM      2  C   UNL     1       0.682   9.713  20.937  0.00  0.00    +0.000 C 
ATOM      3  N   UNL     1      -0.370  10.386  20.289  0.00  0.00    +0.000 N 
ATOM      4  C   UNL     1      -0.995   9.972  19.029  0.00  0.00    +0.000 C 
ATOM      5  C   UNL     1      -1.186  11.146  18.080  0.00  0.00    +0.000 C 
ATOM      6  C   UNL     1      -1.893  12.333  18.731  0.00  0.00    +0.000 C 
ATOM      7  C   UNL     1      -1.233  12.689  20.071  0.00  0.00    +0.000 C 
ATOM      8  C   UNL     1      -1.034  11.484  20.987  0.00  0.00    +0.000 C 
ENDROOT
BRANCH   2   9
ATOM      9  C   UNL     1       1.287   8.492  20.303  0.00  0.00    +0.000 A 
ATOM     10  C   UNL     1       1.248   7.288  21.013  0.00  0.00    +0.000 A 
ATOM     11  C   UNL     1       1.944   6.176  20.519  0.00  0.00    +0.000 A 
ATOM     12  C   UNL     1       2.676   6.355  19.340  0.00  0.00    +0.000 A 
ATOM     13  N   UNL     1       3.516   5.523  18.640  0.00  0.00    +0.000 NA
ATOM     14  C   UNL     1       3.961   6.252  17.636  0.00  0.00    +0.000 A 
ATOM     15  N   UNL     1       3.441   7.516  17.653  0.00  0.00    +0.000 N 
ATOM     16  C   UNL     1       2.596   7.591  18.719  0.00  0.00    +0.000 A 
ATOM     17  N   UNL     1       1.895   8.666  19.098  0.00  0.00    +0.000 NA
ATOM     18  H   UNL     1       3.653   8.276  17.026  0.00  0.00    +0.000 HD
ENDBRANCH   2   9
BRANCH   6  19
ATOM     19  C   UNL     1      -3.379  12.084  18.859  0.00  0.00    +0.000 A 
ATOM     20  N   UNL     1      -3.997  11.473  17.837  0.00  0.00    +0.000 NA
ATOM     21  C   UNL     1      -5.310  11.241  17.991  0.00  0.00    +0.000 A 
ATOM     22  C   UNL     1      -6.020  11.581  19.121  0.00  0.00    +0.000 A 
ATOM     23  C   UNL     1      -5.310  12.194  20.133  0.00  0.00    +0.000 A 
ATOM     24  N   UNL     1      -3.994  12.452  19.997  0.00  0.00    +0.000 NA
BRANCH  23  25
ATOM     25  C   UNL     1      -5.915  12.625  21.411  0.00  0.00    +0.000 A 
ATOM     26  C   UNL     1      -5.135  12.917  22.549  0.00  0.00    +0.000 A 
ATOM     27  C   UNL     1      -5.728  13.288  23.761  0.00  0.00    +0.000 A 
ATOM     28  C   UNL     1      -7.106  13.386  23.852  0.00  0.00    +0.000 A 
ATOM     29  F   UNL     1      -7.672  13.727  25.016  0.00  0.00    +0.000 F 
ATOM     30  C   UNL     1      -7.909  13.137  22.747  0.00  0.00    +0.000 A 
ATOM     31  C   UNL     1      -7.315  12.765  21.538  0.00  0.00    +0.000 A 
ENDBRANCH  23  25
ENDBRANCH   6  19
TORSDOF 3
ENDMDL
MODEL 3
REMARK VINA RESULT:      -8.0      5.482     11.204
REMARK  Name = 
REMARK  3 active torsions:
REMARK  status: ('A' for Active; 'I' for Inactive)
REMARK    1  A    between atoms: C_2  and  C_3
REMARK    2  A    between atoms: C_15  and  C_16
REMARK    3  A    between atoms: C_20  and  C_21
REMARK                            x       y       z     vdW  Elec       q    Type
REMARK                         _______ _______ _______ _____ _____    ______ ____
ROOT
ATOM      1  O   UNL     1       1.412   8.826  22.287  0.00  0.00    +0.000 OA
ATOM      2  C   UNL     1       1.089   8.848  21.102  0.00  0.00    +0.000 C 
ATOM      3  N   UNL     1       0.195   9.802  20.580  0.00  0.00    +0.000 N 
ATOM      4  C   UNL     1      -0.220   9.897  19.178  0.00  0.00    +0.000 C 
ATOM      5  C   UNL     1      -0.193  11.333  18.676  0.00  0.00    +0.000 C 
ATOM      6  C   UNL     1      -0.948  12.300  19.587  0.00  0.00    +0.000 C 
ATOM      7  C   UNL     1      -0.514  12.120  21.048  0.00  0.00    +0.000 C 
ATOM      8  C   UNL     1      -0.530  10.664  21.510  0.00  0.00    +0.000 C 
ENDROOT
BRANCH   2   9
ATOM      9  C   UNL     1       1.739   7.854  20.182  0.00  0.00    +0.000 A 
ATOM     10  C   UNL     1       2.168   8.296  18.926  0.00  0.00    +0.000 A 
ATOM     11  C   UNL     1       2.627   7.359  17.989  0.00  0.00    +0.000 A 
ATOM     12  C   UNL     1       2.596   6.012  18.365  0.00  0.00    +0.000 A 
ATOM     13  N   UNL     1       2.888   4.856  17.684  0.00  0.00    +0.000 NA
ATOM     14  C   UNL     1       2.625   3.883  18.531  0.00  0.00    +0.000 A 
ATOM     15  N   UNL     1       2.181   4.359  19.734  0.00  0.00    +0.000 N 
ATOM     16  C   UNL     1       2.183   5.719  19.655  0.00  0.00    +0.000 A 
ATOM     17  N   UNL     1       1.802   6.567  20.618  0.00  0.00    +0.000 NA
ATOM     18  H   UNL     1       1.873   3.824  20.531  0.00  0.00    +0.000 HD
ENDBRANCH   2   9
BRANCH   6  19
ATOM     19  C   UNL     1      -2.444  12.174  19.401  0.00  0.00    +0.000 A 
ATOM     20  N   UNL     1      -2.887  11.740  18.211  0.00  0.00    +0.000 NA
ATOM     21  C   UNL     1      -4.217  11.613  18.086  0.00  0.00    +0.000 A 
ATOM     22  C   UNL     1      -5.111  11.886  19.097  0.00  0.00    +0.000 A 
ATOM     23  C   UNL     1      -4.576  12.315  20.293  0.00  0.00    +0.000 A 
ATOM     24  N   UNL     1      -3.244  12.465  20.441  0.00  0.00    +0.000 NA
BRANCH  23  25
ATOM     25  C   UNL     1      -5.390  12.652  21.480  0.00  0.00    +0.000 A 
ATOM     26  C   UNL     1      -4.820  13.196  22.650  0.00  0.00    +0.000 A 
ATOM     27  C   UNL     1      -5.602  13.475  23.776  0.00  0.00    +0.000 A 
ATOM     28  C   UNL     1      -6.965  13.228  23.748  0.00  0.00    +0.000 A 
ATOM     29  F   UNL     1      -7.708  13.482  24.832  0.00  0.00    +0.000 F 
ATOM     30  C   UNL     1      -7.569  12.721  22.606  0.00  0.00    +0.000 A 
ATOM     31  C   UNL     1      -6.787  12.441  21.483  0.00  0.00    +0.000 A 
ENDBRANCH  23  25
ENDBRANCH   6  19
TORSDOF 3
ENDMDL
MODEL 4
REMARK VINA RESULT:      -8.0      0.946      1.316
REMARK  Name = 
REMARK  3 active torsions:
REMARK  status: ('A' for Active; 'I' for Inactive)
REMARK    1  A    between atoms: C_2  and  C_3
REMARK    2  A    between atoms: C_15  and  C_16
REMARK    3  A    between atoms: C_20  and  C_21
REMARK                            x       y       z     vdW  Elec       q    Type
REMARK                         _______ _______ _______ _____ _____    ______ ____
ROOT
ATOM      1  O   UNL     1       0.807   7.918  21.968  0.00  0.00    +0.000 OA
ATOM      2  C   UNL     1       1.197   8.250  20.852  0.00  0.00    +0.000 C 
ATOM      3  N   UNL     1       1.866   7.361  19.989  0.00  0.00    +0.000 N 
ATOM      4  C   UNL     1       2.343   7.684  18.641  0.00  0.00    +0.000 C 
ATOM      5  C   UNL     1       2.001   6.589  17.642  0.00  0.00    +0.000 C 
ATOM      6  C   UNL     1       2.431   5.199  18.108  0.00  0.00    +0.000 C 
ATOM      7  C   UNL     1       1.953   4.934  19.542  0.00  0.00    +0.000 C 
ATOM      8  C   UNL     1       2.291   6.065  20.511  0.00  0.00    +0.000 C 
ENDROOT
BRANCH   2   9
ATOM      9  C   UNL     1       0.876   9.641  20.384  0.00  0.00    +0.000 A 
ATOM     10  C   UNL     1       1.102  10.705  21.264  0.00  0.00    +0.000 A 
ATOM     11  C   UNL     1       0.661  11.989  20.915  0.00  0.00    +0.000 A 
ATOM     12  C   UNL     1      -0.019  12.123  19.699  0.00  0.00    +0.000 A 
ATOM     13  N   UNL     1      -0.641  13.192  19.102  0.00  0.00    +0.000 NA
ATOM     14  C   UNL     1      -1.155  12.710  17.988  0.00  0.00    +0.000 A 
ATOM     15  N   UNL     1      -0.888  11.378  17.837  0.00  0.00    +0.000 N 
ATOM     16  C   UNL     1      -0.139  10.992  18.907  0.00  0.00    +0.000 A 
ATOM     17  N   UNL     1       0.320   9.758  19.148  0.00  0.00    +0.000 NA
ATOM     18  H   UNL     1      -1.203  10.768  17.098  0.00  0.00    +0.000 HD
ENDBRANCH   2   9
BRANCH   6  19
ATOM     19  C   UNL     1       3.922   5.002  17.942  0.00  0.00    +0.000 A 
ATOM     20  N   UNL     1       4.665   4.920  19.057  0.00  0.00    +0.000 NA
ATOM     21  C   UNL     1       5.979   4.718  18.878  0.00  0.00    +0.000 A 
ATOM     22  C   UNL     1       6.573   4.582  17.643  0.00  0.00    +0.000 A 
ATOM     23  C   UNL     1       5.739   4.666  16.547  0.00  0.00    +0.000 A 
ATOM     24  N   UNL     1       4.417   4.883  16.698  0.00  0.00    +0.000 NA
BRANCH  23  25
ATOM     25  C   UNL     1       6.209   4.543  15.151  0.00  0.00    +0.000 A 
ATOM     26  C   UNL     1       7.345   5.235  14.679  0.00  0.00    +0.000 A 
ATOM     27  C   UNL     1       7.753   5.135  13.345  0.00  0.00    +0.000 A 
ATOM     28  C   UNL     1       7.044   4.336  12.465  0.00  0.00    +0.000 A 
ATOM     29  F   UNL     1       7.428   4.254  11.185  0.00  0.00    +0.000 F 
ATOM     30  C   UNL     1       5.938   3.616  12.895  0.00  0.00    +0.000 A 
ATOM     31  C   UNL     1       5.530   3.717  14.228  0.00  0.00    +0.000 A 
ENDBRANCH  23  25
ENDBRANCH   6  19
TORSDOF 3
ENDMDL
MODEL 5
REMARK VINA RESULT:      -8.0      1.146      1.816
REMARK  Name = 
REMARK  3 active torsions:
REMARK  status: ('A' for Active; 'I' for Inactive)
REMARK    1  A    between atoms: C_2  and  C_3
REMARK    2  A    between atoms: C_15  and  C_16
REMARK    3  A    between atoms: C_20  and  C_21
REMARK                            x       y       z     vdW  Elec       q    Type
REMARK                         _______ _______ _______ _____ _____    ______ ____
ROOT
ATOM      1  O   UNL     1       1.091   8.333  21.776  0.00  0.00    +0.000 OA
ATOM      2  C   UNL     1       1.326   8.427  20.575  0.00  0.00    +0.000 C 
ATOM      3  N   UNL     1       2.028   7.438  19.861  0.00  0.00    +0.000 N 
ATOM      4  C   UNL     1       2.328   7.478  18.427  0.00  0.00    +0.000 C 
ATOM      5  C   UNL     1       2.050   6.142  17.753  0.00  0.00    +0.000 C 
ATOM      6  C   UNL     1       2.711   4.964  18.466  0.00  0.00    +0.000 C 
ATOM      7  C   UNL     1       2.410   5.001  19.971  0.00  0.00    +0.000 C 
ATOM      8  C   UNL     1       2.676   6.363  20.608  0.00  0.00    +0.000 C 
ENDROOT
BRANCH   2   9
ATOM      9  C   UNL     1       0.772   9.619  19.846  0.00  0.00    +0.000 A 
ATOM     10  C   UNL     1       0.968  10.887  20.404  0.00  0.00    +0.000 A 
ATOM     11  C   UNL     1       0.326  11.994  19.833  0.00  0.00    +0.000 A 
ATOM     12  C   UNL     1      -0.514  11.752  18.740  0.00  0.00    +0.000 A 
ATOM     13  N   UNL     1      -1.338  12.572  18.009  0.00  0.00    +0.000 NA
ATOM     14  C   UNL     1      -1.922  11.779  17.134  0.00  0.00    +0.000 A 
ATOM     15  N   UNL     1      -1.507  10.483  17.263  0.00  0.00    +0.000 N 
ATOM     16  C   UNL     1      -0.586  10.452  18.266  0.00  0.00    +0.000 A 
ATOM     17  N   UNL     1       0.055   9.367  18.718  0.00  0.00    +0.000 NA
ATOM     18  H   UNL     1      -1.831   9.680  16.747  0.00  0.00    +0.000 HD
ENDBRANCH   2   9
BRANCH   6  19
ATOM     19  C   UNL     1       4.192   4.903  18.167  0.00  0.00    +0.000 A 
ATOM     20  N   UNL     1       5.038   4.936  19.208  0.00  0.00    +0.000 NA
ATOM     21  C   UNL     1       6.344   4.853  18.912  0.00  0.00    +0.000 A 
ATOM     22  C   UNL     1       6.833   4.725  17.632  0.00  0.00    +0.000 A 
ATOM     23  C   UNL     1       5.899   4.685  16.617  0.00  0.00    +0.000 A 
ATOM     24  N   UNL     1       4.582   4.782  16.886  0.00  0.00    +0.000 NA
BRANCH  23  25
ATOM     25  C   UNL     1       6.250   4.552  15.188  0.00  0.00    +0.000 A 
ATOM     26  C   UNL     1       5.476   3.781  14.294  0.00  0.00    +0.000 A 
ATOM     27  C   UNL     1       5.845   3.638  12.952  0.00  0.00    +0.000 A 
ATOM     28  C   UNL     1       6.983   4.269  12.479  0.00  0.00    +0.000 A 
ATOM     29  F   UNL     1       7.341   4.117  11.198  0.00  0.00    +0.000 F 
ATOM     30  C   UNL     1       7.755   5.060  13.317  0.00  0.00    +0.000 A 
ATOM     31  C   UNL     1       7.387   5.201  14.658  0.00  0.00    +0.000 A 
ENDBRANCH  23  25
ENDBRANCH   6  19
TORSDOF 3
ENDMDL
MODEL 6
REMARK VINA RESULT:      -7.9      3.665      5.497
REMARK  Name = 
REMARK  3 active torsions:
REMARK  status: ('A' for Active; 'I' for Inactive)
REMARK    1  A    between atoms: C_2  and  C_3
REMARK    2  A    between atoms: C_15  and  C_16
REMARK    3  A    between atoms: C_20  and  C_21
REMARK                            x       y       z     vdW  Elec       q    Type
REMARK                         _______ _______ _______ _____ _____    ______ ____
ROOT
ATOM      1  O   UNL     1      -2.380  11.441  16.523  0.00  0.00    +0.000 OA
ATOM      2  C   UNL     1      -2.425  11.143  17.714  0.00  0.00    +0.000 C 
ATOM      3  N   UNL     1      -1.339  10.554  18.387  0.00  0.00    +0.000 N 
ATOM      4  C   UNL     1      -1.318  10.189  19.807  0.00  0.00    +0.000 C 
ATOM      5  C   UNL     1      -0.024  10.619  20.482  0.00  0.00    +0.000 C 
ATOM      6  C   UNL     1       1.224  10.159  19.732  0.00  0.00    +0.000 C 
ATOM      7  C   UNL     1       1.126  10.518  18.242  0.00  0.00    +0.000 C 
ATOM      8  C   UNL     1      -0.196  10.094  17.604  0.00  0.00    +0.000 C 
ENDROOT
BRANCH   2   9
ATOM      9  C   UNL     1      -3.672  11.494  18.475  0.00  0.00    +0.000 A 
ATOM     10  C   UNL     1      -3.581  12.452  19.491  0.00  0.00    +0.000 A 
ATOM     11  C   UNL     1      -4.687  12.678  20.322  0.00  0.00    +0.000 A 
ATOM     12  C   UNL     1      -5.824  11.894  20.098  0.00  0.00    +0.000 A 
ATOM     13  N   UNL     1      -7.025  11.800  20.759  0.00  0.00    +0.000 NA
ATOM     14  C   UNL     1      -7.690  10.854  20.127  0.00  0.00    +0.000 A 
ATOM     15  N   UNL     1      -6.975  10.338  19.082  0.00  0.00    +0.000 N 
ATOM     16  C   UNL     1      -5.791  11.010  19.032  0.00  0.00    +0.000 A 
ATOM     17  N   UNL     1      -4.797  10.797  18.161  0.00  0.00    +0.000 NA
ATOM     18  H   UNL     1      -7.238   9.580  18.472  0.00  0.00    +0.000 HD
ENDBRANCH   2   9
BRANCH   6  19
ATOM     19  C   UNL     1       1.493   8.689  19.963  0.00  0.00    +0.000 A 
ATOM     20  N   UNL     1       0.928   8.116  21.036  0.00  0.00    +0.000 NA
ATOM     21  C   UNL     1       1.163   6.804  21.199  0.00  0.00    +0.000 A 
ATOM     22  C   UNL     1       1.921   6.049  20.333  0.00  0.00    +0.000 A 
ATOM     23  C   UNL     1       2.457   6.709  19.247  0.00  0.00    +0.000 A 
ATOM     24  N   UNL     1       2.249   8.029  19.068  0.00  0.00    +0.000 NA
BRANCH  23  25
ATOM     25  C   UNL     1       3.295   6.051  18.222  0.00  0.00    +0.000 A 
ATOM     26  C   UNL     1       4.184   6.777  17.402  0.00  0.00    +0.000 A 
ATOM     27  C   UNL     1       4.942   6.142  16.413  0.00  0.00    +0.000 A 
ATOM     28  C   UNL     1       4.834   4.773  16.235  0.00  0.00    +0.000 A 
ATOM     29  F   UNL     1       5.550   4.170  15.277  0.00  0.00    +0.000 F 
ATOM     30  C   UNL     1       3.994   4.017  17.040  0.00  0.00    +0.000 A 
ATOM     31  C   UNL     1       3.236   4.654  18.027  0.00  0.00    +0.000 A 
ENDBRANCH  23  25
ENDBRANCH   6  19
TORSDOF 3
ENDMDL
MODEL 7
REMARK VINA RESULT:      -7.9      4.464     10.122
REMARK  Name = 
REMARK  3 active torsions:
REMARK  status: ('A' for Active; 'I' for Inactive)
REMARK    1  A    between atoms: C_2  and  C_3
REMARK    2  A    between atoms: C_15  and  C_16
REMARK    3  A    between atoms: C_20  and  C_21
REMARK                            x       y       z     vdW  Elec       q    Type
REMARK                         _______ _______ _______ _____ _____    ______ ____
ROOT
ATOM      1  O   UNL     1       2.861   5.994  20.448  0.00  0.00    +0.000 OA
ATOM      2  C   UNL     1       2.739   6.495  19.334  0.00  0.00    +0.000 C 
ATOM      3  N   UNL     1       2.001   7.673  19.111  0.00  0.00    +0.000 N 
ATOM      4  C   UNL     1       1.828   8.333  17.814  0.00  0.00    +0.000 C 
ATOM      5  C   UNL     1       2.023   9.839  17.916  0.00  0.00    +0.000 C 
ATOM      6  C   UNL     1       1.187  10.477  19.023  0.00  0.00    +0.000 C 
ATOM      7  C   UNL     1       1.363   9.715  20.344  0.00  0.00    +0.000 C 
ATOM      8  C   UNL     1       1.186   8.205  20.200  0.00  0.00    +0.000 C 
ENDROOT
BRANCH   2   9
ATOM      9  C   UNL     1       3.471   5.848  18.192  0.00  0.00    +0.000 A 
ATOM     10  C   UNL     1       3.064   4.575  17.779  0.00  0.00    +0.000 A 
ATOM     11  C   UNL     1       3.829   3.884  16.830  0.00  0.00    +0.000 A 
ATOM     12  C   UNL     1       4.993   4.510  16.370  0.00  0.00    +0.000 A 
ATOM     13  N   UNL     1       5.992   4.095  15.523  0.00  0.00    +0.000 NA
ATOM     14  C   UNL     1       6.858   5.087  15.503  0.00  0.00    +0.000 A 
ATOM     15  N   UNL     1       6.460   6.129  16.295  0.00  0.00    +0.000 N 
ATOM     16  C   UNL     1       5.257   5.788  16.835  0.00  0.00    +0.000 A 
ATOM     17  N   UNL     1       4.533   6.529  17.683  0.00  0.00    +0.000 NA
ATOM     18  H   UNL     1       6.962   6.982  16.485  0.00  0.00    +0.000 HD
ENDBRANCH   2   9
BRANCH   6  19
ATOM     19  C   UNL     1      -0.263  10.607  18.612  0.00  0.00    +0.000 A 
ATOM     20  N   UNL     1      -0.681   9.872  17.570  0.00  0.00    +0.000 NA
ATOM     21  C   UNL     1      -1.978   9.988  17.246  0.00  0.00    +0.000 A 
ATOM     22  C   UNL     1      -2.868  10.791  17.924  0.00  0.00    +0.000 A 
ATOM     23  C   UNL     1      -2.363  11.505  18.992  0.00  0.00    +0.000 A 
ATOM     24  N   UNL     1      -1.061  11.417  19.328  0.00  0.00    +0.000 NA
BRANCH  23  25
ATOM     25  C   UNL     1      -3.178  12.413  19.826  0.00  0.00    +0.000 A 
ATOM     26  C   UNL     1      -2.599  13.269  20.786  0.00  0.00    +0.000 A 
ATOM     27  C   UNL     1      -3.390  14.096  21.592  0.00  0.00    +0.000 A 
ATOM     28  C   UNL     1      -4.767  14.090  21.444  0.00  0.00    +0.000 A 
ATOM     29  F   UNL     1      -5.522  14.870  22.227  0.00  0.00    +0.000 F 
ATOM     30  C   UNL     1      -5.373  13.284  20.491  0.00  0.00    +0.000 A 
ATOM     31  C   UNL     1      -4.583  12.458  19.688  0.00  0.00    +0.000 A 
ENDBRANCH  23  25
ENDBRANCH   6  19
TORSDOF 3
ENDMDL
MODEL 8
REMARK VINA RESULT:      -7.9      3.720      5.241
REMARK  Name = 
REMARK  3 active torsions:
REMARK  status: ('A' for Active; 'I' for Inactive)
REMARK    1  A    between atoms: C_2  and  C_3
REMARK    2  A    between atoms: C_15  and  C_16
REMARK    3  A    between atoms: C_20  and  C_21
REMARK                            x       y       z     vdW  Elec       q    Type
REMARK                         _______ _______ _______ _____ _____    ______ ____
ROOT
ATOM      1  O   UNL     1       0.058  13.099  22.312  0.00  0.00    +0.000 OA
ATOM      2  C   UNL     1      -0.603  12.229  21.750  0.00  0.00    +0.000 C 
ATOM      3  N   UNL     1      -0.059  10.984  21.384  0.00  0.00    +0.000 N 
ATOM      4  C   UNL     1      -0.792   9.898  20.728  0.00  0.00    +0.000 C 
ATOM      5  C   UNL     1      -0.495   8.549  21.367  0.00  0.00    +0.000 C 
ATOM      6  C   UNL     1       1.000   8.264  21.495  0.00  0.00    +0.000 C 
ATOM      7  C   UNL     1       1.726   9.454  22.137  0.00  0.00    +0.000 C 
ATOM      8  C   UNL     1       1.385  10.793  21.487  0.00  0.00    +0.000 C 
ENDROOT
BRANCH   2   9
ATOM      9  C   UNL     1      -2.062  12.501  21.520  0.00  0.00    +0.000 A 
ATOM     10  C   UNL     1      -2.918  12.517  22.627  0.00  0.00    +0.000 A 
ATOM     11  C   UNL     1      -4.301  12.606  22.424  0.00  0.00    +0.000 A 
ATOM     12  C   UNL     1      -4.752  12.641  21.099  0.00  0.00    +0.000 A 
ATOM     13  N   UNL     1      -6.011  12.646  20.552  0.00  0.00    +0.000 NA
ATOM     14  C   UNL     1      -5.819  12.632  19.249  0.00  0.00    +0.000 A 
ATOM     15  N   UNL     1      -4.489  12.624  18.929  0.00  0.00    +0.000 N 
ATOM     16  C   UNL     1      -3.793  12.658  20.100  0.00  0.00    +0.000 A 
ATOM     17  N   UNL     1      -2.460  12.648  20.227  0.00  0.00    +0.000 NA
ATOM     18  H   UNL     1      -4.079  12.570  18.010  0.00  0.00    +0.000 HD
ENDBRANCH   2   9
BRANCH   6  19
ATOM     19  C   UNL     1       1.598   7.861  20.165  0.00  0.00    +0.000 A 
ATOM     20  N   UNL     1       1.787   8.826  19.252  0.00  0.00    +0.000 NA
ATOM     21  C   UNL     1       2.344   8.442  18.093  0.00  0.00    +0.000 A 
ATOM     22  C   UNL     1       2.728   7.149  17.819  0.00  0.00    +0.000 A 
ATOM     23  C   UNL     1       2.512   6.218  18.814  0.00  0.00    +0.000 A 
ATOM     24  N   UNL     1       1.940   6.574  19.982  0.00  0.00    +0.000 NA
BRANCH  23  25
ATOM     25  C   UNL     1       2.863   4.788  18.686  0.00  0.00    +0.000 A 
ATOM     26  C   UNL     1       2.167   3.920  17.819  0.00  0.00    +0.000 A 
ATOM     27  C   UNL     1       2.491   2.561  17.739  0.00  0.00    +0.000 A 
ATOM     28  C   UNL     1       3.520   2.051  18.512  0.00  0.00    +0.000 A 
ATOM     29  F   UNL     1       3.817   0.747  18.444  0.00  0.00    +0.000 F 
ATOM     30  C   UNL     1       4.249   2.876  19.356  0.00  0.00    +0.000 A 
ATOM     31  C   UNL     1       3.924   4.233  19.436  0.00  0.00    +0.000 A 
ENDBRANCH  23  25
ENDBRANCH   6  19
TORSDOF 3
ENDMDL
MODEL 9
REMARK VINA RESULT:      -7.8      5.441     11.115
REMARK  Name = 
REMARK  3 active torsions:
REMARK  status: ('A' for Active; 'I' for Inactive)
REMARK    1  A    between atoms: C_2  and  C_3
REMARK    2  A    between atoms: C_15  and  C_16
REMARK    3  A    between atoms: C_20  and  C_21
REMARK                            x       y       z     vdW  Elec       q    Type
REMARK                         _______ _______ _______ _____ _____    ______ ____
ROOT
ATOM      1  O   UNL     1       1.330   8.869  22.310  0.00  0.00    +0.000 OA
ATOM      2  C   UNL     1       0.990   8.825  21.131  0.00  0.00    +0.000 C 
ATOM      3  N   UNL     1       0.117   9.769  20.560  0.00  0.00    +0.000 N 
ATOM      4  C   UNL     1      -0.316   9.787  19.160  0.00  0.00    +0.000 C 
ATOM      5  C   UNL     1      -0.255  11.187  18.567  0.00  0.00    +0.000 C 
ATOM      6  C   UNL     1      -0.969  12.231  19.422  0.00  0.00    +0.000 C 
ATOM      7  C   UNL     1      -0.520  12.133  20.887  0.00  0.00    +0.000 C 
ATOM      8  C   UNL     1      -0.570  10.710  21.441  0.00  0.00    +0.000 C 
ENDROOT
BRANCH   2   9
ATOM      9  C   UNL     1       1.598   7.756  20.268  0.00  0.00    +0.000 A 
ATOM     10  C   UNL     1       1.538   6.431  20.711  0.00  0.00    +0.000 A 
ATOM     11  C   UNL     1       2.236   5.439  20.009  0.00  0.00    +0.000 A 
ATOM     12  C   UNL     1       2.991   5.851  18.904  0.00  0.00    +0.000 A 
ATOM     13  N   UNL     1       3.838   5.174  18.061  0.00  0.00    +0.000 NA
ATOM     14  C   UNL     1       4.306   6.090  17.238  0.00  0.00    +0.000 A 
ATOM     15  N   UNL     1       3.793   7.329  17.508  0.00  0.00    +0.000 N 
ATOM     16  C   UNL     1       2.930   7.189  18.553  0.00  0.00    +0.000 A 
ATOM     17  N   UNL     1       2.229   8.170  19.135  0.00  0.00    +0.000 NA
ATOM     18  H   UNL     1       4.022   8.200  17.056  0.00  0.00    +0.000 HD
ENDBRANCH   2   9
BRANCH   6  19
ATOM     19  C   UNL     1      -2.470  12.138  19.264  0.00  0.00    +0.000 A 
ATOM     20  N   UNL     1      -2.946  11.749  18.071  0.00  0.00    +0.000 NA
ATOM     21  C   UNL     1      -4.280  11.649  17.970  0.00  0.00    +0.000 A 
ATOM     22  C   UNL     1      -5.149  11.907  19.007  0.00  0.00    +0.000 A 
ATOM     23  C   UNL     1      -4.581  12.289  20.205  0.00  0.00    +0.000 A 
ATOM     24  N   UNL     1      -3.244  12.411  20.329  0.00  0.00    +0.000 NA
BRANCH  23  25
ATOM     25  C   UNL     1      -5.365  12.604  21.417  0.00  0.00    +0.000 A 
ATOM     26  C   UNL     1      -6.775  12.646  21.408  0.00  0.00    +0.000 A 
ATOM     27  C   UNL     1      -7.499  12.982  22.557  0.00  0.00    +0.000 A 
ATOM     28  C   UNL     1      -6.829  13.268  23.734  0.00  0.00    +0.000 A 
ATOM     29  F   UNL     1      -7.524  13.604  24.829  0.00  0.00    +0.000 F 
ATOM     30  C   UNL     1      -5.444  13.209  23.794  0.00  0.00    +0.000 A 
ATOM     31  C   UNL     1      -4.722  12.875  22.645  0.00  0.00    +0.000 A 
ENDBRANCH  23  25
ENDBRANCH   6  19
TORSDOF 3
ENDMDL
