MODEL 1
REMARK VINA RESULT:      -9.2      0.000      0.000
REMARK  Name = 
REMARK  5 active torsions:
REMARK  status: ('A' for Active; 'I' for Inactive)
REMARK    1  A    between atoms: S_2  and  N_4
REMARK    2  A    between atoms: S_2  and  C_20
REMARK    3  A    between atoms: N_4  and  C_5
REMARK    4  A    between atoms: C_8  and  C_9
REMARK    5  A    between atoms: C_12  and  C_13
REMARK                            x       y       z     vdW  Elec       q    Type
REMARK                         _______ _______ _______ _____ _____    ______ ____
ROOT
ATOM      1  N   UNL     1       3.069   5.003  17.964  0.00  0.00    +0.000 N 
ATOM      2  H   UNL     1       2.397   4.364  17.543  0.00  0.00    +0.000 HD
ENDROOT
BRANCH   1   3
ATOM      3  C   UNL     1       2.551   5.967  18.871  0.00  0.00    +0.000 A 
ATOM      4  C   UNL     1       2.552   7.306  18.499  0.00  0.00    +0.000 A 
ATOM      5  C   UNL     1       2.012   8.272  19.351  0.00  0.00    +0.000 A 
ATOM      6  C   UNL     1       1.481   7.906  20.602  0.00  0.00    +0.000 A 
ATOM      7  C   UNL     1       1.507   6.557  20.973  0.00  0.00    +0.000 A 
ATOM      8  C   UNL     1       2.042   5.588  20.118  0.00  0.00    +0.000 A 
BRANCH   6   9
ATOM      9  C   UNL     1       0.908   8.933  21.504  0.00  0.00    +0.000 A 
ATOM     10  N   UNL     1       1.392   9.181  22.719  0.00  0.00    +0.000 NA
ATOM     11  O   UNL     1       0.556  10.203  23.187  0.00  0.00    +0.000 OA
ATOM     12  C   UNL     1      -0.339  10.454  22.211  0.00  0.00    +0.000 A 
ATOM     13  N   UNL     1      -0.169   9.702  21.146  0.00  0.00    +0.000 NA
BRANCH  12  14
ATOM     14  C   UNL     1      -1.339  11.518  22.508  0.00  0.00    +0.000 C 
ATOM     15  F   UNL     1      -0.767  12.682  22.927  0.00  0.00    +0.000 F 
ATOM     16  F   UNL     1      -2.089  11.833  21.418  0.00  0.00    +0.000 F 
ATOM     17  F   UNL     1      -2.207  11.148  23.487  0.00  0.00    +0.000 F 
ENDBRANCH  12  14
ENDBRANCH   6   9
ENDBRANCH   1   3
BRANCH   1  19
ATOM     18  O   UNL     1       5.198   5.052  19.324  0.00  0.00    +0.000 OA
ATOM     19  S   UNL     1       4.527   4.212  18.355  0.00  0.00    +0.000 S 
ATOM     20  O   UNL     1       4.271   2.817  18.615  0.00  0.00    +0.000 OA
BRANCH  19  21
ATOM     21  C   UNL     1       5.446   4.337  16.841  0.00  0.00    +0.000 A 
ATOM     22  C   UNL     1       6.781   4.720  16.925  0.00  0.00    +0.000 A 
ATOM     23  C   UNL     1       7.475   4.995  15.759  0.00  0.00    +0.000 A 
ATOM     24  C   UNL     1       6.877   4.746  14.512  0.00  0.00    +0.000 A 
ATOM     25  C   UNL     1       7.556   5.046  13.333  0.00  0.00    +0.000 A 
ATOM     26  C   UNL     1       7.299   4.303  12.190  0.00  0.00    +0.000 A 
ATOM     27  C   UNL     1       6.137   3.545  12.130  0.00  0.00    +0.000 A 
ATOM     28  C   UNL     1       5.236   3.563  13.203  0.00  0.00    +0.000 A 
ATOM     29  C   UNL     1       5.625   4.103  14.437  0.00  0.00    +0.000 A 
ATOM     30  C   UNL     1       4.854   4.006  15.612  0.00  0.00    +0.000 A 
ENDBRANCH  19  21
ENDBRANCH   1  19
TORSDOF 5
ENDMDL
MODEL 2
REMARK VINA RESULT:      -9.2      5.874      9.267
REMARK  Name = 
REMARK  5 active torsions:
REMARK  status: ('A' for Active; 'I' for Inactive)
REMARK    1  A    between atoms: S_2  and  N_4
REMARK    2  A    between atoms: S_2  and  C_20
REMARK    3  A    between atoms: N_4  and  C_5
REMARK    4  A    between atoms: C_8  and  C_9
REMARK    5  A    between atoms: C_12  and  C_13
REMARK                            x       y       z     vdW  Elec       q    Type
REMARK                         _______ _______ _______ _____ _____    ______ ____
ROOT
ATOM      1  N   UNL     1       3.861   2.847  20.474  0.00  0.00    +0.000 N 
ATOM      2  H   UNL     1       4.098   1.935  20.860  0.00  0.00    +0.000 HD
ENDROOT
BRANCH   1   3
ATOM      3  C   UNL     1       4.488   3.205  19.250  0.00  0.00    +0.000 A 
ATOM      4  C   UNL     1       4.150   2.510  18.095  0.00  0.00    +0.000 A 
ATOM      5  C   UNL     1       4.718   2.866  16.870  0.00  0.00    +0.000 A 
ATOM      6  C   UNL     1       5.652   3.916  16.793  0.00  0.00    +0.000 A 
ATOM      7  C   UNL     1       5.999   4.592  17.967  0.00  0.00    +0.000 A 
ATOM      8  C   UNL     1       5.427   4.240  19.194  0.00  0.00    +0.000 A 
BRANCH   6   9
ATOM      9  C   UNL     1       6.253   4.292  15.492  0.00  0.00    +0.000 A 
ATOM     10  N   UNL     1       7.112   5.300  15.355  0.00  0.00    +0.000 NA
ATOM     11  O   UNL     1       7.404   5.280  13.985  0.00  0.00    +0.000 OA
ATOM     12  C   UNL     1       6.689   4.272  13.447  0.00  0.00    +0.000 A 
ATOM     13  N   UNL     1       5.961   3.624  14.331  0.00  0.00    +0.000 NA
BRANCH  12  14
ATOM     14  C   UNL     1       6.849   4.076  11.979  0.00  0.00    +0.000 C 
ATOM     15  F   UNL     1       7.572   2.964  11.667  0.00  0.00    +0.000 F 
ATOM     16  F   UNL     1       5.652   3.942  11.348  0.00  0.00    +0.000 F 
ATOM     17  F   UNL     1       7.488   5.121  11.388  0.00  0.00    +0.000 F 
ENDBRANCH  12  14
ENDBRANCH   6   9
ENDBRANCH   1   3
BRANCH   1  19
ATOM     18  O   UNL     1       1.480   2.261  19.863  0.00  0.00    +0.000 OA
ATOM     19  S   UNL     1       2.208   3.205  20.684  0.00  0.00    +0.000 S 
ATOM     20  O   UNL     1       1.917   3.366  22.086  0.00  0.00    +0.000 OA
BRANCH  19  21
ATOM     21  C   UNL     1       2.060   4.792  19.898  0.00  0.00    +0.000 A 
ATOM     22  C   UNL     1       2.012   4.823  18.508  0.00  0.00    +0.000 A 
ATOM     23  C   UNL     1       2.072   6.046  17.862  0.00  0.00    +0.000 A 
ATOM     24  C   UNL     1       2.032   7.235  18.609  0.00  0.00    +0.000 A 
ATOM     25  C   UNL     1       2.120   8.471  17.971  0.00  0.00    +0.000 A 
ATOM     26  C   UNL     1       1.504   9.577  18.538  0.00  0.00    +0.000 A 
ATOM     27  C   UNL     1       1.140   9.530  19.877  0.00  0.00    +0.000 A 
ATOM     28  C   UNL     1       1.424   8.387  20.637  0.00  0.00    +0.000 A 
ATOM     29  C   UNL     1       1.806   7.198  20.000  0.00  0.00    +0.000 A 
ATOM     30  C   UNL     1       1.940   5.962  20.663  0.00  0.00    +0.000 A 
ENDBRANCH  19  21
ENDBRANCH   1  19
TORSDOF 5
ENDMDL
MODEL 3
REMARK VINA RESULT:      -9.2      5.874      9.261
REMARK  Name = 
REMARK  5 active torsions:
REMARK  status: ('A' for Active; 'I' for Inactive)
REMARK    1  A    between atoms: S_2  and  N_4
REMARK    2  A    between atoms: S_2  and  C_20
REMARK    3  A    between atoms: N_4  and  C_5
REMARK    4  A    between atoms: C_8  and  C_9
REMARK    5  A    between atoms: C_12  and  C_13
REMARK                            x       y       z     vdW  Elec       q    Type
REMARK                         _______ _______ _______ _____ _____    ______ ____
ROOT
ATOM      1  N   UNL     1       3.820   2.832  20.401  0.00  0.00    +0.000 N 
ATOM      2  H   UNL     1       4.047   1.902  20.749  0.00  0.00    +0.000 HD
ENDROOT
BRANCH   1   3
ATOM      3  C   UNL     1       4.406   3.210  19.162  0.00  0.00    +0.000 A 
ATOM      4  C   UNL     1       5.370   4.210  19.153  0.00  0.00    +0.000 A 
ATOM      5  C   UNL     1       5.993   4.574  17.957  0.00  0.00    +0.000 A 
ATOM      6  C   UNL     1       5.638   3.949  16.747  0.00  0.00    +0.000 A 
ATOM      7  C   UNL     1       4.650   2.959  16.768  0.00  0.00    +0.000 A 
ATOM      8  C   UNL     1       4.029   2.590  17.966  0.00  0.00    +0.000 A 
BRANCH   6   9
ATOM      9  C   UNL     1       6.301   4.337  15.480  0.00  0.00    +0.000 A 
ATOM     10  N   UNL     1       7.241   5.277  15.412  0.00  0.00    +0.000 NA
ATOM     11  O   UNL     1       7.567   5.298  14.049  0.00  0.00    +0.000 OA
ATOM     12  C   UNL     1       6.789   4.377  13.447  0.00  0.00    +0.000 A 
ATOM     13  N   UNL     1       5.988   3.749  14.281  0.00  0.00    +0.000 NA
BRANCH  12  14
ATOM     14  C   UNL     1       6.972   4.238  11.976  0.00  0.00    +0.000 C 
ATOM     15  F   UNL     1       5.793   4.136  11.300  0.00  0.00    +0.000 F 
ATOM     16  F   UNL     1       7.626   5.304  11.439  0.00  0.00    +0.000 F 
ATOM     17  F   UNL     1       7.693   3.133  11.649  0.00  0.00    +0.000 F 
ENDBRANCH  12  14
ENDBRANCH   6   9
ENDBRANCH   1   3
BRANCH   1  19
ATOM     18  O   UNL     1       1.399   2.302  19.912  0.00  0.00    +0.000 OA
ATOM     19  S   UNL     1       2.190   3.231  20.691  0.00  0.00    +0.000 S 
ATOM     20  O   UNL     1       1.974   3.403  22.106  0.00  0.00    +0.000 OA
BRANCH  19  21
ATOM     21  C   UNL     1       2.040   4.818  19.908  0.00  0.00    +0.000 A 
ATOM     22  C   UNL     1       1.969   4.849  18.519  0.00  0.00    +0.000 A 
ATOM     23  C   UNL     1       2.028   6.071  17.871  0.00  0.00    +0.000 A 
ATOM     24  C   UNL     1       2.009   7.261  18.617  0.00  0.00    +0.000 A 
ATOM     25  C   UNL     1       2.096   8.496  17.978  0.00  0.00    +0.000 A 
ATOM     26  C   UNL     1       1.499   9.607  18.554  0.00  0.00    +0.000 A 
ATOM     27  C   UNL     1       1.158   9.563  19.899  0.00  0.00    +0.000 A 
ATOM     28  C   UNL     1       1.446   8.419  20.655  0.00  0.00    +0.000 A 
ATOM     29  C   UNL     1       1.807   7.226  20.012  0.00  0.00    +0.000 A 
ATOM     30  C   UNL     1       1.942   5.990  20.674  0.00  0.00    +0.000 A 
ENDBRANCH  19  21
ENDBRANCH   1  19
TORSDOF 5
ENDMDL
MODEL 4
REMARK VINA RESULT:      -9.0      0.885      1.008
REMARK  Name = 
REMARK  5 active torsions:
REMARK  status: ('A' for Active; 'I' for Inactive)
REMARK    1  A    between atoms: S_2  and  N_4
REMARK    2  A    between atoms: S_2  and  C_20
REMARK    3  A    between atoms: N_4  and  C_5
REMARK    4  A    between atoms: C_8  and  C_9
REMARK    5  A    between atoms: C_12  and  C_13
REMARK                            x       y       z     vdW  Elec       q    Type
REMARK                         _______ _______ _______ _____ _____    ______ ____
ROOT
ATOM      1  N   UNL     1       3.291   4.653  18.521  0.00  0.00    +0.000 N 
ATOM      2  H   UNL     1       2.721   3.810  18.569  0.00  0.00    +0.000 HD
ENDROOT
BRANCH   1   3
ATOM      3  C   UNL     1       2.702   5.850  19.012  0.00  0.00    +0.000 A 
ATOM      4  C   UNL     1       2.738   6.990  18.218  0.00  0.00    +0.000 A 
ATOM      5  C   UNL     1       2.132   8.170  18.655  0.00  0.00    +0.000 A 
ATOM      6  C   UNL     1       1.497   8.225  19.909  0.00  0.00    +0.000 A 
ATOM      7  C   UNL     1       1.488   7.077  20.708  0.00  0.00    +0.000 A 
ATOM      8  C   UNL     1       2.089   5.892  20.269  0.00  0.00    +0.000 A 
BRANCH   6   9
ATOM      9  C   UNL     1       0.854   9.478  20.370  0.00  0.00    +0.000 A 
ATOM     10  N   UNL     1       1.036  10.650  19.766  0.00  0.00    +0.000 NA
ATOM     11  O   UNL     1       0.250  11.523  20.531  0.00  0.00    +0.000 OA
ATOM     12  C   UNL     1      -0.311  10.787  21.511  0.00  0.00    +0.000 A 
ATOM     13  N   UNL     1       0.024   9.516  21.461  0.00  0.00    +0.000 NA
BRANCH  12  14
ATOM     14  C   UNL     1      -1.192  11.530  22.454  0.00  0.00    +0.000 C 
ATOM     15  F   UNL     1      -0.615  12.667  22.937  0.00  0.00    +0.000 F 
ATOM     16  F   UNL     1      -2.358  11.916  21.868  0.00  0.00    +0.000 F 
ATOM     17  F   UNL     1      -1.529  10.785  23.540  0.00  0.00    +0.000 F 
ENDBRANCH  12  14
ENDBRANCH   6   9
ENDBRANCH   1   3
BRANCH   1  19
ATOM     18  O   UNL     1       5.399   5.469  19.650  0.00  0.00    +0.000 OA
ATOM     19  S   UNL     1       4.922   4.330  18.895  0.00  0.00    +0.000 S 
ATOM     20  O   UNL     1       5.050   2.985  19.397  0.00  0.00    +0.000 OA
BRANCH  19  21
ATOM     21  C   UNL     1       5.700   4.407  17.300  0.00  0.00    +0.000 A 
ATOM     22  C   UNL     1       7.061   4.694  17.259  0.00  0.00    +0.000 A 
ATOM     23  C   UNL     1       7.659   4.933  16.033  0.00  0.00    +0.000 A 
ATOM     24  C   UNL     1       6.930   4.741  14.848  0.00  0.00    +0.000 A 
ATOM     25  C   UNL     1       7.513   5.005  13.611  0.00  0.00    +0.000 A 
ATOM     26  C   UNL     1       7.097   4.296  12.494  0.00  0.00    +0.000 A 
ATOM     27  C   UNL     1       5.884   3.622  12.542  0.00  0.00    +0.000 A 
ATOM     28  C   UNL     1       5.092   3.691  13.696  0.00  0.00    +0.000 A 
ATOM     29  C   UNL     1       5.634   4.188  14.890  0.00  0.00    +0.000 A 
ATOM     30  C   UNL     1       4.972   4.133  16.132  0.00  0.00    +0.000 A 
ENDBRANCH  19  21
ENDBRANCH   1  19
TORSDOF 5
ENDMDL
MODEL 5
REMARK VINA RESULT:      -8.7      1.713      1.973
REMARK  Name = 
REMARK  5 active torsions:
REMARK  status: ('A' for Active; 'I' for Inactive)
REMARK    1  A    between atoms: S_2  and  N_4
REMARK    2  A    between atoms: S_2  and  C_20
REMARK    3  A    between atoms: N_4  and  C_5
REMARK    4  A    between atoms: C_8  and  C_9
REMARK    5  A    between atoms: C_12  and  C_13
REMARK                            x       y       z     vdW  Elec       q    Type
REMARK                         _______ _______ _______ _____ _____    ______ ____
ROOT
ATOM      1  N   UNL     1       3.312   4.654  18.590  0.00  0.00    +0.000 N 
ATOM      2  H   UNL     1       2.745   3.835  18.799  0.00  0.00    +0.000 HD
ENDROOT
BRANCH   1   3
ATOM      3  C   UNL     1       2.742   5.920  18.899  0.00  0.00    +0.000 A 
ATOM      4  C   UNL     1       2.807   6.934  17.951  0.00  0.00    +0.000 A 
ATOM      5  C   UNL     1       2.220   8.174  18.209  0.00  0.00    +0.000 A 
ATOM      6  C   UNL     1       1.576   8.420  19.436  0.00  0.00    +0.000 A 
ATOM      7  C   UNL     1       1.537   7.397  20.389  0.00  0.00    +0.000 A 
ATOM      8  C   UNL     1       2.120   6.152  20.130  0.00  0.00    +0.000 A 
BRANCH   6   9
ATOM      9  C   UNL     1       0.953   9.737  19.706  0.00  0.00    +0.000 A 
ATOM     10  N   UNL     1       1.059  10.361  20.877  0.00  0.00    +0.000 NA
ATOM     11  O   UNL     1       0.331  11.540  20.672  0.00  0.00    +0.000 OA
ATOM     12  C   UNL     1      -0.136  11.496  19.408  0.00  0.00    +0.000 A 
ATOM     13  N   UNL     1       0.218  10.407  18.762  0.00  0.00    +0.000 NA
BRANCH  12  14
ATOM     14  C   UNL     1      -0.953  12.666  18.979  0.00  0.00    +0.000 C 
ATOM     15  F   UNL     1      -0.688  13.060  17.702  0.00  0.00    +0.000 F 
ATOM     16  F   UNL     1      -2.287  12.402  19.027  0.00  0.00    +0.000 F 
ATOM     17  F   UNL     1      -0.742  13.756  19.764  0.00  0.00    +0.000 F 
ENDBRANCH  12  14
ENDBRANCH   6   9
ENDBRANCH   1   3
BRANCH   1  19
ATOM     18  O   UNL     1       5.413   5.562  19.660  0.00  0.00    +0.000 OA
ATOM     19  S   UNL     1       4.956   4.388  18.947  0.00  0.00    +0.000 S 
ATOM     20  O   UNL     1       5.130   3.064  19.488  0.00  0.00    +0.000 OA
BRANCH  19  21
ATOM     21  C   UNL     1       5.709   4.437  17.339  0.00  0.00    +0.000 A 
ATOM     22  C   UNL     1       7.073   4.702  17.272  0.00  0.00    +0.000 A 
ATOM     23  C   UNL     1       7.653   4.919  16.033  0.00  0.00    +0.000 A 
ATOM     24  C   UNL     1       6.901   4.727  14.863  0.00  0.00    +0.000 A 
ATOM     25  C   UNL     1       7.467   4.969  13.613  0.00  0.00    +0.000 A 
ATOM     26  C   UNL     1       7.020   4.256  12.511  0.00  0.00    +0.000 A 
ATOM     27  C   UNL     1       5.797   3.602  12.586  0.00  0.00    +0.000 A 
ATOM     28  C   UNL     1       5.026   3.695  13.753  0.00  0.00    +0.000 A 
ATOM     29  C   UNL     1       5.597   4.195  14.932  0.00  0.00    +0.000 A 
ATOM     30  C   UNL     1       4.956   4.163  16.186  0.00  0.00    +0.000 A 
ENDBRANCH  19  21
ENDBRANCH   1  19
TORSDOF 5
ENDMDL
MODEL 6
REMARK VINA RESULT:      -8.6      1.327      1.899
REMARK  Name = 
REMARK  5 active torsions:
REMARK  status: ('A' for Active; 'I' for Inactive)
REMARK    1  A    between atoms: S_2  and  N_4
REMARK    2  A    between atoms: S_2  and  C_20
REMARK    3  A    between atoms: N_4  and  C_5
REMARK    4  A    between atoms: C_8  and  C_9
REMARK    5  A    between atoms: C_12  and  C_13
REMARK                            x       y       z     vdW  Elec       q    Type
REMARK                         _______ _______ _______ _____ _____    ______ ____
ROOT
ATOM      1  N   UNL     1       3.357   4.573  18.601  0.00  0.00    +0.000 N 
ATOM      2  H   UNL     1       2.791   3.774  18.879  0.00  0.00    +0.000 HD
ENDROOT
BRANCH   1   3
ATOM      3  C   UNL     1       2.793   5.860  18.818  0.00  0.00    +0.000 A 
ATOM      4  C   UNL     1       2.199   6.134  20.044  0.00  0.00    +0.000 A 
ATOM      5  C   UNL     1       1.674   7.402  20.301  0.00  0.00    +0.000 A 
ATOM      6  C   UNL     1       1.721   8.409  19.319  0.00  0.00    +0.000 A 
ATOM      7  C   UNL     1       2.302   8.112  18.082  0.00  0.00    +0.000 A 
ATOM      8  C   UNL     1       2.834   6.844  17.824  0.00  0.00    +0.000 A 
BRANCH   6   9
ATOM      9  C   UNL     1       1.163   9.754  19.596  0.00  0.00    +0.000 A 
ATOM     10  N   UNL     1       1.012  10.683  18.654  0.00  0.00    +0.000 NA
ATOM     11  O   UNL     1       0.464  11.761  19.361  0.00  0.00    +0.000 OA
ATOM     12  C   UNL     1       0.350  11.368  20.646  0.00  0.00    +0.000 A 
ATOM     13  N   UNL     1       0.764  10.137  20.850  0.00  0.00    +0.000 NA
BRANCH  12  14
ATOM     14  C   UNL     1      -0.213  12.379  21.583  0.00  0.00    +0.000 C 
ATOM     15  F   UNL     1      -1.365  12.946  21.125  0.00  0.00    +0.000 F 
ATOM     16  F   UNL     1      -0.512  11.841  22.797  0.00  0.00    +0.000 F 
ATOM     17  F   UNL     1       0.649  13.405  21.813  0.00  0.00    +0.000 F 
ENDBRANCH  12  14
ENDBRANCH   6   9
ENDBRANCH   1   3
BRANCH   1  19
ATOM     18  O   UNL     1       5.441   5.503  19.685  0.00  0.00    +0.000 OA
ATOM     19  S   UNL     1       5.005   4.330  18.958  0.00  0.00    +0.000 S 
ATOM     20  O   UNL     1       5.200   3.002  19.483  0.00  0.00    +0.000 OA
BRANCH  19  21
ATOM     21  C   UNL     1       5.759   4.411  17.351  0.00  0.00    +0.000 A 
ATOM     22  C   UNL     1       7.115   4.713  17.288  0.00  0.00    +0.000 A 
ATOM     23  C   UNL     1       7.692   4.955  16.053  0.00  0.00    +0.000 A 
ATOM     24  C   UNL     1       6.947   4.750  14.880  0.00  0.00    +0.000 A 
ATOM     25  C   UNL     1       7.508   5.017  13.633  0.00  0.00    +0.000 A 
ATOM     26  C   UNL     1       7.084   4.299  12.525  0.00  0.00    +0.000 A 
ATOM     27  C   UNL     1       5.879   3.610  12.593  0.00  0.00    +0.000 A 
ATOM     28  C   UNL     1       5.104   3.675  13.759  0.00  0.00    +0.000 A 
ATOM     29  C   UNL     1       5.658   4.182  14.943  0.00  0.00    +0.000 A 
ATOM     30  C   UNL     1       5.016   4.124  16.195  0.00  0.00    +0.000 A 
ENDBRANCH  19  21
ENDBRANCH   1  19
TORSDOF 5
ENDMDL
MODEL 7
REMARK VINA RESULT:      -8.5      5.876     10.722
REMARK  Name = 
REMARK  5 active torsions:
REMARK  status: ('A' for Active; 'I' for Inactive)
REMARK    1  A    between atoms: S_2  and  N_4
REMARK    2  A    between atoms: S_2  and  C_20
REMARK    3  A    between atoms: N_4  and  C_5
REMARK    4  A    between atoms: C_8  and  C_9
REMARK    5  A    between atoms: C_12  and  C_13
REMARK                            x       y       z     vdW  Elec       q    Type
REMARK                         _______ _______ _______ _____ _____    ______ ____
ROOT
ATOM      1  N   UNL     1       0.390  11.569  19.510  0.00  0.00    +0.000 N 
ATOM      2  H   UNL     1       0.401  12.151  20.345  0.00  0.00    +0.000 HD
ENDROOT
BRANCH   1   3
ATOM      3  C   UNL     1       0.824  10.224  19.664  0.00  0.00    +0.000 A 
ATOM      4  C   UNL     1       1.503   9.614  18.616  0.00  0.00    +0.000 A 
ATOM      5  C   UNL     1       1.978   8.308  18.753  0.00  0.00    +0.000 A 
ATOM      6  C   UNL     1       1.757   7.588  19.941  0.00  0.00    +0.000 A 
ATOM      7  C   UNL     1       1.052   8.206  20.979  0.00  0.00    +0.000 A 
ATOM      8  C   UNL     1       0.580   9.516  20.846  0.00  0.00    +0.000 A 
BRANCH   6   9
ATOM      9  C   UNL     1       2.262   6.202  20.084  0.00  0.00    +0.000 A 
ATOM     10  N   UNL     1       3.450   5.813  19.623  0.00  0.00    +0.000 NA
ATOM     11  O   UNL     1       3.496   4.459  19.979  0.00  0.00    +0.000 OA
ATOM     12  C   UNL     1       2.336   4.179  20.606  0.00  0.00    +0.000 A 
ATOM     13  N   UNL     1       1.535   5.218  20.702  0.00  0.00    +0.000 NA
BRANCH  12  14
ATOM     14  C   UNL     1       2.173   2.773  21.068  0.00  0.00    +0.000 C 
ATOM     15  F   UNL     1       1.225   2.637  22.037  0.00  0.00    +0.000 F 
ATOM     16  F   UNL     1       1.804   1.942  20.056  0.00  0.00    +0.000 F 
ATOM     17  F   UNL     1       3.323   2.266  21.589  0.00  0.00    +0.000 F 
ENDBRANCH  12  14
ENDBRANCH   6   9
ENDBRANCH   1   3
BRANCH   1  19
ATOM     18  O   UNL     1      -0.726  13.142  17.877  0.00  0.00    +0.000 OA
ATOM     19  S   UNL     1      -0.979  11.882  18.544  0.00  0.00    +0.000 S 
ATOM     20  O   UNL     1      -1.337  10.697  17.806  0.00  0.00    +0.000 OA
BRANCH  19  21
ATOM     21  C   UNL     1      -2.240  12.186  19.757  0.00  0.00    +0.000 A 
ATOM     22  C   UNL     1      -3.559  12.241  19.318  0.00  0.00    +0.000 A 
ATOM     23  C   UNL     1      -4.544  12.647  20.202  0.00  0.00    +0.000 A 
ATOM     24  C   UNL     1      -4.229  12.854  21.556  0.00  0.00    +0.000 A 
ATOM     25  C   UNL     1      -5.206  13.290  22.448  0.00  0.00    +0.000 A 
ATOM     26  C   UNL     1      -5.117  12.932  23.785  0.00  0.00    +0.000 A 
ATOM     27  C   UNL     1      -3.901  12.480  24.279  0.00  0.00    +0.000 A 
ATOM     28  C   UNL     1      -2.784  12.419  23.435  0.00  0.00    +0.000 A 
ATOM     29  C   UNL     1      -2.947  12.534  22.047  0.00  0.00    +0.000 A 
ATOM     30  C   UNL     1      -1.913  12.311  21.117  0.00  0.00    +0.000 A 
ENDBRANCH  19  21
ENDBRANCH   1  19
TORSDOF 5
ENDMDL
MODEL 8
REMARK VINA RESULT:      -8.5      5.587      8.021
REMARK  Name = 
REMARK  5 active torsions:
REMARK  status: ('A' for Active; 'I' for Inactive)
REMARK    1  A    between atoms: S_2  and  N_4
REMARK    2  A    between atoms: S_2  and  C_20
REMARK    3  A    between atoms: N_4  and  C_5
REMARK    4  A    between atoms: C_8  and  C_9
REMARK    5  A    between atoms: C_12  and  C_13
REMARK                            x       y       z     vdW  Elec       q    Type
REMARK                         _______ _______ _______ _____ _____    ______ ____
ROOT
ATOM      1  N   UNL     1       6.324   4.053  17.758  0.00  0.00    +0.000 N 
ATOM      2  H   UNL     1       6.947   3.354  17.359  0.00  0.00    +0.000 HD
ENDROOT
BRANCH   1   3
ATOM      3  C   UNL     1       6.846   5.368  17.899  0.00  0.00    +0.000 A 
ATOM      4  C   UNL     1       7.659   5.653  18.989  0.00  0.00    +0.000 A 
ATOM      5  C   UNL     1       8.221   6.923  19.134  0.00  0.00    +0.000 A 
ATOM      6  C   UNL     1       7.955   7.934  18.191  0.00  0.00    +0.000 A 
ATOM      7  C   UNL     1       7.117   7.639  17.111  0.00  0.00    +0.000 A 
ATOM      8  C   UNL     1       6.557   6.365  16.962  0.00  0.00    +0.000 A 
BRANCH   6   9
ATOM      9  C   UNL     1       8.553   9.281  18.346  0.00  0.00    +0.000 A 
ATOM     10  N   UNL     1       8.298  10.286  17.511  0.00  0.00    +0.000 NA
ATOM     11  O   UNL     1       9.063  11.334  18.040  0.00  0.00    +0.000 OA
ATOM     12  C   UNL     1       9.696  10.847  19.127  0.00  0.00    +0.000 A 
ATOM     13  N   UNL     1       9.417   9.585  19.366  0.00  0.00    +0.000 NA
BRANCH  12  14
ATOM     14  C   UNL     1      10.578  11.808  19.846  0.00  0.00    +0.000 C 
ATOM     15  F   UNL     1      11.903  11.534  19.687  0.00  0.00    +0.000 F 
ATOM     16  F   UNL     1      10.399  13.086  19.415  0.00  0.00    +0.000 F 
ATOM     17  F   UNL     1      10.350  11.812  21.186  0.00  0.00    +0.000 F 
ENDBRANCH  12  14
ENDBRANCH   6   9
ENDBRANCH   1   3
BRANCH   1  19
ATOM     18  O   UNL     1       4.715   4.340  15.830  0.00  0.00    +0.000 OA
ATOM     19  S   UNL     1       4.726   3.863  17.197  0.00  0.00    +0.000 S 
ATOM     20  O   UNL     1       4.241   2.550  17.541  0.00  0.00    +0.000 OA
BRANCH  19  21
ATOM     21  C   UNL     1       3.837   5.058  18.166  0.00  0.00    +0.000 A 
ATOM     22  C   UNL     1       3.818   4.885  19.546  0.00  0.00    +0.000 A 
ATOM     23  C   UNL     1       2.994   5.693  20.311  0.00  0.00    +0.000 A 
ATOM     24  C   UNL     1       2.308   6.763  19.712  0.00  0.00    +0.000 A 
ATOM     25  C   UNL     1       1.456   7.565  20.467  0.00  0.00    +0.000 A 
ATOM     26  C   UNL     1       1.267   8.891  20.106  0.00  0.00    +0.000 A 
ATOM     27  C   UNL     1       1.618   9.293  18.824  0.00  0.00    +0.000 A 
ATOM     28  C   UNL     1       2.125   8.357  17.913  0.00  0.00    +0.000 A 
ATOM     29  C   UNL     1       2.546   7.097  18.363  0.00  0.00    +0.000 A 
ATOM     30  C   UNL     1       3.226   6.165  17.556  0.00  0.00    +0.000 A 
ENDBRANCH  19  21
ENDBRANCH   1  19
TORSDOF 5
ENDMDL
MODEL 9
REMARK VINA RESULT:      -8.4      4.845     11.136
REMARK  Name = 
REMARK  5 active torsions:
REMARK  status: ('A' for Active; 'I' for Inactive)
REMARK    1  A    between atoms: S_2  and  N_4
REMARK    2  A    between atoms: S_2  and  C_20
REMARK    3  A    between atoms: N_4  and  C_5
REMARK    4  A    between atoms: C_8  and  C_9
REMARK    5  A    between atoms: C_12  and  C_13
REMARK                            x       y       z     vdW  Elec       q    Type
REMARK                         _______ _______ _______ _____ _____    ______ ____
ROOT
ATOM      1  N   UNL     1       0.667   9.818  20.230  0.00  0.00    +0.000 N 
ATOM      2  H   UNL     1       0.846  10.792  19.991  0.00  0.00    +0.000 HD
ENDROOT
BRANCH   1   3
ATOM      3  C   UNL     1       1.458   8.842  19.565  0.00  0.00    +0.000 A 
ATOM      4  C   UNL     1       1.766   7.662  20.231  0.00  0.00    +0.000 A 
ATOM      5  C   UNL     1       2.506   6.667  19.589  0.00  0.00    +0.000 A 
ATOM      6  C   UNL     1       2.966   6.853  18.272  0.00  0.00    +0.000 A 
ATOM      7  C   UNL     1       2.667   8.055  17.622  0.00  0.00    +0.000 A 
ATOM      8  C   UNL     1       1.920   9.051  18.261  0.00  0.00    +0.000 A 
BRANCH   6   9
ATOM      9  C   UNL     1       3.750   5.795  17.593  0.00  0.00    +0.000 A 
ATOM     10  N   UNL     1       3.423   4.506  17.645  0.00  0.00    +0.000 NA
ATOM     11  O   UNL     1       4.425   3.897  16.876  0.00  0.00    +0.000 OA
ATOM     12  C   UNL     1       5.244   4.881  16.452  0.00  0.00    +0.000 A 
ATOM     13  N   UNL     1       4.876   6.075  16.862  0.00  0.00    +0.000 NA
BRANCH  12  14
ATOM     14  C   UNL     1       6.394   4.446  15.612  0.00  0.00    +0.000 C 
ATOM     15  F   UNL     1       6.704   5.339  14.630  0.00  0.00    +0.000 F 
ATOM     16  F   UNL     1       7.528   4.279  16.346  0.00  0.00    +0.000 F 
ATOM     17  F   UNL     1       6.157   3.262  14.987  0.00  0.00    +0.000 F 
ENDBRANCH  12  14
ENDBRANCH   6   9
ENDBRANCH   1   3
BRANCH   1  19
ATOM     18  O   UNL     1      -0.601   8.549  22.009  0.00  0.00    +0.000 OA
ATOM     19  S   UNL     1       0.358   9.627  21.894  0.00  0.00    +0.000 S 
ATOM     20  O   UNL     1       1.602   9.609  22.622  0.00  0.00    +0.000 OA
BRANCH  19  21
ATOM     21  C   UNL     1      -0.503  11.127  22.297  0.00  0.00    +0.000 A 
ATOM     22  C   UNL     1      -0.043  12.310  21.727  0.00  0.00    +0.000 A 
ATOM     23  C   UNL     1      -0.578  13.513  22.154  0.00  0.00    +0.000 A 
ATOM     24  C   UNL     1      -1.669  13.520  23.039  0.00  0.00    +0.000 A 
ATOM     25  C   UNL     1      -2.197  14.725  23.497  0.00  0.00    +0.000 A 
ATOM     26  C   UNL     1      -3.541  14.798  23.832  0.00  0.00    +0.000 A 
ATOM     27  C   UNL     1      -4.239  13.620  24.064  0.00  0.00    +0.000 A 
ATOM     28  C   UNL     1      -3.576  12.389  23.984  0.00  0.00    +0.000 A 
ATOM     29  C   UNL     1      -2.303  12.314  23.400  0.00  0.00    +0.000 A 
ATOM     30  C   UNL     1      -1.640  11.103  23.120  0.00  0.00    +0.000 A 
ENDBRANCH  19  21
ENDBRANCH   1  19
TORSDOF 5
ENDMDL
