MODEL 1
REMARK VINA RESULT:      -9.5      0.000      0.000
REMARK  Name = 
REMARK  5 active torsions:
REMARK  status: ('A' for Active; 'I' for Inactive)
REMARK    1  A    between atoms: C_1  and  C_2
REMARK    2  A    between atoms: N_4  and  C_5
REMARK    3  A    between atoms: C_5  and  C_6
REMARK    4  A    between atoms: C_5  and  C_24
REMARK    5  A    between atoms: C_16  and  C_17
REMARK                            x       y       z     vdW  Elec       q    Type
REMARK                         _______ _______ _______ _____ _____    ______ ____
ROOT
ATOM      1  C   UNL     1       5.679   4.049  16.336  0.00  0.00    +0.000 C 
ATOM      2  O   UNL     1       6.003   2.912  15.974  0.00  0.00    +0.000 OA
ATOM      3  N   UNL     1       4.723   4.250  17.325  0.00  0.00    +0.000 N 
ATOM      4  C   UNL     1       4.327   3.102  18.144  0.00  0.00    +0.000 C 
ATOM      5  C   UNL     1       2.988   3.250  18.834  0.00  0.00    +0.000 A 
ATOM      6  C   UNL     1       2.201   2.120  19.091  0.00  0.00    +0.000 A 
ATOM      7  C   UNL     1       0.966   2.251  19.725  0.00  0.00    +0.000 A 
ATOM      8  C   UNL     1       0.536   3.500  20.163  0.00  0.00    +0.000 A 
ATOM      9  C   UNL     1       1.327   4.627  19.950  0.00  0.00    +0.000 A 
ATOM     10  C   UNL     1       2.535   4.523  19.246  0.00  0.00    +0.000 A 
ATOM     11  C   UNL     1       3.378   5.726  18.843  0.00  0.00    +0.000 C 
ATOM     12  C   UNL     1       3.889   5.454  17.410  0.00  0.00    +0.000 C 
ENDROOT
BRANCH  11  13
ATOM     13  C   UNL     1       2.687   7.081  18.884  0.00  0.00    +0.000 A 
ATOM     14  C   UNL     1       2.648   7.885  17.731  0.00  0.00    +0.000 A 
ATOM     15  C   UNL     1       1.976   9.108  17.745  0.00  0.00    +0.000 A 
ATOM     16  C   UNL     1       1.341   9.545  18.907  0.00  0.00    +0.000 A 
ATOM     17  C   UNL     1       1.376   8.762  20.056  0.00  0.00    +0.000 A 
ATOM     18  C   UNL     1       2.041   7.539  20.046  0.00  0.00    +0.000 A 
ENDBRANCH  11  13
BRANCH   1  19
ATOM     19  C   UNL     1       6.332   5.295  15.685  0.00  0.00    +0.000 C 
BRANCH  19  23
ATOM     20  C   UNL     1       7.036   4.118  12.129  0.00  0.00    +0.000 C 
ATOM     21  C   UNL     1       6.234   4.396  13.372  0.00  0.00    +0.000 C 
ATOM     22  O   UNL     1       5.025   4.193  13.419  0.00  0.00    +0.000 OA
ATOM     23  N   UNL     1       6.956   4.916  14.417  0.00  0.00    +0.000 N 
ATOM     24  H   UNL     1       7.952   5.075  14.320  0.00  0.00    +0.000 HD
ENDBRANCH  19  23
BRANCH  19  25
ATOM     25  C   UNL     1       7.378   5.892  16.647  0.00  0.00    +0.000 C 
ATOM     26  C   UNL     1       7.481   5.103  17.957  0.00  0.00    +0.000 C 
ATOM     27  C   UNL     1       8.042   6.079  18.981  0.00  0.00    +0.000 C 
ATOM     28  C   UNL     1       7.854   7.476  18.394  0.00  0.00    +0.000 C 
ATOM     29  C   UNL     1       7.016   7.295  17.136  0.00  0.00    +0.000 C 
ENDBRANCH  19  25
ENDBRANCH   1  19
TORSDOF 4
ENDMDL
MODEL 2
REMARK VINA RESULT:      -9.5      3.415      7.169
REMARK  Name = 
REMARK  5 active torsions:
REMARK  status: ('A' for Active; 'I' for Inactive)
REMARK    1  A    between atoms: C_1  and  C_2
REMARK    2  A    between atoms: N_4  and  C_5
REMARK    3  A    between atoms: C_5  and  C_6
REMARK    4  A    between atoms: C_5  and  C_24
REMARK    5  A    between atoms: C_16  and  C_17
REMARK                            x       y       z     vdW  Elec       q    Type
REMARK                         _______ _______ _______ _____ _____    ______ ____
ROOT
ATOM      1  C   UNL     1       1.839   9.423  17.921  0.00  0.00    +0.000 C 
ATOM      2  O   UNL     1       2.255  10.369  17.243  0.00  0.00    +0.000 OA
ATOM      3  N   UNL     1       2.529   8.218  17.989  0.00  0.00    +0.000 N 
ATOM      4  C   UNL     1       3.908   8.187  17.495  0.00  0.00    +0.000 C 
ATOM      5  C   UNL     1       4.421   6.806  17.143  0.00  0.00    +0.000 A 
ATOM      6  C   UNL     1       5.373   6.649  16.127  0.00  0.00    +0.000 A 
ATOM      7  C   UNL     1       5.847   5.380  15.798  0.00  0.00    +0.000 A 
ATOM      8  C   UNL     1       5.424   4.267  16.520  0.00  0.00    +0.000 A 
ATOM      9  C   UNL     1       4.508   4.415  17.560  0.00  0.00    +0.000 A 
ATOM     10  C   UNL     1       3.963   5.673  17.851  0.00  0.00    +0.000 A 
ATOM     11  C   UNL     1       2.849   5.891  18.868  0.00  0.00    +0.000 C 
ATOM     12  C   UNL     1       1.882   6.929  18.255  0.00  0.00    +0.000 C 
ENDROOT
BRANCH  11  13
ATOM     13  C   UNL     1       2.065   4.656  19.287  0.00  0.00    +0.000 A 
ATOM     14  C   UNL     1       1.444   3.855  18.313  0.00  0.00    +0.000 A 
ATOM     15  C   UNL     1       0.762   2.695  18.683  0.00  0.00    +0.000 A 
ATOM     16  C   UNL     1       0.689   2.323  20.025  0.00  0.00    +0.000 A 
ATOM     17  C   UNL     1       1.295   3.109  20.999  0.00  0.00    +0.000 A 
ATOM     18  C   UNL     1       1.980   4.265  20.635  0.00  0.00    +0.000 A 
ENDBRANCH  11  13
BRANCH   1  19
ATOM     19  C   UNL     1       0.515   9.554  18.718  0.00  0.00    +0.000 C 
BRANCH  19  23
ATOM     20  C   UNL     1      -2.340  11.645  17.304  0.00  0.00    +0.000 C 
ATOM     21  C   UNL     1      -1.642  10.431  17.856  0.00  0.00    +0.000 C 
ATOM     22  O   UNL     1      -2.241   9.380  18.062  0.00  0.00    +0.000 OA
ATOM     23  N   UNL     1      -0.309  10.609  18.130  0.00  0.00    +0.000 N 
ATOM     24  H   UNL     1       0.133  11.503  17.951  0.00  0.00    +0.000 HD
ENDBRANCH  19  23
BRANCH  19  25
ATOM     25  C   UNL     1       0.830   9.869  20.193  0.00  0.00    +0.000 C 
ATOM     26  C   UNL     1       0.661   8.643  21.099  0.00  0.00    +0.000 C 
ATOM     27  C   UNL     1       0.410   9.196  22.495  0.00  0.00    +0.000 C 
ATOM     28  C   UNL     1       0.017  10.659  22.315  0.00  0.00    +0.000 C 
ATOM     29  C   UNL     1      -0.142  10.873  20.816  0.00  0.00    +0.000 C 
ENDBRANCH  19  25
ENDBRANCH   1  19
TORSDOF 4
ENDMDL
MODEL 3
REMARK VINA RESULT:      -8.8      0.808      1.116
REMARK  Name = 
REMARK  5 active torsions:
REMARK  status: ('A' for Active; 'I' for Inactive)
REMARK    1  A    between atoms: C_1  and  C_2
REMARK    2  A    between atoms: N_4  and  C_5
REMARK    3  A    between atoms: C_5  and  C_6
REMARK    4  A    between atoms: C_5  and  C_24
REMARK    5  A    between atoms: C_16  and  C_17
REMARK                            x       y       z     vdW  Elec       q    Type
REMARK                         _______ _______ _______ _____ _____    ______ ____
ROOT
ATOM      1  C   UNL     1       5.557   4.501  16.564  0.00  0.00    +0.000 C 
ATOM      2  O   UNL     1       5.933   3.447  16.040  0.00  0.00    +0.000 OA
ATOM      3  N   UNL     1       4.566   4.515  17.539  0.00  0.00    +0.000 N 
ATOM      4  C   UNL     1       4.190   3.241  18.156  0.00  0.00    +0.000 C 
ATOM      5  C   UNL     1       2.827   3.237  18.815  0.00  0.00    +0.000 A 
ATOM      6  C   UNL     1       2.075   2.056  18.866  0.00  0.00    +0.000 A 
ATOM      7  C   UNL     1       0.818   2.047  19.470  0.00  0.00    +0.000 A 
ATOM      8  C   UNL     1       0.330   3.198  20.083  0.00  0.00    +0.000 A 
ATOM      9  C   UNL     1       1.086   4.369  20.075  0.00  0.00    +0.000 A 
ATOM     10  C   UNL     1       2.316   4.415  19.405  0.00  0.00    +0.000 A 
ATOM     11  C   UNL     1       3.127   5.692  19.223  0.00  0.00    +0.000 C 
ATOM     12  C   UNL     1       3.688   5.664  17.783  0.00  0.00    +0.000 C 
ENDROOT
BRANCH  11  13
ATOM     13  C   UNL     1       2.386   7.001  19.451  0.00  0.00    +0.000 A 
ATOM     14  C   UNL     1       2.204   7.900  18.385  0.00  0.00    +0.000 A 
ATOM     15  C   UNL     1       1.485   9.082  18.573  0.00  0.00    +0.000 A 
ATOM     16  C   UNL     1       0.945   9.382  19.823  0.00  0.00    +0.000 A 
ATOM     17  C   UNL     1       1.123   8.504  20.887  0.00  0.00    +0.000 A 
ATOM     18  C   UNL     1       1.834   7.322  20.704  0.00  0.00    +0.000 A 
ENDBRANCH  11  13
BRANCH   1  19
ATOM     19  C   UNL     1       6.183   5.854  16.138  0.00  0.00    +0.000 C 
BRANCH  19  23
ATOM     20  C   UNL     1       8.377   5.055  13.125  0.00  0.00    +0.000 C 
ATOM     21  C   UNL     1       7.113   5.200  13.930  0.00  0.00    +0.000 C 
ATOM     22  O   UNL     1       6.008   4.988  13.440  0.00  0.00    +0.000 OA
ATOM     23  N   UNL     1       7.301   5.612  15.225  0.00  0.00    +0.000 N 
ATOM     24  H   UNL     1       8.236   5.784  15.575  0.00  0.00    +0.000 HD
ENDBRANCH  19  23
BRANCH  19  25
ATOM     25  C   UNL     1       6.659   6.620  17.387  0.00  0.00    +0.000 C 
ATOM     26  C   UNL     1       7.464   7.875  17.030  0.00  0.00    +0.000 C 
ATOM     27  C   UNL     1       8.333   8.166  18.244  0.00  0.00    +0.000 C 
ATOM     28  C   UNL     1       8.348   6.889  19.080  0.00  0.00    +0.000 C 
ATOM     29  C   UNL     1       7.652   5.827  18.240  0.00  0.00    +0.000 C 
ENDBRANCH  19  25
ENDBRANCH   1  19
TORSDOF 4
ENDMDL
MODEL 4
REMARK VINA RESULT:      -8.1      3.463      7.099
REMARK  Name = 
REMARK  5 active torsions:
REMARK  status: ('A' for Active; 'I' for Inactive)
REMARK    1  A    between atoms: C_1  and  C_2
REMARK    2  A    between atoms: N_4  and  C_5
REMARK    3  A    between atoms: C_5  and  C_6
REMARK    4  A    between atoms: C_5  and  C_24
REMARK    5  A    between atoms: C_16  and  C_17
REMARK                            x       y       z     vdW  Elec       q    Type
REMARK                         _______ _______ _______ _____ _____    ______ ____
ROOT
ATOM      1  C   UNL     1       1.646   9.340  17.749  0.00  0.00    +0.000 C 
ATOM      2  O   UNL     1       2.122  10.312  17.152  0.00  0.00    +0.000 OA
ATOM      3  N   UNL     1       2.411   8.215  18.030  0.00  0.00    +0.000 N 
ATOM      4  C   UNL     1       3.864   8.315  17.880  0.00  0.00    +0.000 C 
ATOM      5  C   UNL     1       4.576   6.989  17.718  0.00  0.00    +0.000 A 
ATOM      6  C   UNL     1       5.755   6.912  16.966  0.00  0.00    +0.000 A 
ATOM      7  C   UNL     1       6.414   5.693  16.812  0.00  0.00    +0.000 A 
ATOM      8  C   UNL     1       5.936   4.555  17.458  0.00  0.00    +0.000 A 
ATOM      9  C   UNL     1       4.787   4.626  18.242  0.00  0.00    +0.000 A 
ATOM     10  C   UNL     1       4.071   5.827  18.343  0.00  0.00    +0.000 A 
ATOM     11  C   UNL     1       2.729   5.948  19.054  0.00  0.00    +0.000 C 
ATOM     12  C   UNL     1       1.844   6.871  18.187  0.00  0.00    +0.000 C 
ENDROOT
BRANCH  11  13
ATOM     13  C   UNL     1       1.988   4.647  19.325  0.00  0.00    +0.000 A 
ATOM     14  C   UNL     1       1.470   3.898  18.254  0.00  0.00    +0.000 A 
ATOM     15  C   UNL     1       0.830   2.679  18.488  0.00  0.00    +0.000 A 
ATOM     16  C   UNL     1       0.696   2.197  19.790  0.00  0.00    +0.000 A 
ATOM     17  C   UNL     1       1.200   2.930  20.859  0.00  0.00    +0.000 A 
ATOM     18  C   UNL     1       1.843   4.143  20.631  0.00  0.00    +0.000 A 
ENDBRANCH  11  13
BRANCH   1  19
ATOM     19  C   UNL     1       0.163   9.349  18.202  0.00  0.00    +0.000 C 
BRANCH  19  23
ATOM     20  C   UNL     1      -2.678  10.901  16.188  0.00  0.00    +0.000 C 
ATOM     21  C   UNL     1      -2.017  10.049  17.239  0.00  0.00    +0.000 C 
ATOM     22  O   UNL     1      -2.672   9.406  18.054  0.00  0.00    +0.000 OA
ATOM     23  N   UNL     1      -0.645  10.077  17.223  0.00  0.00    +0.000 N 
ATOM     24  H   UNL     1      -0.154  10.634  16.534  0.00  0.00    +0.000 HD
ENDBRANCH  19  23
BRANCH  19  25
ATOM     25  C   UNL     1       0.050  10.004  19.592  0.00  0.00    +0.000 C 
ATOM     26  C   UNL     1       0.873  11.294  19.696  0.00  0.00    +0.000 C 
ATOM     27  C   UNL     1       1.155  11.482  21.180  0.00  0.00    +0.000 C 
ATOM     28  C   UNL     1       0.884  10.135  21.845  0.00  0.00    +0.000 C 
ATOM     29  C   UNL     1       0.641   9.147  20.713  0.00  0.00    +0.000 C 
ENDBRANCH  19  25
ENDBRANCH   1  19
TORSDOF 4
ENDMDL
MODEL 5
REMARK VINA RESULT:      -7.9      7.510     10.993
REMARK  Name = 
REMARK  5 active torsions:
REMARK  status: ('A' for Active; 'I' for Inactive)
REMARK    1  A    between atoms: C_1  and  C_2
REMARK    2  A    between atoms: N_4  and  C_5
REMARK    3  A    between atoms: C_5  and  C_6
REMARK    4  A    between atoms: C_5  and  C_24
REMARK    5  A    between atoms: C_16  and  C_17
REMARK                            x       y       z     vdW  Elec       q    Type
REMARK                         _______ _______ _______ _____ _____    ______ ____
ROOT
ATOM      1  C   UNL     1      -1.597  11.381  18.803  0.00  0.00    +0.000 C 
ATOM      2  O   UNL     1      -1.316  10.887  17.705  0.00  0.00    +0.000 OA
ATOM      3  N   UNL     1      -2.890  11.788  19.107  0.00  0.00    +0.000 N 
ATOM      4  C   UNL     1      -3.975  11.347  18.227  0.00  0.00    +0.000 C 
ATOM      5  C   UNL     1      -5.233  12.186  18.306  0.00  0.00    +0.000 A 
ATOM      6  C   UNL     1      -6.054  12.328  17.180  0.00  0.00    +0.000 A 
ATOM      7  C   UNL     1      -7.213  13.101  17.246  0.00  0.00    +0.000 A 
ATOM      8  C   UNL     1      -7.593  13.686  18.451  0.00  0.00    +0.000 A 
ATOM      9  C   UNL     1      -6.806  13.520  19.589  0.00  0.00    +0.000 A 
ATOM     10  C   UNL     1      -5.599  12.810  19.519  0.00  0.00    +0.000 A 
ATOM     11  C   UNL     1      -4.613  12.713  20.676  0.00  0.00    +0.000 C 
ATOM     12  C   UNL     1      -3.198  12.849  20.072  0.00  0.00    +0.000 C 
ENDROOT
BRANCH  11  13
ATOM     13  C   UNL     1      -4.784  13.729  21.797  0.00  0.00    +0.000 A 
ATOM     14  C   UNL     1      -5.548  13.401  22.931  0.00  0.00    +0.000 A 
ATOM     15  C   UNL     1      -5.671  14.309  23.985  0.00  0.00    +0.000 A 
ATOM     16  C   UNL     1      -5.040  15.550  23.918  0.00  0.00    +0.000 A 
ATOM     17  C   UNL     1      -4.286  15.889  22.800  0.00  0.00    +0.000 A 
ATOM     18  C   UNL     1      -4.155  14.986  21.748  0.00  0.00    +0.000 A 
ENDBRANCH  11  13
BRANCH   1  19
ATOM     19  C   UNL     1      -0.498  11.567  19.881  0.00  0.00    +0.000 C 
BRANCH  19  23
ATOM     20  C   UNL     1       2.644  13.022  18.288  0.00  0.00    +0.000 C 
ATOM     21  C   UNL     1       1.268  13.011  18.898  0.00  0.00    +0.000 C 
ATOM     22  O   UNL     1       0.641  14.046  19.097  0.00  0.00    +0.000 OA
ATOM     23  N   UNL     1       0.798  11.765  19.232  0.00  0.00    +0.000 N 
ATOM     24  H   UNL     1       1.363  10.943  19.056  0.00  0.00    +0.000 HD
ENDBRANCH  19  23
BRANCH  19  25
ATOM     25  C   UNL     1      -0.462  10.331  20.801  0.00  0.00    +0.000 C 
ATOM     26  C   UNL     1      -0.620  10.701  22.280  0.00  0.00    +0.000 C 
ATOM     27  C   UNL     1       0.011   9.557  23.059  0.00  0.00    +0.000 C 
ATOM     28  C   UNL     1       0.878   8.786  22.068  0.00  0.00    +0.000 C 
ATOM     29  C   UNL     1       0.886   9.608  20.786  0.00  0.00    +0.000 C 
ENDBRANCH  19  25
ENDBRANCH   1  19
TORSDOF 4
ENDMDL
MODEL 6
REMARK VINA RESULT:      -7.9      7.699     11.173
REMARK  Name = 
REMARK  5 active torsions:
REMARK  status: ('A' for Active; 'I' for Inactive)
REMARK    1  A    between atoms: C_1  and  C_2
REMARK    2  A    between atoms: N_4  and  C_5
REMARK    3  A    between atoms: C_5  and  C_6
REMARK    4  A    between atoms: C_5  and  C_24
REMARK    5  A    between atoms: C_16  and  C_17
REMARK                            x       y       z     vdW  Elec       q    Type
REMARK                         _______ _______ _______ _____ _____    ______ ____
ROOT
ATOM      1  C   UNL     1      -1.584  11.567  19.003  0.00  0.00    +0.000 C 
ATOM      2  O   UNL     1      -1.196  11.138  17.911  0.00  0.00    +0.000 OA
ATOM      3  N   UNL     1      -2.919  11.882  19.228  0.00  0.00    +0.000 N 
ATOM      4  C   UNL     1      -3.909  11.413  18.257  0.00  0.00    +0.000 C 
ATOM      5  C   UNL     1      -5.220  12.171  18.276  0.00  0.00    +0.000 A 
ATOM      6  C   UNL     1      -5.968  12.309  17.100  0.00  0.00    +0.000 A 
ATOM      7  C   UNL     1      -7.175  13.007  17.111  0.00  0.00    +0.000 A 
ATOM      8  C   UNL     1      -7.675  13.518  18.306  0.00  0.00    +0.000 A 
ATOM      9  C   UNL     1      -6.960  13.352  19.491  0.00  0.00    +0.000 A 
ATOM     10  C   UNL     1      -5.709  12.720  19.482  0.00  0.00    +0.000 A 
ATOM     11  C   UNL     1      -4.802  12.634  20.703  0.00  0.00    +0.000 C 
ATOM     12  C   UNL     1      -3.359  12.881  20.208  0.00  0.00    +0.000 C 
ENDROOT
BRANCH  11  13
ATOM     13  C   UNL     1      -5.114  13.590  21.845  0.00  0.00    +0.000 A 
ATOM     14  C   UNL     1      -4.540  14.874  21.863  0.00  0.00    +0.000 A 
ATOM     15  C   UNL     1      -4.856  15.775  22.882  0.00  0.00    +0.000 A 
ATOM     16  C   UNL     1      -5.744  15.406  23.892  0.00  0.00    +0.000 A 
ATOM     17  C   UNL     1      -6.315  14.138  23.889  0.00  0.00    +0.000 A 
ATOM     18  C   UNL     1      -6.006  13.237  22.874  0.00  0.00    +0.000 A 
ENDBRANCH  11  13
BRANCH   1  19
ATOM     19  C   UNL     1      -0.577  11.774  20.164  0.00  0.00    +0.000 C 
BRANCH  19  23
ATOM     20  C   UNL     1       2.587  13.514  18.944  0.00  0.00    +0.000 C 
ATOM     21  C   UNL     1       1.183  13.383  19.469  0.00  0.00    +0.000 C 
ATOM     22  O   UNL     1       0.509  14.366  19.760  0.00  0.00    +0.000 OA
ATOM     23  N   UNL     1       0.743  12.092  19.619  0.00  0.00    +0.000 N 
ATOM     24  H   UNL     1       1.346  11.315  19.374  0.00  0.00    +0.000 HD
ENDBRANCH  19  23
BRANCH  19  25
ATOM     25  C   UNL     1      -0.515  10.500  21.028  0.00  0.00    +0.000 C 
ATOM     26  C   UNL     1      -0.799  10.785  22.508  0.00  0.00    +0.000 C 
ATOM     27  C   UNL     1      -0.142   9.649  23.278  0.00  0.00    +0.000 C 
ATOM     28  C   UNL     1       0.842   8.988  22.317  0.00  0.00    +0.000 C 
ATOM     29  C   UNL     1       0.879   9.871  21.077  0.00  0.00    +0.000 C 
ENDBRANCH  19  25
ENDBRANCH   1  19
TORSDOF 4
ENDMDL
MODEL 7
REMARK VINA RESULT:      -7.8      7.100     10.452
REMARK  Name = 
REMARK  5 active torsions:
REMARK  status: ('A' for Active; 'I' for Inactive)
REMARK    1  A    between atoms: C_1  and  C_2
REMARK    2  A    between atoms: N_4  and  C_5
REMARK    3  A    between atoms: C_5  and  C_6
REMARK    4  A    between atoms: C_5  and  C_24
REMARK    5  A    between atoms: C_16  and  C_17
REMARK                            x       y       z     vdW  Elec       q    Type
REMARK                         _______ _______ _______ _____ _____    ______ ____
ROOT
ATOM      1  C   UNL     1      -1.712  11.190  18.121  0.00  0.00    +0.000 C 
ATOM      2  O   UNL     1      -1.770  10.834  16.938  0.00  0.00    +0.000 OA
ATOM      3  N   UNL     1      -2.840  11.634  18.801  0.00  0.00    +0.000 N 
ATOM      4  C   UNL     1      -4.151  11.388  18.196  0.00  0.00    +0.000 C 
ATOM      5  C   UNL     1      -5.259  12.287  18.701  0.00  0.00    +0.000 A 
ATOM      6  C   UNL     1      -6.322  12.634  17.857  0.00  0.00    +0.000 A 
ATOM      7  C   UNL     1      -7.344  13.463  18.316  0.00  0.00    +0.000 A 
ATOM      8  C   UNL     1      -7.346  13.902  19.638  0.00  0.00    +0.000 A 
ATOM      9  C   UNL     1      -6.316  13.532  20.500  0.00  0.00    +0.000 A 
ATOM     10  C   UNL     1      -5.242  12.762  20.031  0.00  0.00    +0.000 A 
ATOM     11  C   UNL     1      -4.008  12.445  20.867  0.00  0.00    +0.000 C 
ATOM     12  C   UNL     1      -2.787  12.571  19.929  0.00  0.00    +0.000 C 
ENDROOT
BRANCH  11  13
ATOM     13  C   UNL     1      -3.788  13.307  22.101  0.00  0.00    +0.000 A 
ATOM     14  C   UNL     1      -4.056  12.785  23.379  0.00  0.00    +0.000 A 
ATOM     15  C   UNL     1      -3.813  13.552  24.521  0.00  0.00    +0.000 A 
ATOM     16  C   UNL     1      -3.304  14.844  24.400  0.00  0.00    +0.000 A 
ATOM     17  C   UNL     1      -3.039  15.375  23.143  0.00  0.00    +0.000 A 
ATOM     18  C   UNL     1      -3.276  14.613  22.002  0.00  0.00    +0.000 A 
ENDBRANCH  11  13
BRANCH   1  19
ATOM     19  C   UNL     1      -0.363  11.156  18.883  0.00  0.00    +0.000 C 
BRANCH  19  23
ATOM     20  C   UNL     1       2.288  13.803  18.177  0.00  0.00    +0.000 C 
ATOM     21  C   UNL     1       1.336  12.965  18.989  0.00  0.00    +0.000 C 
ATOM     22  O   UNL     1       1.276  13.057  20.211  0.00  0.00    +0.000 OA
ATOM     23  N   UNL     1       0.578  12.085  18.257  0.00  0.00    +0.000 N 
ATOM     24  H   UNL     1       0.676  12.042  17.250  0.00  0.00    +0.000 HD
ENDBRANCH  19  23
BRANCH  19  25
ATOM     25  C   UNL     1       0.201   9.723  18.873  0.00  0.00    +0.000 C 
ATOM     26  C   UNL     1       0.785   9.317  20.231  0.00  0.00    +0.000 C 
ATOM     27  C   UNL     1       1.787   8.211  19.933  0.00  0.00    +0.000 C 
ATOM     28  C   UNL     1       2.082   8.287  18.438  0.00  0.00    +0.000 C 
ATOM     29  C   UNL     1       1.399   9.552  17.937  0.00  0.00    +0.000 C 
ENDBRANCH  19  25
ENDBRANCH   1  19
TORSDOF 4
ENDMDL
MODEL 8
REMARK VINA RESULT:      -7.8      3.445      7.253
REMARK  Name = 
REMARK  5 active torsions:
REMARK  status: ('A' for Active; 'I' for Inactive)
REMARK    1  A    between atoms: C_1  and  C_2
REMARK    2  A    between atoms: N_4  and  C_5
REMARK    3  A    between atoms: C_5  and  C_6
REMARK    4  A    between atoms: C_5  and  C_24
REMARK    5  A    between atoms: C_16  and  C_17
REMARK                            x       y       z     vdW  Elec       q    Type
REMARK                         _______ _______ _______ _____ _____    ______ ____
ROOT
ATOM      1  C   UNL     1       1.680   9.197  18.128  0.00  0.00    +0.000 C 
ATOM      2  O   UNL     1       2.004  10.194  17.473  0.00  0.00    +0.000 OA
ATOM      3  N   UNL     1       2.435   8.031  18.097  0.00  0.00    +0.000 N 
ATOM      4  C   UNL     1       3.780   8.097  17.521  0.00  0.00    +0.000 C 
ATOM      5  C   UNL     1       4.341   6.763  17.073  0.00  0.00    +0.000 A 
ATOM      6  C   UNL     1       5.235   6.704  15.997  0.00  0.00    +0.000 A 
ATOM      7  C   UNL     1       5.754   5.479  15.579  0.00  0.00    +0.000 A 
ATOM      8  C   UNL     1       5.434   4.314  16.271  0.00  0.00    +0.000 A 
ATOM      9  C   UNL     1       4.578   4.364  17.369  0.00  0.00    +0.000 A 
ATOM     10  C   UNL     1       3.987   5.576  17.752  0.00  0.00    +0.000 A 
ATOM     11  C   UNL     1       2.928   5.688  18.842  0.00  0.00    +0.000 C 
ATOM     12  C   UNL     1       1.873   6.697  18.339  0.00  0.00    +0.000 C 
ENDROOT
BRANCH  11  13
ATOM     13  C   UNL     1       2.237   4.394  19.247  0.00  0.00    +0.000 A 
ATOM     14  C   UNL     1       2.328   3.935  20.573  0.00  0.00    +0.000 A 
ATOM     15  C   UNL     1       1.658   2.774  20.966  0.00  0.00    +0.000 A 
ATOM     16  C   UNL     1       0.897   2.059  20.043  0.00  0.00    +0.000 A 
ATOM     17  C   UNL     1       0.803   2.499  18.727  0.00  0.00    +0.000 A 
ATOM     18  C   UNL     1       1.465   3.657  18.331  0.00  0.00    +0.000 A 
ENDBRANCH  11  13
BRANCH   1  19
ATOM     19  C   UNL     1       0.403   9.220  19.007  0.00  0.00    +0.000 C 
BRANCH  19  23
ATOM     20  C   UNL     1      -1.665  12.157  17.731  0.00  0.00    +0.000 C 
ATOM     21  C   UNL     1      -0.573  11.442  18.483  0.00  0.00    +0.000 C 
ATOM     22  O   UNL     1       0.287  12.054  19.108  0.00  0.00    +0.000 OA
ATOM     23  N   UNL     1      -0.608  10.074  18.384  0.00  0.00    +0.000 N 
ATOM     24  H   UNL     1      -1.335   9.620  17.844  0.00  0.00    +0.000 HD
ENDBRANCH  19  23
BRANCH  19  25
ATOM     25  C   UNL     1       0.754   9.735  20.416  0.00  0.00    +0.000 C 
ATOM     26  C   UNL     1       1.615   8.739  21.202  0.00  0.00    +0.000 C 
ATOM     27  C   UNL     1       1.381   9.064  22.670  0.00  0.00    +0.000 C 
ATOM     28  C   UNL     1       0.114   9.912  22.729  0.00  0.00    +0.000 C 
ATOM     29  C   UNL     1      -0.468   9.898  21.321  0.00  0.00    +0.000 C 
ENDBRANCH  19  25
ENDBRANCH   1  19
TORSDOF 4
ENDMDL
MODEL 9
REMARK VINA RESULT:      -7.7      7.366     10.755
REMARK  Name = 
REMARK  5 active torsions:
REMARK  status: ('A' for Active; 'I' for Inactive)
REMARK    1  A    between atoms: C_1  and  C_2
REMARK    2  A    between atoms: N_4  and  C_5
REMARK    3  A    between atoms: C_5  and  C_6
REMARK    4  A    between atoms: C_5  and  C_24
REMARK    5  A    between atoms: C_16  and  C_17
REMARK                            x       y       z     vdW  Elec       q    Type
REMARK                         _______ _______ _______ _____ _____    ______ ____
ROOT
ATOM      1  C   UNL     1      -0.465  12.334  20.667  0.00  0.00    +0.000 C 
ATOM      2  O   UNL     1       0.435  12.127  21.489  0.00  0.00    +0.000 OA
ATOM      3  N   UNL     1      -1.758  12.645  21.069  0.00  0.00    +0.000 N 
ATOM      4  C   UNL     1      -1.972  13.024  22.468  0.00  0.00    +0.000 C 
ATOM      5  C   UNL     1      -3.398  12.872  22.953  0.00  0.00    +0.000 A 
ATOM      6  C   UNL     1      -3.655  12.569  24.296  0.00  0.00    +0.000 A 
ATOM      7  C   UNL     1      -4.966  12.427  24.748  0.00  0.00    +0.000 A 
ATOM      8  C   UNL     1      -6.031  12.647  23.878  0.00  0.00    +0.000 A 
ATOM      9  C   UNL     1      -5.791  12.988  22.549  0.00  0.00    +0.000 A 
ATOM     10  C   UNL     1      -4.478  13.059  22.062  0.00  0.00    +0.000 A 
ATOM     11  C   UNL     1      -4.138  13.277  20.593  0.00  0.00    +0.000 C 
ATOM     12  C   UNL     1      -2.949  12.346  20.266  0.00  0.00    +0.000 C 
ENDROOT
BRANCH  11  13
ATOM     13  C   UNL     1      -5.260  13.031  19.595  0.00  0.00    +0.000 A 
ATOM     14  C   UNL     1      -5.463  11.743  19.070  0.00  0.00    +0.000 A 
ATOM     15  C   UNL     1      -6.519  11.496  18.190  0.00  0.00    +0.000 A 
ATOM     16  C   UNL     1      -7.380  12.530  17.823  0.00  0.00    +0.000 A 
ATOM     17  C   UNL     1      -7.188  13.810  18.331  0.00  0.00    +0.000 A 
ATOM     18  C   UNL     1      -6.139  14.060  19.212  0.00  0.00    +0.000 A 
ENDBRANCH  11  13
BRANCH   1  19
ATOM     19  C   UNL     1      -0.172  12.244  19.147  0.00  0.00    +0.000 C 
BRANCH  19  23
ATOM     20  C   UNL     1       1.620   9.083  17.998  0.00  0.00    +0.000 C 
ATOM     21  C   UNL     1       0.477  10.039  18.205  0.00  0.00    +0.000 C 
ATOM     22  O   UNL     1      -0.644   9.811  17.762  0.00  0.00    +0.000 OA
ATOM     23  N   UNL     1       0.800  11.180  18.896  0.00  0.00    +0.000 N 
ATOM     24  H   UNL     1       1.746  11.323  19.231  0.00  0.00    +0.000 HD
ENDBRANCH  19  23
BRANCH  19  25
ATOM     25  C   UNL     1       0.362  13.598  18.643  0.00  0.00    +0.000 C 
ATOM     26  C   UNL     1       1.892  13.681  18.708  0.00  0.00    +0.000 C 
ATOM     27  C   UNL     1       2.220  15.166  18.772  0.00  0.00    +0.000 C 
ATOM     28  C   UNL     1       0.929  15.877  19.168  0.00  0.00    +0.000 C 
ATOM     29  C   UNL     1      -0.068  14.779  19.515  0.00  0.00    +0.000 C 
ENDBRANCH  19  25
ENDBRANCH   1  19
TORSDOF 4
ENDMDL
