MODEL 1
REMARK VINA RESULT:      -8.8      0.000      0.000
REMARK  Name = 
REMARK  5 active torsions:
REMARK  status: ('A' for Active; 'I' for Inactive)
REMARK    1  A    between atoms: C_2  and  C_3
REMARK    2  A    between atoms: C_18  and  C_19
REMARK    3  A    between atoms: C_19  and  C_20
REMARK    4  A    between atoms: C_20  and  C_21
REMARK    5  A    between atoms: C_24  and  O_25
REMARK                            x       y       z     vdW  Elec       q    Type
REMARK                         _______ _______ _______ _____ _____    ______ ____
ROOT
ATOM      1  O   UNL     1       2.184   9.079  17.145  0.00  0.00    +0.000 OA
ATOM      2  C   UNL     1       2.181   8.470  18.214  0.00  0.00    +0.000 C 
ATOM      3  N   UNL     1       1.659   9.010  19.393  0.00  0.00    +0.000 N 
ATOM      4  C   UNL     1       1.808   8.492  20.758  0.00  0.00    +0.000 C 
ATOM      5  C   UNL     1       0.433   8.110  21.325  0.00  0.00    +0.000 C 
ATOM      6  C   UNL     1      -0.555   9.291  21.265  0.00  0.00    +0.000 C 
ATOM      7  C   UNL     1      -0.583   9.863  19.830  0.00  0.00    +0.000 C 
ATOM      8  C   UNL     1       0.814  10.198  19.304  0.00  0.00    +0.000 C 
ENDROOT
BRANCH   2   9
ATOM      9  C   UNL     1       2.719   7.085  18.197  0.00  0.00    +0.000 A 
ATOM     10  C   UNL     1       4.074   6.854  17.935  0.00  0.00    +0.000 A 
ATOM     11  C   UNL     1       4.550   5.543  17.897  0.00  0.00    +0.000 A 
ATOM     12  F   UNL     1       5.844   5.321  17.622  0.00  0.00    +0.000 F 
ATOM     13  C   UNL     1       3.698   4.465  18.149  0.00  0.00    +0.000 A 
ATOM     14  N   UNL     1       4.158   3.140  18.122  0.00  0.00    +0.000 N 
ATOM     15  C   UNL     1       3.351   2.057  18.340  0.00  0.00    +0.000 A 
ATOM     16  O   UNL     1       3.754   0.905  18.272  0.00  0.00    +0.000 OA
ATOM     17  C   UNL     1       1.929   2.336  18.681  0.00  0.00    +0.000 A 
ATOM     18  C   UNL     1       1.455   3.585  18.707  0.00  0.00    +0.000 A 
ATOM     19  C   UNL     1       2.346   4.696  18.392  0.00  0.00    +0.000 A 
ATOM     20  C   UNL     1       1.860   5.993  18.341  0.00  0.00    +0.000 A 
ATOM     21  H   UNL     1       5.126   2.952  17.901  0.00  0.00    +0.000 HD
ENDBRANCH   2   9
BRANCH   6  22
ATOM     22  C   UNL     1      -0.192  10.320  22.348  0.00  0.00    +0.000 C 
BRANCH  22  23
ATOM     23  C   UNL     1      -0.350  11.768  21.890  0.00  0.00    +0.000 C 
BRANCH  23  24
ATOM     24  C   UNL     1      -1.324  12.494  22.779  0.00  0.00    +0.000 A 
ATOM     25  C   UNL     1      -2.542  11.889  23.129  0.00  0.00    +0.000 A 
ATOM     26  C   UNL     1      -3.473  12.577  23.906  0.00  0.00    +0.000 A 
ATOM     27  C   UNL     1      -3.185  13.870  24.332  0.00  0.00    +0.000 A 
ATOM     28  C   UNL     1      -1.981  14.481  23.998  0.00  0.00    +0.000 A 
ATOM     29  C   UNL     1      -1.051  13.795  23.219  0.00  0.00    +0.000 A 
BRANCH  27  30
ATOM     30  O   UNL     1      -4.074  14.586  25.076  0.00  0.00    +0.000 OA
ATOM     31  H   UNL     1      -3.648  15.413  25.350  0.00  0.00    +0.000 HD
ENDBRANCH  27  30
ENDBRANCH  23  24
ENDBRANCH  22  23
ENDBRANCH   6  22
TORSDOF 5
ENDMDL
MODEL 2
REMARK VINA RESULT:      -8.6      3.743      5.168
REMARK  Name = 
REMARK  5 active torsions:
REMARK  status: ('A' for Active; 'I' for Inactive)
REMARK    1  A    between atoms: C_2  and  C_3
REMARK    2  A    between atoms: C_18  and  C_19
REMARK    3  A    between atoms: C_19  and  C_20
REMARK    4  A    between atoms: C_20  and  C_21
REMARK    5  A    between atoms: C_24  and  O_25
REMARK                            x       y       z     vdW  Elec       q    Type
REMARK                         _______ _______ _______ _____ _____    ______ ____
ROOT
ATOM      1  O   UNL     1       3.694   4.505  19.973  0.00  0.00    +0.000 OA
ATOM      2  C   UNL     1       3.555   5.375  19.115  0.00  0.00    +0.000 C 
ATOM      3  N   UNL     1       2.508   6.301  19.136  0.00  0.00    +0.000 N 
ATOM      4  C   UNL     1       2.103   7.219  18.064  0.00  0.00    +0.000 C 
ATOM      5  C   UNL     1       2.272   8.673  18.530  0.00  0.00    +0.000 C 
ATOM      6  C   UNL     1       1.503   8.943  19.837  0.00  0.00    +0.000 C 
ATOM      7  C   UNL     1       1.888   7.879  20.889  0.00  0.00    +0.000 C 
ATOM      8  C   UNL     1       1.731   6.450  20.363  0.00  0.00    +0.000 C 
ENDROOT
BRANCH   2   9
ATOM      9  C   UNL     1       4.596   5.443  18.056  0.00  0.00    +0.000 A 
ATOM     10  C   UNL     1       5.743   6.224  18.238  0.00  0.00    +0.000 A 
ATOM     11  C   UNL     1       6.693   6.293  17.219  0.00  0.00    +0.000 A 
ATOM     12  F   UNL     1       7.780   7.060  17.384  0.00  0.00    +0.000 F 
ATOM     13  C   UNL     1       6.526   5.569  16.035  0.00  0.00    +0.000 A 
ATOM     14  N   UNL     1       7.472   5.620  15.001  0.00  0.00    +0.000 N 
ATOM     15  C   UNL     1       7.334   4.945  13.819  0.00  0.00    +0.000 A 
ATOM     16  O   UNL     1       8.144   5.031  12.907  0.00  0.00    +0.000 OA
ATOM     17  C   UNL     1       6.137   4.071  13.679  0.00  0.00    +0.000 A 
ATOM     18  C   UNL     1       5.211   4.006  14.641  0.00  0.00    +0.000 A 
ATOM     19  C   UNL     1       5.375   4.807  15.848  0.00  0.00    +0.000 A 
ATOM     20  C   UNL     1       4.393   4.811  16.827  0.00  0.00    +0.000 A 
ATOM     21  H   UNL     1       8.290   6.205  15.101  0.00  0.00    +0.000 HD
ENDBRANCH   2   9
BRANCH   6  22
ATOM     22  C   UNL     1      -0.004   9.021  19.541  0.00  0.00    +0.000 C 
BRANCH  22  23
ATOM     23  C   UNL     1      -0.542  10.449  19.491  0.00  0.00    +0.000 C 
BRANCH  23  24
ATOM     24  C   UNL     1      -1.664  10.550  18.492  0.00  0.00    +0.000 A 
ATOM     25  C   UNL     1      -1.618   9.799  17.307  0.00  0.00    +0.000 A 
ATOM     26  C   UNL     1      -2.626   9.928  16.351  0.00  0.00    +0.000 A 
ATOM     27  C   UNL     1      -3.676  10.811  16.582  0.00  0.00    +0.000 A 
ATOM     28  C   UNL     1      -3.738  11.558  17.753  0.00  0.00    +0.000 A 
ATOM     29  C   UNL     1      -2.730  11.431  18.707  0.00  0.00    +0.000 A 
BRANCH  27  30
ATOM     30  O   UNL     1      -4.671  10.983  15.667  0.00  0.00    +0.000 OA
ATOM     31  H   UNL     1      -4.268  11.064  14.788  0.00  0.00    +0.000 HD
ENDBRANCH  27  30
ENDBRANCH  23  24
ENDBRANCH  22  23
ENDBRANCH   6  22
TORSDOF 5
ENDMDL
MODEL 3
REMARK VINA RESULT:      -8.5      0.911      1.162
REMARK  Name = 
REMARK  5 active torsions:
REMARK  status: ('A' for Active; 'I' for Inactive)
REMARK    1  A    between atoms: C_2  and  C_3
REMARK    2  A    between atoms: C_18  and  C_19
REMARK    3  A    between atoms: C_19  and  C_20
REMARK    4  A    between atoms: C_20  and  C_21
REMARK    5  A    between atoms: C_24  and  O_25
REMARK                            x       y       z     vdW  Elec       q    Type
REMARK                         _______ _______ _______ _____ _____    ______ ____
ROOT
ATOM      1  O   UNL     1       2.243   9.072  17.105  0.00  0.00    +0.000 OA
ATOM      2  C   UNL     1       2.222   8.468  18.177  0.00  0.00    +0.000 C 
ATOM      3  N   UNL     1       1.685   9.015  19.345  0.00  0.00    +0.000 N 
ATOM      4  C   UNL     1       1.813   8.502  20.714  0.00  0.00    +0.000 C 
ATOM      5  C   UNL     1       0.427   8.127  21.263  0.00  0.00    +0.000 C 
ATOM      6  C   UNL     1      -0.554   9.311  21.184  0.00  0.00    +0.000 C 
ATOM      7  C   UNL     1      -0.560   9.878  19.746  0.00  0.00    +0.000 C 
ATOM      8  C   UNL     1       0.846  10.206  19.239  0.00  0.00    +0.000 C 
ENDROOT
BRANCH   2   9
ATOM      9  C   UNL     1       2.755   7.081  18.173  0.00  0.00    +0.000 A 
ATOM     10  C   UNL     1       4.107   6.842  17.899  0.00  0.00    +0.000 A 
ATOM     11  C   UNL     1       4.578   5.529  17.875  0.00  0.00    +0.000 A 
ATOM     12  F   UNL     1       5.868   5.298  17.589  0.00  0.00    +0.000 F 
ATOM     13  C   UNL     1       3.725   4.457  18.150  0.00  0.00    +0.000 A 
ATOM     14  N   UNL     1       4.180   3.131  18.137  0.00  0.00    +0.000 N 
ATOM     15  C   UNL     1       3.371   2.053  18.379  0.00  0.00    +0.000 A 
ATOM     16  O   UNL     1       3.770   0.899  18.322  0.00  0.00    +0.000 OA
ATOM     17  C   UNL     1       1.954   2.342  18.731  0.00  0.00    +0.000 A 
ATOM     18  C   UNL     1       1.484   3.593  18.744  0.00  0.00    +0.000 A 
ATOM     19  C   UNL     1       2.376   4.696  18.404  0.00  0.00    +0.000 A 
ATOM     20  C   UNL     1       1.894   5.994  18.341  0.00  0.00    +0.000 A 
ATOM     21  H   UNL     1       5.145   2.936  17.908  0.00  0.00    +0.000 HD
ENDBRANCH   2   9
BRANCH   6  22
ATOM     22  C   UNL     1      -0.204  10.344  22.268  0.00  0.00    +0.000 C 
BRANCH  22  23
ATOM     23  C   UNL     1      -0.485  11.786  21.850  0.00  0.00    +0.000 C 
BRANCH  23  24
ATOM     24  C   UNL     1      -1.918  12.144  22.142  0.00  0.00    +0.000 A 
ATOM     25  C   UNL     1      -2.744  12.631  21.117  0.00  0.00    +0.000 A 
ATOM     26  C   UNL     1      -4.055  13.017  21.392  0.00  0.00    +0.000 A 
ATOM     27  C   UNL     1      -4.538  12.918  22.692  0.00  0.00    +0.000 A 
ATOM     28  C   UNL     1      -3.733  12.433  23.718  0.00  0.00    +0.000 A 
ATOM     29  C   UNL     1      -2.422  12.049  23.445  0.00  0.00    +0.000 A 
BRANCH  27  30
ATOM     30  O   UNL     1      -5.806  13.302  23.009  0.00  0.00    +0.000 OA
ATOM     31  H   UNL     1      -5.832  14.271  23.047  0.00  0.00    +0.000 HD
ENDBRANCH  27  30
ENDBRANCH  23  24
ENDBRANCH  22  23
ENDBRANCH   6  22
TORSDOF 5
ENDMDL
MODEL 4
REMARK VINA RESULT:      -8.5      1.281      1.419
REMARK  Name = 
REMARK  5 active torsions:
REMARK  status: ('A' for Active; 'I' for Inactive)
REMARK    1  A    between atoms: C_2  and  C_3
REMARK    2  A    between atoms: C_18  and  C_19
REMARK    3  A    between atoms: C_19  and  C_20
REMARK    4  A    between atoms: C_20  and  C_21
REMARK    5  A    between atoms: C_24  and  O_25
REMARK                            x       y       z     vdW  Elec       q    Type
REMARK                         _______ _______ _______ _____ _____    ______ ____
ROOT
ATOM      1  O   UNL     1       2.148   9.023  17.129  0.00  0.00    +0.000 OA
ATOM      2  C   UNL     1       2.181   8.423  18.203  0.00  0.00    +0.000 C 
ATOM      3  N   UNL     1       1.689   8.968  19.392  0.00  0.00    +0.000 N 
ATOM      4  C   UNL     1       1.882   8.462  20.756  0.00  0.00    +0.000 C 
ATOM      5  C   UNL     1       0.527   8.073  21.366  0.00  0.00    +0.000 C 
ATOM      6  C   UNL     1      -0.472   9.245  21.325  0.00  0.00    +0.000 C 
ATOM      7  C   UNL     1      -0.547   9.806  19.888  0.00  0.00    +0.000 C 
ATOM      8  C   UNL     1       0.832  10.148  19.318  0.00  0.00    +0.000 C 
ENDROOT
BRANCH   2   9
ATOM      9  C   UNL     1       2.730   7.042  18.181  0.00  0.00    +0.000 A 
ATOM     10  C   UNL     1       4.086   6.823  17.911  0.00  0.00    +0.000 A 
ATOM     11  C   UNL     1       4.573   5.516  17.869  0.00  0.00    +0.000 A 
ATOM     12  F   UNL     1       5.866   5.304  17.587  0.00  0.00    +0.000 F 
ATOM     13  C   UNL     1       3.730   4.431  18.123  0.00  0.00    +0.000 A 
ATOM     14  N   UNL     1       4.201   3.110  18.092  0.00  0.00    +0.000 N 
ATOM     15  C   UNL     1       3.404   2.019  18.313  0.00  0.00    +0.000 A 
ATOM     16  O   UNL     1       3.816   0.871  18.241  0.00  0.00    +0.000 OA
ATOM     17  C   UNL     1       1.981   2.286  18.662  0.00  0.00    +0.000 A 
ATOM     18  C   UNL     1       1.497   3.532  18.692  0.00  0.00    +0.000 A 
ATOM     19  C   UNL     1       2.378   4.650  18.374  0.00  0.00    +0.000 A 
ATOM     20  C   UNL     1       1.881   5.944  18.328  0.00  0.00    +0.000 A 
ATOM     21  H   UNL     1       5.169   2.930  17.866  0.00  0.00    +0.000 HD
ENDBRANCH   2   9
BRANCH   6  22
ATOM     22  C   UNL     1      -0.087  10.286  22.389  0.00  0.00    +0.000 C 
BRANCH  22  23
ATOM     23  C   UNL     1      -1.287  10.883  23.121  0.00  0.00    +0.000 C 
BRANCH  23  24
ATOM     24  C   UNL     1      -1.749  12.138  22.430  0.00  0.00    +0.000 A 
ATOM     25  C   UNL     1      -3.111  12.478  22.428  0.00  0.00    +0.000 A 
ATOM     26  C   UNL     1      -3.554  13.609  21.743  0.00  0.00    +0.000 A 
ATOM     27  C   UNL     1      -2.634  14.397  21.059  0.00  0.00    +0.000 A 
ATOM     28  C   UNL     1      -1.281  14.076  21.055  0.00  0.00    +0.000 A 
ATOM     29  C   UNL     1      -0.838  12.944  21.738  0.00  0.00    +0.000 A 
BRANCH  27  30
ATOM     30  O   UNL     1      -3.025  15.499  20.360  0.00  0.00    +0.000 OA
ATOM     31  H   UNL     1      -3.979  15.437  20.198  0.00  0.00    +0.000 HD
ENDBRANCH  27  30
ENDBRANCH  23  24
ENDBRANCH  22  23
ENDBRANCH   6  22
TORSDOF 5
ENDMDL
MODEL 5
REMARK VINA RESULT:      -8.4      3.166      5.172
REMARK  Name = 
REMARK  5 active torsions:
REMARK  status: ('A' for Active; 'I' for Inactive)
REMARK    1  A    between atoms: C_2  and  C_3
REMARK    2  A    between atoms: C_18  and  C_19
REMARK    3  A    between atoms: C_19  and  C_20
REMARK    4  A    between atoms: C_20  and  C_21
REMARK    5  A    between atoms: C_24  and  O_25
REMARK                            x       y       z     vdW  Elec       q    Type
REMARK                         _______ _______ _______ _____ _____    ______ ____
ROOT
ATOM      1  O   UNL     1       2.910   2.764  17.905  0.00  0.00    +0.000 OA
ATOM      2  C   UNL     1       3.141   3.972  17.860  0.00  0.00    +0.000 C 
ATOM      3  N   UNL     1       2.355   4.920  18.520  0.00  0.00    +0.000 N 
ATOM      4  C   UNL     1       2.383   6.377  18.354  0.00  0.00    +0.000 C 
ATOM      5  C   UNL     1       2.798   7.046  19.674  0.00  0.00    +0.000 C 
ATOM      6  C   UNL     1       1.885   6.619  20.838  0.00  0.00    +0.000 C 
ATOM      7  C   UNL     1       1.808   5.077  20.891  0.00  0.00    +0.000 C 
ATOM      8  C   UNL     1       1.420   4.462  19.544  0.00  0.00    +0.000 C 
ENDROOT
BRANCH   2   9
ATOM      9  C   UNL     1       4.347   4.394  17.100  0.00  0.00    +0.000 A 
ATOM     10  C   UNL     1       5.343   5.158  17.719  0.00  0.00    +0.000 A 
ATOM     11  C   UNL     1       6.452   5.565  16.978  0.00  0.00    +0.000 A 
ATOM     12  F   UNL     1       7.395   6.317  17.564  0.00  0.00    +0.000 F 
ATOM     13  C   UNL     1       6.593   5.195  15.638  0.00  0.00    +0.000 A 
ATOM     14  N   UNL     1       7.703   5.589  14.877  0.00  0.00    +0.000 N 
ATOM     15  C   UNL     1       7.867   5.266  13.557  0.00  0.00    +0.000 A 
ATOM     16  O   UNL     1       8.817   5.651  12.892  0.00  0.00    +0.000 OA
ATOM     17  C   UNL     1       6.824   4.399  12.943  0.00  0.00    +0.000 A 
ATOM     18  C   UNL     1       5.748   4.012  13.636  0.00  0.00    +0.000 A 
ATOM     19  C   UNL     1       5.591   4.451  15.018  0.00  0.00    +0.000 A 
ATOM     20  C   UNL     1       4.450   4.122  15.734  0.00  0.00    +0.000 A 
ATOM     21  H   UNL     1       8.416   6.169  15.297  0.00  0.00    +0.000 HD
ENDBRANCH   2   9
BRANCH   6  22
ATOM     22  C   UNL     1       0.520   7.314  20.704  0.00  0.00    +0.000 C 
BRANCH  22  23
ATOM     23  C   UNL     1       0.447   8.658  21.426  0.00  0.00    +0.000 C 
BRANCH  23  24
ATOM     24  C   UNL     1      -0.041   9.730  20.487  0.00  0.00    +0.000 A 
ATOM     25  C   UNL     1      -0.805  10.800  20.977  0.00  0.00    +0.000 A 
ATOM     26  C   UNL     1      -1.306  11.766  20.105  0.00  0.00    +0.000 A 
ATOM     27  C   UNL     1      -1.044  11.658  18.744  0.00  0.00    +0.000 A 
ATOM     28  C   UNL     1      -0.285  10.606  18.242  0.00  0.00    +0.000 A 
ATOM     29  C   UNL     1       0.215   9.639  19.113  0.00  0.00    +0.000 A 
BRANCH  27  30
ATOM     30  O   UNL     1      -1.531  12.568  17.854  0.00  0.00    +0.000 OA
ATOM     31  H   UNL     1      -0.980  12.542  17.056  0.00  0.00    +0.000 HD
ENDBRANCH  27  30
ENDBRANCH  23  24
ENDBRANCH  22  23
ENDBRANCH   6  22
TORSDOF 5
ENDMDL
MODEL 6
REMARK VINA RESULT:      -8.4      1.244      1.695
REMARK  Name = 
REMARK  5 active torsions:
REMARK  status: ('A' for Active; 'I' for Inactive)
REMARK    1  A    between atoms: C_2  and  C_3
REMARK    2  A    between atoms: C_18  and  C_19
REMARK    3  A    between atoms: C_19  and  C_20
REMARK    4  A    between atoms: C_20  and  C_21
REMARK    5  A    between atoms: C_24  and  O_25
REMARK                            x       y       z     vdW  Elec       q    Type
REMARK                         _______ _______ _______ _____ _____    ______ ____
ROOT
ATOM      1  O   UNL     1       2.146   9.078  17.165  0.00  0.00    +0.000 OA
ATOM      2  C   UNL     1       2.159   8.467  18.234  0.00  0.00    +0.000 C 
ATOM      3  N   UNL     1       1.645   9.000  19.419  0.00  0.00    +0.000 N 
ATOM      4  C   UNL     1       1.813   8.480  20.781  0.00  0.00    +0.000 C 
ATOM      5  C   UNL     1       0.446   8.084  21.361  0.00  0.00    +0.000 C 
ATOM      6  C   UNL     1      -0.551   9.257  21.314  0.00  0.00    +0.000 C 
ATOM      7  C   UNL     1      -0.600   9.832  19.881  0.00  0.00    +0.000 C 
ATOM      8  C   UNL     1       0.789  10.181  19.341  0.00  0.00    +0.000 C 
ENDROOT
BRANCH   2   9
ATOM      9  C   UNL     1       2.709   7.086  18.208  0.00  0.00    +0.000 A 
ATOM     10  C   UNL     1       4.065   6.868  17.939  0.00  0.00    +0.000 A 
ATOM     11  C   UNL     1       4.553   5.562  17.894  0.00  0.00    +0.000 A 
ATOM     12  F   UNL     1       5.847   5.352  17.613  0.00  0.00    +0.000 F 
ATOM     13  C   UNL     1       3.710   4.475  18.143  0.00  0.00    +0.000 A 
ATOM     14  N   UNL     1       4.182   3.155  18.108  0.00  0.00    +0.000 N 
ATOM     15  C   UNL     1       3.384   2.063  18.323  0.00  0.00    +0.000 A 
ATOM     16  O   UNL     1       3.797   0.915  18.248  0.00  0.00    +0.000 OA
ATOM     17  C   UNL     1       1.961   2.329  18.671  0.00  0.00    +0.000 A 
ATOM     18  C   UNL     1       1.476   3.574  18.704  0.00  0.00    +0.000 A 
ATOM     19  C   UNL     1       2.357   4.693  18.391  0.00  0.00    +0.000 A 
ATOM     20  C   UNL     1       1.860   5.987  18.349  0.00  0.00    +0.000 A 
ATOM     21  H   UNL     1       5.150   2.976  17.882  0.00  0.00    +0.000 HD
ENDBRANCH   2   9
BRANCH   6  22
ATOM     22  C   UNL     1      -0.187  10.287  22.396  0.00  0.00    +0.000 C 
BRANCH  22  23
ATOM     23  C   UNL     1      -1.343  11.210  22.773  0.00  0.00    +0.000 C 
BRANCH  23  24
ATOM     24  C   UNL     1      -0.915  12.651  22.674  0.00  0.00    +0.000 A 
ATOM     25  C   UNL     1       0.053  13.033  21.732  0.00  0.00    +0.000 A 
ATOM     26  C   UNL     1       0.495  14.354  21.672  0.00  0.00    +0.000 A 
ATOM     27  C   UNL     1      -0.032  15.291  22.555  0.00  0.00    +0.000 A 
ATOM     28  C   UNL     1      -0.995  14.929  23.490  0.00  0.00    +0.000 A 
ATOM     29  C   UNL     1      -1.435  13.608  23.553  0.00  0.00    +0.000 A 
BRANCH  27  30
ATOM     30  O   UNL     1       0.385  16.588  22.544  0.00  0.00    +0.000 OA
ATOM     31  H   UNL     1       1.276  16.620  22.162  0.00  0.00    +0.000 HD
ENDBRANCH  27  30
ENDBRANCH  23  24
ENDBRANCH  22  23
ENDBRANCH   6  22
TORSDOF 5
ENDMDL
MODEL 7
REMARK VINA RESULT:      -8.2      3.564      4.879
REMARK  Name = 
REMARK  5 active torsions:
REMARK  status: ('A' for Active; 'I' for Inactive)
REMARK    1  A    between atoms: C_2  and  C_3
REMARK    2  A    between atoms: C_18  and  C_19
REMARK    3  A    between atoms: C_19  and  C_20
REMARK    4  A    between atoms: C_20  and  C_21
REMARK    5  A    between atoms: C_24  and  O_25
REMARK                            x       y       z     vdW  Elec       q    Type
REMARK                         _______ _______ _______ _____ _____    ______ ____
ROOT
ATOM      1  O   UNL     1       3.633   5.094  20.036  0.00  0.00    +0.000 OA
ATOM      2  C   UNL     1       3.513   5.871  19.089  0.00  0.00    +0.000 C 
ATOM      3  N   UNL     1       2.481   6.808  19.003  0.00  0.00    +0.000 N 
ATOM      4  C   UNL     1       2.097   7.612  17.837  0.00  0.00    +0.000 C 
ATOM      5  C   UNL     1       2.283   9.105  18.147  0.00  0.00    +0.000 C 
ATOM      6  C   UNL     1       1.509   9.523  19.411  0.00  0.00    +0.000 C 
ATOM      7  C   UNL     1       1.871   8.571  20.573  0.00  0.00    +0.000 C 
ATOM      8  C   UNL     1       1.697   7.097  20.200  0.00  0.00    +0.000 C 
ENDROOT
BRANCH   2   9
ATOM      9  C   UNL     1       4.563   5.811  18.038  0.00  0.00    +0.000 A 
ATOM     10  C   UNL     1       5.739   6.558  18.167  0.00  0.00    +0.000 A 
ATOM     11  C   UNL     1       6.697   6.507  17.155  0.00  0.00    +0.000 A 
ATOM     12  F   UNL     1       7.813   7.241  17.267  0.00  0.00    +0.000 F 
ATOM     13  C   UNL     1       6.509   5.697  16.032  0.00  0.00    +0.000 A 
ATOM     14  N   UNL     1       7.463   5.626  15.007  0.00  0.00    +0.000 N 
ATOM     15  C   UNL     1       7.305   4.862  13.881  0.00  0.00    +0.000 A 
ATOM     16  O   UNL     1       8.124   4.842  12.973  0.00  0.00    +0.000 OA
ATOM     17  C   UNL     1       6.075   4.029  13.802  0.00  0.00    +0.000 A 
ATOM     18  C   UNL     1       5.141   4.078  14.757  0.00  0.00    +0.000 A 
ATOM     19  C   UNL     1       5.329   4.968  15.897  0.00  0.00    +0.000 A 
ATOM     20  C   UNL     1       4.342   5.090  16.863  0.00  0.00    +0.000 A 
ATOM     21  H   UNL     1       8.302   6.184  15.066  0.00  0.00    +0.000 HD
ENDBRANCH   2   9
BRANCH   6  22
ATOM     22  C   UNL     1       0.006   9.590  19.096  0.00  0.00    +0.000 C 
BRANCH  22  23
ATOM     23  C   UNL     1      -0.619  10.953  19.388  0.00  0.00    +0.000 C 
BRANCH  23  24
ATOM     24  C   UNL     1      -1.951  11.076  18.697  0.00  0.00    +0.000 A 
ATOM     25  C   UNL     1      -2.944  11.914  19.229  0.00  0.00    +0.000 A 
ATOM     26  C   UNL     1      -4.199  11.990  18.626  0.00  0.00    +0.000 A 
ATOM     27  C   UNL     1      -4.459  11.227  17.492  0.00  0.00    +0.000 A 
ATOM     28  C   UNL     1      -3.484  10.396  16.951  0.00  0.00    +0.000 A 
ATOM     29  C   UNL     1      -2.230  10.317  17.554  0.00  0.00    +0.000 A 
BRANCH  27  30
ATOM     30  O   UNL     1      -5.677  11.256  16.882  0.00  0.00    +0.000 OA
ATOM     31  H   UNL     1      -5.867  12.171  16.622  0.00  0.00    +0.000 HD
ENDBRANCH  27  30
ENDBRANCH  23  24
ENDBRANCH  22  23
ENDBRANCH   6  22
TORSDOF 5
ENDMDL
MODEL 8
REMARK VINA RESULT:      -8.1      1.004      1.004
REMARK  Name = 
REMARK  5 active torsions:
REMARK  status: ('A' for Active; 'I' for Inactive)
REMARK    1  A    between atoms: C_2  and  C_3
REMARK    2  A    between atoms: C_18  and  C_19
REMARK    3  A    between atoms: C_19  and  C_20
REMARK    4  A    between atoms: C_20  and  C_21
REMARK    5  A    between atoms: C_24  and  O_25
REMARK                            x       y       z     vdW  Elec       q    Type
REMARK                         _______ _______ _______ _____ _____    ______ ____
ROOT
ATOM      1  O   UNL     1       2.146   8.736  17.127  0.00  0.00    +0.000 OA
ATOM      2  C   UNL     1       2.228   8.348  18.292  0.00  0.00    +0.000 C 
ATOM      3  N   UNL     1       1.637   9.027  19.361  0.00  0.00    +0.000 N 
ATOM      4  C   UNL     1       1.858   8.804  20.795  0.00  0.00    +0.000 C 
ATOM      5  C   UNL     1       0.549   8.352  21.461  0.00  0.00    +0.000 C 
ATOM      6  C   UNL     1      -0.593   9.354  21.206  0.00  0.00    +0.000 C 
ATOM      7  C   UNL     1      -0.702   9.633  19.691  0.00  0.00    +0.000 C 
ATOM      8  C   UNL     1       0.635  10.049  19.073  0.00  0.00    +0.000 C 
ENDROOT
BRANCH   2   9
ATOM      9  C   UNL     1       2.954   7.071  18.522  0.00  0.00    +0.000 A 
ATOM     10  C   UNL     1       4.169   6.820  17.875  0.00  0.00    +0.000 A 
ATOM     11  C   UNL     1       4.818   5.603  18.086  0.00  0.00    +0.000 A 
ATOM     12  F   UNL     1       5.969   5.353  17.446  0.00  0.00    +0.000 F 
ATOM     13  C   UNL     1       4.284   4.650  18.957  0.00  0.00    +0.000 A 
ATOM     14  N   UNL     1       4.925   3.423  19.187  0.00  0.00    +0.000 N 
ATOM     15  C   UNL     1       4.423   2.455  20.015  0.00  0.00    +0.000 A 
ATOM     16  O   UNL     1       4.968   1.372  20.175  0.00  0.00    +0.000 OA
ATOM     17  C   UNL     1       3.164   2.777  20.740  0.00  0.00    +0.000 A 
ATOM     18  C   UNL     1       2.523   3.932  20.538  0.00  0.00    +0.000 A 
ATOM     19  C   UNL     1       3.066   4.894  19.586  0.00  0.00    +0.000 A 
ATOM     20  C   UNL     1       2.381   6.067  19.306  0.00  0.00    +0.000 A 
ATOM     21  H   UNL     1       5.785   3.210  18.703  0.00  0.00    +0.000 HD
ENDBRANCH   2   9
BRANCH   6  22
ATOM     22  C   UNL     1      -0.376  10.611  22.065  0.00  0.00    +0.000 C 
BRANCH  22  23
ATOM     23  C   UNL     1      -1.048  11.860  21.498  0.00  0.00    +0.000 C 
BRANCH  23  24
ATOM     24  C   UNL     1      -1.715  12.639  22.600  0.00  0.00    +0.000 A 
ATOM     25  C   UNL     1      -2.986  12.259  23.059  0.00  0.00    +0.000 A 
ATOM     26  C   UNL     1      -3.635  13.009  24.040  0.00  0.00    +0.000 A 
ATOM     27  C   UNL     1      -3.011  14.138  24.560  0.00  0.00    +0.000 A 
ATOM     28  C   UNL     1      -1.750  14.525  24.119  0.00  0.00    +0.000 A 
ATOM     29  C   UNL     1      -1.103  13.778  23.137  0.00  0.00    +0.000 A 
BRANCH  27  30
ATOM     30  O   UNL     1      -3.617  14.910  25.505  0.00  0.00    +0.000 OA
ATOM     31  H   UNL     1      -4.334  14.396  25.908  0.00  0.00    +0.000 HD
ENDBRANCH  27  30
ENDBRANCH  23  24
ENDBRANCH  22  23
ENDBRANCH   6  22
TORSDOF 5
ENDMDL
MODEL 9
REMARK VINA RESULT:      -8.1      3.047      4.672
REMARK  Name = 
REMARK  5 active torsions:
REMARK  status: ('A' for Active; 'I' for Inactive)
REMARK    1  A    between atoms: C_2  and  C_3
REMARK    2  A    between atoms: C_18  and  C_19
REMARK    3  A    between atoms: C_19  and  C_20
REMARK    4  A    between atoms: C_20  and  C_21
REMARK    5  A    between atoms: C_24  and  O_25
REMARK                            x       y       z     vdW  Elec       q    Type
REMARK                         _______ _______ _______ _____ _____    ______ ____
ROOT
ATOM      1  O   UNL     1       3.148   2.852  18.490  0.00  0.00    +0.000 OA
ATOM      2  C   UNL     1       3.271   4.054  18.260  0.00  0.00    +0.000 C 
ATOM      3  N   UNL     1       2.404   5.018  18.781  0.00  0.00    +0.000 N 
ATOM      4  C   UNL     1       2.301   6.431  18.398  0.00  0.00    +0.000 C 
ATOM      5  C   UNL     1       2.655   7.325  19.596  0.00  0.00    +0.000 C 
ATOM      6  C   UNL     1       1.783   7.000  20.823  0.00  0.00    +0.000 C 
ATOM      7  C   UNL     1       1.844   5.483  21.109  0.00  0.00    +0.000 C 
ATOM      8  C   UNL     1       1.513   4.640  19.875  0.00  0.00    +0.000 C 
ENDROOT
BRANCH   2   9
ATOM      9  C   UNL     1       4.434   4.462  17.429  0.00  0.00    +0.000 A 
ATOM     10  C   UNL     1       5.474   5.215  17.987  0.00  0.00    +0.000 A 
ATOM     11  C   UNL     1       6.542   5.608  17.181  0.00  0.00    +0.000 A 
ATOM     12  F   UNL     1       7.527   6.350  17.709  0.00  0.00    +0.000 F 
ATOM     13  C   UNL     1       6.599   5.234  15.836  0.00  0.00    +0.000 A 
ATOM     14  N   UNL     1       7.668   5.614  15.010  0.00  0.00    +0.000 N 
ATOM     15  C   UNL     1       7.749   5.287  13.683  0.00  0.00    +0.000 A 
ATOM     16  O   UNL     1       8.663   5.661  12.963  0.00  0.00    +0.000 OA
ATOM     17  C   UNL     1       6.661   4.432  13.134  0.00  0.00    +0.000 A 
ATOM     18  C   UNL     1       5.624   4.058  13.890  0.00  0.00    +0.000 A 
ATOM     19  C   UNL     1       5.554   4.501  15.278  0.00  0.00    +0.000 A 
ATOM     20  C   UNL     1       4.454   4.187  16.060  0.00  0.00    +0.000 A 
ATOM     21  H   UNL     1       8.410   6.186  15.386  0.00  0.00    +0.000 HD
ENDBRANCH   2   9
BRANCH   6  22
ATOM     22  C   UNL     1       0.362   7.544  20.604  0.00  0.00    +0.000 C 
BRANCH  22  23
ATOM     23  C   UNL     1      -0.238   8.199  21.847  0.00  0.00    +0.000 C 
BRANCH  23  24
ATOM     24  C   UNL     1      -0.373   9.685  21.640  0.00  0.00    +0.000 A 
ATOM     25  C   UNL     1      -0.677  10.521  22.726  0.00  0.00    +0.000 A 
ATOM     26  C   UNL     1      -0.858  11.890  22.532  0.00  0.00    +0.000 A 
ATOM     27  C   UNL     1      -0.736  12.421  21.252  0.00  0.00    +0.000 A 
ATOM     28  C   UNL     1      -0.430  11.606  20.167  0.00  0.00    +0.000 A 
ATOM     29  C   UNL     1      -0.252  10.237  20.359  0.00  0.00    +0.000 A 
BRANCH  27  30
ATOM     30  O   UNL     1      -0.924  13.749  21.014  0.00  0.00    +0.000 OA
ATOM     31  H   UNL     1      -1.728  13.855  20.481  0.00  0.00    +0.000 HD
ENDBRANCH  27  30
ENDBRANCH  23  24
ENDBRANCH  22  23
ENDBRANCH   6  22
TORSDOF 5
ENDMDL
