MODEL 1
REMARK VINA RESULT:      -7.6      0.000      0.000
REMARK  Name = 
REMARK  2 active torsions:
REMARK  status: ('A' for Active; 'I' for Inactive)
REMARK    1  A    between atoms: N_1  and  C_2
REMARK    2  A    between atoms: C_3  and  C_4
REMARK                            x       y       z     vdW  Elec       q    Type
REMARK                         _______ _______ _______ _____ _____    ______ ____
ROOT
ATOM      1  C   UNL     1       6.179  16.023  20.024  0.00  0.00    +0.000 C 
ATOM      2  O   UNL     1       6.291  16.438  21.195  0.00  0.00    +0.000 OA
ATOM      3  N   UNL     1       7.334  15.849  19.284  0.00  0.00    +0.000 N 
ATOM      4  C   UNL     1       7.604  15.396  17.918  0.00  0.00    +0.000 C 
ATOM      5  C   UNL     1       8.103  13.921  17.878  0.00  0.00    +0.000 C 
ATOM      6  C   UNL     1       9.190  13.544  18.959  0.00  0.00    +0.000 C 
ATOM      7  C   UNL     1       8.717  14.226  20.291  0.00  0.00    +0.000 C 
ATOM      8  C   UNL     1       8.525  15.721  20.103  0.00  0.00    +0.000 C 
ATOM      9  C   UNL     1       9.255  11.987  19.174  0.00  0.00    +0.000 C 
ATOM     10  C   UNL     1       9.919  11.235  17.993  0.00  0.00    +0.000 C 
ATOM     11  C   UNL     1      11.370  11.705  17.808  0.00  0.00    +0.000 C 
ATOM     12  C   UNL     1      12.180  11.488  19.106  0.00  0.00    +0.000 C 
ATOM     13  C   UNL     1      11.527  12.271  20.251  0.00  0.00    +0.000 C 
ATOM     14  C   UNL     1      10.106  11.690  20.427  0.00  0.00    +0.000 C 
ATOM     15  C   UNL     1      11.559  13.763  19.844  0.00  0.00    +0.000 C 
ATOM     16  C   UNL     1      10.656  14.000  18.608  0.00  0.00    +0.000 C 
ATOM     17  C   UNL     1      11.304  13.196  17.454  0.00  0.00    +0.000 C 
ENDROOT
BRANCH   1  19
ATOM     18  C   UNL     1       3.786  14.912  20.207  0.00  0.00    +0.000 A 
ATOM     19  C   UNL     1       4.728  15.714  19.669  0.00  0.00    +0.000 A 
ATOM     20  N   UNL     1       4.367  16.519  18.588  0.00  0.00    +0.000 N 
ATOM     21  C   UNL     1       3.163  16.586  17.974  0.00  0.00    +0.000 A 
ATOM     22  O   UNL     1       2.928  17.363  17.066  0.00  0.00    +0.000 OA
ATOM     23  N   UNL     1       2.230  15.734  18.455  0.00  0.00    +0.000 N 
ATOM     24  C   UNL     1       2.415  14.956  19.551  0.00  0.00    +0.000 A 
ATOM     25  O   UNL     1       1.483  14.318  20.051  0.00  0.00    +0.000 OA
ATOM     26  H   UNL     1       5.093  17.155  18.250  0.00  0.00    +0.000 HD
ATOM     27  H   UNL     1       1.308  15.785  18.051  0.00  0.00    +0.000 HD
BRANCH  18  28
ATOM     28  N   UNL     1       3.832  14.071  21.312  0.00  0.00    +0.000 N 
ATOM     29  H   UNL     1       3.157  13.316  21.206  0.00  0.00    +0.000 HD
ATOM     30  H   UNL     1       4.763  13.629  21.339  0.00  0.00    +0.000 HD
ENDBRANCH  18  28
ENDBRANCH   1  19
TORSDOF 2
ENDMDL
MODEL 2
REMARK VINA RESULT:      -7.5     10.634     12.484
REMARK  Name = 
REMARK  2 active torsions:
REMARK  status: ('A' for Active; 'I' for Inactive)
REMARK    1  A    between atoms: N_1  and  C_2
REMARK    2  A    between atoms: C_3  and  C_4
REMARK                            x       y       z     vdW  Elec       q    Type
REMARK                         _______ _______ _______ _____ _____    ______ ____
ROOT
ATOM      1  C   UNL     1       5.679   5.836  15.808  0.00  0.00    +0.000 C 
ATOM      2  O   UNL     1       5.221   6.964  15.534  0.00  0.00    +0.000 OA
ATOM      3  N   UNL     1       5.570   5.393  17.113  0.00  0.00    +0.000 N 
ATOM      4  C   UNL     1       5.975   4.167  17.804  0.00  0.00    +0.000 C 
ATOM      5  C   UNL     1       4.775   3.201  18.037  0.00  0.00    +0.000 C 
ATOM      6  C   UNL     1       3.450   3.882  18.558  0.00  0.00    +0.000 C 
ATOM      7  C   UNL     1       3.302   5.209  17.733  0.00  0.00    +0.000 C 
ATOM      8  C   UNL     1       4.539   6.080  17.869  0.00  0.00    +0.000 C 
ATOM      9  C   UNL     1       2.200   2.966  18.286  0.00  0.00    +0.000 C 
ATOM     10  C   UNL     1       2.136   1.730  19.217  0.00  0.00    +0.000 C 
ATOM     11  C   UNL     1       2.034   2.170  20.685  0.00  0.00    +0.000 C 
ATOM     12  C   UNL     1       0.794   3.067  20.898  0.00  0.00    +0.000 C 
ATOM     13  C   UNL     1       0.898   4.302  19.995  0.00  0.00    +0.000 C 
ATOM     14  C   UNL     1       0.916   3.782  18.539  0.00  0.00    +0.000 C 
ATOM     15  C   UNL     1       2.181   5.055  20.418  0.00  0.00    +0.000 C 
ATOM     16  C   UNL     1       3.433   4.200  20.101  0.00  0.00    +0.000 C 
ATOM     17  C   UNL     1       3.322   2.943  20.999  0.00  0.00    +0.000 C 
ENDROOT
BRANCH   1  19
ATOM     18  C   UNL     1       5.757   4.131  13.789  0.00  0.00    +0.000 A 
ATOM     19  C   UNL     1       6.220   5.129  14.571  0.00  0.00    +0.000 A 
ATOM     20  N   UNL     1       7.417   5.747  14.208  0.00  0.00    +0.000 N 
ATOM     21  C   UNL     1       8.211   5.454  13.153  0.00  0.00    +0.000 A 
ATOM     22  O   UNL     1       9.216   6.089  12.887  0.00  0.00    +0.000 OA
ATOM     23  N   UNL     1       7.799   4.408  12.402  0.00  0.00    +0.000 N 
ATOM     24  C   UNL     1       6.616   3.768  12.588  0.00  0.00    +0.000 A 
ATOM     25  O   UNL     1       6.206   2.930  11.780  0.00  0.00    +0.000 OA
ATOM     26  H   UNL     1       7.700   6.537  14.793  0.00  0.00    +0.000 HD
ATOM     27  H   UNL     1       8.342   4.187  11.583  0.00  0.00    +0.000 HD
BRANCH  18  28
ATOM     28  N   UNL     1       4.581   3.394  13.857  0.00  0.00    +0.000 N 
ATOM     29  H   UNL     1       4.274   3.312  14.825  0.00  0.00    +0.000 HD
ATOM     30  H   UNL     1       3.846   3.919  13.360  0.00  0.00    +0.000 HD
ENDBRANCH  18  28
ENDBRANCH   1  19
TORSDOF 2
ENDMDL
MODEL 3
REMARK VINA RESULT:      -7.5      1.235      1.918
REMARK  Name = 
REMARK  2 active torsions:
REMARK  status: ('A' for Active; 'I' for Inactive)
REMARK    1  A    between atoms: N_1  and  C_2
REMARK    2  A    between atoms: C_3  and  C_4
REMARK                            x       y       z     vdW  Elec       q    Type
REMARK                         _______ _______ _______ _____ _____    ______ ____
ROOT
ATOM      1  C   UNL     1       5.983  16.055  19.443  0.00  0.00    +0.000 C 
ATOM      2  O   UNL     1       6.221  16.905  20.325  0.00  0.00    +0.000 OA
ATOM      3  N   UNL     1       7.021  15.672  18.615  0.00  0.00    +0.000 N 
ATOM      4  C   UNL     1       7.131  14.733  17.496  0.00  0.00    +0.000 C 
ATOM      5  C   UNL     1       7.806  13.394  17.919  0.00  0.00    +0.000 C 
ATOM      6  C   UNL     1       9.088  13.540  18.828  0.00  0.00    +0.000 C 
ATOM      7  C   UNL     1       8.745  14.663  19.869  0.00  0.00    +0.000 C 
ATOM      8  C   UNL     1       8.332  15.949  19.172  0.00  0.00    +0.000 C 
ATOM      9  C   UNL     1       9.389  12.201  19.598  0.00  0.00    +0.000 C 
ATOM     10  C   UNL     1       9.953  11.086  18.683  0.00  0.00    +0.000 C 
ATOM     11  C   UNL     1      11.283  11.529  18.056  0.00  0.00    +0.000 C 
ATOM     12  C   UNL     1      12.307  11.890  19.154  0.00  0.00    +0.000 C 
ATOM     13  C   UNL     1      11.744  13.022  20.023  0.00  0.00    +0.000 C 
ATOM     14  C   UNL     1      10.456  12.474  20.678  0.00  0.00    +0.000 C 
ATOM     15  C   UNL     1      11.517  14.231  19.085  0.00  0.00    +0.000 C 
ATOM     16  C   UNL     1      10.409  13.907  18.052  0.00  0.00    +0.000 C 
ATOM     17  C   UNL     1      10.968  12.753  17.185  0.00  0.00    +0.000 C 
ENDROOT
BRANCH   1  19
ATOM     18  C   UNL     1       3.634  15.185  18.597  0.00  0.00    +0.000 A 
ATOM     19  C   UNL     1       4.547  15.546  19.521  0.00  0.00    +0.000 A 
ATOM     20  N   UNL     1       4.214  15.398  20.868  0.00  0.00    +0.000 N 
ATOM     21  C   UNL     1       3.049  14.945  21.386  0.00  0.00    +0.000 A 
ATOM     22  O   UNL     1       2.870  14.801  22.582  0.00  0.00    +0.000 OA
ATOM     23  N   UNL     1       2.097  14.648  20.473  0.00  0.00    +0.000 N 
ATOM     24  C   UNL     1       2.308  14.666  19.132  0.00  0.00    +0.000 A 
ATOM     25  O   UNL     1       1.464  14.230  18.343  0.00  0.00    +0.000 OA
ATOM     26  H   UNL     1       4.956  15.627  21.534  0.00  0.00    +0.000 HD
ATOM     27  H   UNL     1       1.230  14.267  20.818  0.00  0.00    +0.000 HD
BRANCH  18  28
ATOM     28  N   UNL     1       3.709  15.151  17.209  0.00  0.00    +0.000 N 
ATOM     29  H   UNL     1       4.477  15.736  16.886  0.00  0.00    +0.000 HD
ATOM     30  H   UNL     1       3.935  14.186  16.925  0.00  0.00    +0.000 HD
ENDBRANCH  18  28
ENDBRANCH   1  19
TORSDOF 2
ENDMDL
MODEL 4
REMARK VINA RESULT:      -7.0      1.235      1.244
REMARK  Name = 
REMARK  2 active torsions:
REMARK  status: ('A' for Active; 'I' for Inactive)
REMARK    1  A    between atoms: N_1  and  C_2
REMARK    2  A    between atoms: C_3  and  C_4
REMARK                            x       y       z     vdW  Elec       q    Type
REMARK                         _______ _______ _______ _____ _____    ______ ____
ROOT
ATOM      1  C   UNL     1       6.709  16.330  20.951  0.00  0.00    +0.000 C 
ATOM      2  O   UNL     1       7.143  16.826  22.010  0.00  0.00    +0.000 OA
ATOM      3  N   UNL     1       7.617  16.055  19.945  0.00  0.00    +0.000 N 
ATOM      4  C   UNL     1       7.498  15.490  18.599  0.00  0.00    +0.000 C 
ATOM      5  C   UNL     1       7.941  13.997  18.549  0.00  0.00    +0.000 C 
ATOM      6  C   UNL     1       9.272  13.659  19.325  0.00  0.00    +0.000 C 
ATOM      7  C   UNL     1       9.192  14.457  20.674  0.00  0.00    +0.000 C 
ATOM      8  C   UNL     1       8.984  15.941  20.421  0.00  0.00    +0.000 C 
ATOM      9  C   UNL     1       9.365  12.121  19.642  0.00  0.00    +0.000 C 
ATOM     10  C   UNL     1       9.670  11.258  18.393  0.00  0.00    +0.000 C 
ATOM     11  C   UNL     1      11.024  11.653  17.786  0.00  0.00    +0.000 C 
ATOM     12  C   UNL     1      12.152  11.501  18.831  0.00  0.00    +0.000 C 
ATOM     13  C   UNL     1      11.848  12.393  20.041  0.00  0.00    +0.000 C 
ATOM     14  C   UNL     1      10.518  11.884  20.640  0.00  0.00    +0.000 C 
ATOM     15  C   UNL     1      11.796  13.848  19.519  0.00  0.00    +0.000 C 
ATOM     16  C   UNL     1      10.597  14.029  18.556  0.00  0.00    +0.000 C 
ATOM     17  C   UNL     1      10.892  13.115  17.341  0.00  0.00    +0.000 C 
ENDROOT
BRANCH   1  19
ATOM     18  C   UNL     1       4.439  15.319  21.852  0.00  0.00    +0.000 A 
ATOM     19  C   UNL     1       5.212  16.054  21.026  0.00  0.00    +0.000 A 
ATOM     20  N   UNL     1       4.583  16.808  20.035  0.00  0.00    +0.000 N 
ATOM     21  C   UNL     1       3.258  16.883  19.770  0.00  0.00    +0.000 A 
ATOM     22  O   UNL     1       2.798  17.615  18.911  0.00  0.00    +0.000 OA
ATOM     23  N   UNL     1       2.477  16.095  20.541  0.00  0.00    +0.000 N 
ATOM     24  C   UNL     1       2.941  15.375  21.594  0.00  0.00    +0.000 A 
ATOM     25  O   UNL     1       2.170  14.801  22.369  0.00  0.00    +0.000 OA
ATOM     26  H   UNL     1       5.201  17.397  19.470  0.00  0.00    +0.000 HD
ATOM     27  H   UNL     1       1.481  16.156  20.402  0.00  0.00    +0.000 HD
BRANCH  18  28
ATOM     28  N   UNL     1       4.770  14.541  22.955  0.00  0.00    +0.000 N 
ATOM     29  H   UNL     1       4.350  13.617  22.871  0.00  0.00    +0.000 HD
ATOM     30  H   UNL     1       5.791  14.401  22.952  0.00  0.00    +0.000 HD
ENDBRANCH  18  28
ENDBRANCH   1  19
TORSDOF 2
ENDMDL
MODEL 5
REMARK VINA RESULT:      -7.0      4.097      6.132
REMARK  Name = 
REMARK  2 active torsions:
REMARK  status: ('A' for Active; 'I' for Inactive)
REMARK    1  A    between atoms: N_1  and  C_2
REMARK    2  A    between atoms: C_3  and  C_4
REMARK                            x       y       z     vdW  Elec       q    Type
REMARK                         _______ _______ _______ _____ _____    ______ ____
ROOT
ATOM      1  C   UNL     1       7.650  14.295  23.373  0.00  0.00    +0.000 C 
ATOM      2  O   UNL     1       7.203  15.447  23.195  0.00  0.00    +0.000 OA
ATOM      3  N   UNL     1       7.753  13.464  22.273  0.00  0.00    +0.000 N 
ATOM      4  C   UNL     1       8.213  12.087  22.083  0.00  0.00    +0.000 C 
ATOM      5  C   UNL     1       9.647  12.027  21.478  0.00  0.00    +0.000 C 
ATOM      6  C   UNL     1       9.918  13.017  20.279  0.00  0.00    +0.000 C 
ATOM      7  C   UNL     1       9.245  14.374  20.690  0.00  0.00    +0.000 C 
ATOM      8  C   UNL     1       7.773  14.181  21.011  0.00  0.00    +0.000 C 
ATOM      9  C   UNL     1      11.461  13.250  20.077  0.00  0.00    +0.000 C 
ATOM     10  C   UNL     1      12.186  12.028  19.458  0.00  0.00    +0.000 C 
ATOM     11  C   UNL     1      11.613  11.715  18.068  0.00  0.00    +0.000 C 
ATOM     12  C   UNL     1      11.740  12.942  17.138  0.00  0.00    +0.000 C 
ATOM     13  C   UNL     1      10.985  14.127  17.752  0.00  0.00    +0.000 C 
ATOM     14  C   UNL     1      11.667  14.430  19.105  0.00  0.00    +0.000 C 
ATOM     15  C   UNL     1       9.503  13.696  17.869  0.00  0.00    +0.000 C 
ATOM     16  C   UNL     1       9.361  12.537  18.887  0.00  0.00    +0.000 C 
ATOM     17  C   UNL     1      10.138  11.345  18.277  0.00  0.00    +0.000 C 
ENDROOT
BRANCH   1  19
ATOM     18  C   UNL     1       8.881  14.736  25.671  0.00  0.00    +0.000 A 
ATOM     19  C   UNL     1       8.074  14.069  24.820  0.00  0.00    +0.000 A 
ATOM     20  N   UNL     1       7.390  12.953  25.301  0.00  0.00    +0.000 N 
ATOM     21  C   UNL     1       7.448  12.421  26.544  0.00  0.00    +0.000 A 
ATOM     22  O   UNL     1       6.769  11.469  26.887  0.00  0.00    +0.000 OA
ATOM     23  N   UNL     1       8.309  13.034  27.387  0.00  0.00    +0.000 N 
ATOM     24  C   UNL     1       8.976  14.176  27.082  0.00  0.00    +0.000 A 
ATOM     25  O   UNL     1       9.622  14.790  27.936  0.00  0.00    +0.000 OA
ATOM     26  H   UNL     1       6.744  12.513  24.641  0.00  0.00    +0.000 HD
ATOM     27  H   UNL     1       8.348  12.692  28.333  0.00  0.00    +0.000 HD
BRANCH  18  28
ATOM     28  N   UNL     1       9.618  15.902  25.500  0.00  0.00    +0.000 N 
ATOM     29  H   UNL     1       9.018  16.716  25.621  0.00  0.00    +0.000 HD
ATOM     30  H   UNL     1      10.326  15.945  26.248  0.00  0.00    +0.000 HD
ENDBRANCH  18  28
ENDBRANCH   1  19
TORSDOF 2
ENDMDL
MODEL 6
REMARK VINA RESULT:      -7.0      6.299      8.950
REMARK  Name = 
REMARK  2 active torsions:
REMARK  status: ('A' for Active; 'I' for Inactive)
REMARK    1  A    between atoms: N_1  and  C_2
REMARK    2  A    between atoms: C_3  and  C_4
REMARK                            x       y       z     vdW  Elec       q    Type
REMARK                         _______ _______ _______ _____ _____    ______ ____
ROOT
ATOM      1  C   UNL     1      -1.017  10.924  18.423  0.00  0.00    +0.000 C 
ATOM      2  O   UNL     1      -0.283  10.025  17.966  0.00  0.00    +0.000 OA
ATOM      3  N   UNL     1      -0.536  11.679  19.477  0.00  0.00    +0.000 N 
ATOM      4  C   UNL     1      -1.083  12.787  20.262  0.00  0.00    +0.000 C 
ATOM      5  C   UNL     1      -0.493  14.162  19.827  0.00  0.00    +0.000 C 
ATOM      6  C   UNL     1       1.067  14.185  19.593  0.00  0.00    +0.000 C 
ATOM      7  C   UNL     1       1.401  12.857  18.827  0.00  0.00    +0.000 C 
ATOM      8  C   UNL     1       0.910  11.642  19.597  0.00  0.00    +0.000 C 
ATOM      9  C   UNL     1       1.486  15.412  18.701  0.00  0.00    +0.000 C 
ATOM     10  C   UNL     1       1.404  16.766  19.449  0.00  0.00    +0.000 C 
ATOM     11  C   UNL     1       2.353  16.769  20.656  0.00  0.00    +0.000 C 
ATOM     12  C   UNL     1       3.805  16.492  20.206  0.00  0.00    +0.000 C 
ATOM     13  C   UNL     1       3.869  15.131  19.502  0.00  0.00    +0.000 C 
ATOM     14  C   UNL     1       2.954  15.233  18.262  0.00  0.00    +0.000 C 
ATOM     15  C   UNL     1       3.420  14.074  20.539  0.00  0.00    +0.000 C 
ATOM     16  C   UNL     1       1.930  14.284  20.907  0.00  0.00    +0.000 C 
ATOM     17  C   UNL     1       1.860  15.666  21.602  0.00  0.00    +0.000 C 
ENDROOT
BRANCH   1  19
ATOM     18  C   UNL     1      -3.532  11.565  17.918  0.00  0.00    +0.000 A 
ATOM     19  C   UNL     1      -2.317  11.048  17.637  0.00  0.00    +0.000 A 
ATOM     20  N   UNL     1      -2.095  10.552  16.352  0.00  0.00    +0.000 N 
ATOM     21  C   UNL     1      -2.972  10.500  15.324  0.00  0.00    +0.000 A 
ATOM     22  O   UNL     1      -2.667  10.094  14.216  0.00  0.00    +0.000 OA
ATOM     23  N   UNL     1      -4.215  10.947  15.611  0.00  0.00    +0.000 N 
ATOM     24  C   UNL     1      -4.551  11.531  16.789  0.00  0.00    +0.000 A 
ATOM     25  O   UNL     1      -5.650  12.071  16.948  0.00  0.00    +0.000 OA
ATOM     26  H   UNL     1      -1.144  10.225  16.165  0.00  0.00    +0.000 HD
ATOM     27  H   UNL     1      -4.884  10.963  14.858  0.00  0.00    +0.000 HD
BRANCH  18  28
ATOM     28  N   UNL     1      -4.013  12.186  19.064  0.00  0.00    +0.000 N 
ATOM     29  H   UNL     1      -4.846  11.705  19.400  0.00  0.00    +0.000 HD
ATOM     30  H   UNL     1      -3.301  12.088  19.803  0.00  0.00    +0.000 HD
ENDBRANCH  18  28
ENDBRANCH   1  19
TORSDOF 2
ENDMDL
MODEL 7
REMARK VINA RESULT:      -6.9      8.354      9.629
REMARK  Name = 
REMARK  2 active torsions:
REMARK  status: ('A' for Active; 'I' for Inactive)
REMARK    1  A    between atoms: N_1  and  C_2
REMARK    2  A    between atoms: C_3  and  C_4
REMARK                            x       y       z     vdW  Elec       q    Type
REMARK                         _______ _______ _______ _____ _____    ______ ____
ROOT
ATOM      1  C   UNL     1       0.328   9.476  20.302  0.00  0.00    +0.000 C 
ATOM      2  O   UNL     1      -0.127   9.397  21.461  0.00  0.00    +0.000 OA
ATOM      3  N   UNL     1       1.504   8.807  20.020  0.00  0.00    +0.000 N 
ATOM      4  C   UNL     1       2.327   8.666  18.817  0.00  0.00    +0.000 C 
ATOM      5  C   UNL     1       2.111   7.291  18.118  0.00  0.00    +0.000 C 
ATOM      6  C   UNL     1       2.074   6.040  19.080  0.00  0.00    +0.000 C 
ATOM      7  C   UNL     1       1.222   6.485  20.321  0.00  0.00    +0.000 C 
ATOM      8  C   UNL     1       1.795   7.739  20.959  0.00  0.00    +0.000 C 
ATOM      9  C   UNL     1       1.371   4.815  18.386  0.00  0.00    +0.000 C 
ATOM     10  C   UNL     1       2.239   4.159  17.284  0.00  0.00    +0.000 C 
ATOM     11  C   UNL     1       3.547   3.621  17.883  0.00  0.00    +0.000 C 
ATOM     12  C   UNL     1       3.252   2.605  19.009  0.00  0.00    +0.000 C 
ATOM     13  C   UNL     1       2.425   3.288  20.106  0.00  0.00    +0.000 C 
ATOM     14  C   UNL     1       1.099   3.728  19.447  0.00  0.00    +0.000 C 
ATOM     15  C   UNL     1       3.285   4.454  20.649  0.00  0.00    +0.000 C 
ATOM     16  C   UNL     1       3.487   5.527  19.550  0.00  0.00    +0.000 C 
ATOM     17  C   UNL     1       4.307   4.835  18.434  0.00  0.00    +0.000 C 
ENDROOT
BRANCH   1  19
ATOM     18  C   UNL     1      -0.920  10.179  18.079  0.00  0.00    +0.000 A 
ATOM     19  C   UNL     1      -0.595  10.272  19.385  0.00  0.00    +0.000 A 
ATOM     20  N   UNL     1      -1.240  11.240  20.155  0.00  0.00    +0.000 N 
ATOM     21  C   UNL     1      -2.163  12.141  19.747  0.00  0.00    +0.000 A 
ATOM     22  O   UNL     1      -2.712  12.916  20.510  0.00  0.00    +0.000 OA
ATOM     23  N   UNL     1      -2.445  12.108  18.425  0.00  0.00    +0.000 N 
ATOM     24  C   UNL     1      -1.957  11.170  17.574  0.00  0.00    +0.000 A 
ATOM     25  O   UNL     1      -2.368  11.080  16.414  0.00  0.00    +0.000 OA
ATOM     26  H   UNL     1      -1.008  11.236  21.152  0.00  0.00    +0.000 HD
ATOM     27  H   UNL     1      -3.159  12.736  18.091  0.00  0.00    +0.000 HD
BRANCH  18  28
ATOM     28  N   UNL     1      -0.505   9.283  17.100  0.00  0.00    +0.000 N 
ATOM     29  H   UNL     1      -1.142   9.313  16.306  0.00  0.00    +0.000 HD
ATOM     30  H   UNL     1       0.414   9.594  16.751  0.00  0.00    +0.000 HD
ENDBRANCH  18  28
ENDBRANCH   1  19
TORSDOF 2
ENDMDL
MODEL 8
REMARK VINA RESULT:      -6.9      8.224     11.013
REMARK  Name = 
REMARK  2 active torsions:
REMARK  status: ('A' for Active; 'I' for Inactive)
REMARK    1  A    between atoms: N_1  and  C_2
REMARK    2  A    between atoms: C_3  and  C_4
REMARK                            x       y       z     vdW  Elec       q    Type
REMARK                         _______ _______ _______ _____ _____    ______ ____
ROOT
ATOM      1  C   UNL     1       3.589   5.463  19.078  0.00  0.00    +0.000 C 
ATOM      2  O   UNL     1       3.514   4.487  19.852  0.00  0.00    +0.000 OA
ATOM      3  N   UNL     1       2.456   6.234  18.896  0.00  0.00    +0.000 N 
ATOM      4  C   UNL     1       2.156   7.421  18.092  0.00  0.00    +0.000 C 
ATOM      5  C   UNL     1       2.140   8.721  18.951  0.00  0.00    +0.000 C 
ATOM      6  C   UNL     1       1.383   8.611  20.331  0.00  0.00    +0.000 C 
ATOM      7  C   UNL     1       1.797   7.222  20.933  0.00  0.00    +0.000 C 
ATOM      8  C   UNL     1       1.487   6.091  19.967  0.00  0.00    +0.000 C 
ATOM      9  C   UNL     1       1.835   9.752  21.315  0.00  0.00    +0.000 C 
ATOM     10  C   UNL     1       1.283  11.147  20.926  0.00  0.00    +0.000 C 
ATOM     11  C   UNL     1      -0.252  11.141  20.952  0.00  0.00    +0.000 C 
ATOM     12  C   UNL     1      -0.770  10.729  22.348  0.00  0.00    +0.000 C 
ATOM     13  C   UNL     1      -0.243   9.332  22.695  0.00  0.00    +0.000 C 
ATOM     14  C   UNL     1       1.299   9.438  22.727  0.00  0.00    +0.000 C 
ATOM     15  C   UNL     1      -0.793   8.369  21.616  0.00  0.00    +0.000 C 
ATOM     16  C   UNL     1      -0.186   8.712  20.233  0.00  0.00    +0.000 C 
ATOM     17  C   UNL     1      -0.703  10.131  19.888  0.00  0.00    +0.000 C 
ENDROOT
BRANCH   1  19
ATOM     18  C   UNL     1       5.497   6.027  17.337  0.00  0.00    +0.000 A 
ATOM     19  C   UNL     1       5.001   5.645  18.532  0.00  0.00    +0.000 A 
ATOM     20  N   UNL     1       5.901   5.402  19.570  0.00  0.00    +0.000 N 
ATOM     21  C   UNL     1       7.251   5.481  19.528  0.00  0.00    +0.000 A 
ATOM     22  O   UNL     1       7.953   5.300  20.508  0.00  0.00    +0.000 OA
ATOM     23  N   UNL     1       7.767   5.791  18.318  0.00  0.00    +0.000 N 
ATOM     24  C   UNL     1       7.012   6.133  17.243  0.00  0.00    +0.000 A 
ATOM     25  O   UNL     1       7.526   6.567  16.209  0.00  0.00    +0.000 OA
ATOM     26  H   UNL     1       5.480   5.173  20.474  0.00  0.00    +0.000 HD
ATOM     27  H   UNL     1       8.766   5.900  18.258  0.00  0.00    +0.000 HD
BRANCH  18  28
ATOM     28  N   UNL     1       4.854   6.402  16.163  0.00  0.00    +0.000 N 
ATOM     29  H   UNL     1       4.080   7.030  16.373  0.00  0.00    +0.000 HD
ATOM     30  H   UNL     1       5.521   6.941  15.591  0.00  0.00    +0.000 HD
ENDBRANCH  18  28
ENDBRANCH   1  19
TORSDOF 2
ENDMDL
MODEL 9
REMARK VINA RESULT:      -6.9      0.935      1.935
REMARK  Name = 
REMARK  2 active torsions:
REMARK  status: ('A' for Active; 'I' for Inactive)
REMARK    1  A    between atoms: N_1  and  C_2
REMARK    2  A    between atoms: C_3  and  C_4
REMARK                            x       y       z     vdW  Elec       q    Type
REMARK                         _______ _______ _______ _____ _____    ______ ____
ROOT
ATOM      1  C   UNL     1       5.893  15.798  20.291  0.00  0.00    +0.000 C 
ATOM      2  O   UNL     1       5.994  16.142  21.486  0.00  0.00    +0.000 OA
ATOM      3  N   UNL     1       7.053  15.700  19.545  0.00  0.00    +0.000 N 
ATOM      4  C   UNL     1       7.335  15.339  18.154  0.00  0.00    +0.000 C 
ATOM      5  C   UNL     1       7.872  13.883  18.023  0.00  0.00    +0.000 C 
ATOM      6  C   UNL     1       8.967  13.467  19.081  0.00  0.00    +0.000 C 
ATOM      7  C   UNL     1       8.477  14.053  20.452  0.00  0.00    +0.000 C 
ATOM      8  C   UNL     1       8.247  15.552  20.357  0.00  0.00    +0.000 C 
ATOM      9  C   UNL     1       9.072  11.902  19.199  0.00  0.00    +0.000 C 
ATOM     10  C   UNL     1       9.756  11.243  17.975  0.00  0.00    +0.000 C 
ATOM     11  C   UNL     1      11.194  11.759  17.823  0.00  0.00    +0.000 C 
ATOM     12  C   UNL     1      12.009  11.483  19.106  0.00  0.00    +0.000 C 
ATOM     13  C   UNL     1      11.335  12.176  20.296  0.00  0.00    +0.000 C 
ATOM     14  C   UNL     1       9.929  11.549  20.432  0.00  0.00    +0.000 C 
ATOM     15  C   UNL     1      11.329  13.691  19.983  0.00  0.00    +0.000 C 
ATOM     16  C   UNL     1      10.421  13.982  18.762  0.00  0.00    +0.000 C 
ATOM     17  C   UNL     1      11.090  13.268  17.562  0.00  0.00    +0.000 C 
ENDROOT
BRANCH   1  19
ATOM     18  C   UNL     1       3.593  15.968  18.997  0.00  0.00    +0.000 A 
ATOM     19  C   UNL     1       4.451  15.475  19.915  0.00  0.00    +0.000 A 
ATOM     20  N   UNL     1       4.033  14.395  20.692  0.00  0.00    +0.000 N 
ATOM     21  C   UNL     1       2.833  13.769  20.660  0.00  0.00    +0.000 A 
ATOM     22  O   UNL     1       2.579  12.794  21.346  0.00  0.00    +0.000 OA
ATOM     23  N   UNL     1       1.938  14.298  19.797  0.00  0.00    +0.000 N 
ATOM     24  C   UNL     1       2.232  15.293  18.922  0.00  0.00    +0.000 A 
ATOM     25  O   UNL     1       1.435  15.632  18.042  0.00  0.00    +0.000 OA
ATOM     26  H   UNL     1       4.734  14.015  21.333  0.00  0.00    +0.000 HD
ATOM     27  H   UNL     1       1.048  13.833  19.714  0.00  0.00    +0.000 HD
BRANCH  18  28
ATOM     28  N   UNL     1       3.754  16.971  18.048  0.00  0.00    +0.000 N 
ATOM     29  H   UNL     1       4.739  17.071  17.809  0.00  0.00    +0.000 HD
ATOM     30  H   UNL     1       3.272  16.675  17.186  0.00  0.00    +0.000 HD
ENDBRANCH  18  28
ENDBRANCH   1  19
TORSDOF 2
ENDMDL
