MODEL 1
REMARK VINA RESULT:      -8.4      0.000      0.000
REMARK  Name = 
REMARK  1 active torsions:
REMARK  status: ('A' for Active; 'I' for Inactive)
REMARK    1  A    between atoms: N_7  and  C_8
REMARK                            x       y       z     vdW  Elec       q    Type
REMARK                         _______ _______ _______ _____ _____    ______ ____
ROOT
ATOM      1  C   UNL     1       1.513   5.483  21.058  0.00  0.00    +0.000 C 
ATOM      2  C   UNL     1       1.822   4.206  20.797  0.00  0.00    +0.000 C 
ATOM      3  C   UNL     1       2.393   3.809  19.445  0.00  0.00    +0.000 C 
ATOM      4  C   UNL     1       1.992   2.356  19.125  0.00  0.00    +0.000 C 
ATOM      5  C   UNL     1       2.624   1.883  17.814  0.00  0.00    +0.000 C 
ATOM      6  C   UNL     1       4.143   2.084  17.806  0.00  0.00    +0.000 C 
ATOM      7  N   UNL     1       4.512   3.470  18.163  0.00  0.00    +0.000 N 
ATOM      8  C   UNL     1       3.954   3.925  19.437  0.00  0.00    +0.000 C 
ATOM      9  O   UNL     1       1.848   4.646  18.389  0.00  0.00    +0.000 OA
ATOM     10  C   UNL     1       1.903   5.985  18.682  0.00  0.00    +0.000 A 
ATOM     11  C   UNL     1       2.132   6.861  17.625  0.00  0.00    +0.000 A 
ATOM     12  C   UNL     1       2.253   8.226  17.893  0.00  0.00    +0.000 A 
ATOM     13  C   UNL     1       2.119   8.699  19.202  0.00  0.00    +0.000 A 
ATOM     14  C   UNL     1       1.858   7.813  20.251  0.00  0.00    +0.000 A 
ATOM     15  C   UNL     1       1.757   6.448  19.996  0.00  0.00    +0.000 A 
ENDROOT
BRANCH   7  16
ATOM     16  C   UNL     1       5.235   4.229  17.256  0.00  0.00    +0.000 A 
ATOM     17  N   UNL     1       5.034   3.952  15.934  0.00  0.00    +0.000 NA
ATOM     18  C   UNL     1       5.697   4.611  14.968  0.00  0.00    +0.000 A 
ATOM     19  N   UNL     1       6.605   5.567  15.112  0.00  0.00    +0.000 NA
ATOM     20  C   UNL     1       6.825   5.868  16.401  0.00  0.00    +0.000 A 
ATOM     21  N   UNL     1       7.713   6.831  16.793  0.00  0.00    +0.000 NA
ATOM     22  C   UNL     1       7.634   6.836  18.100  0.00  0.00    +0.000 A 
ATOM     23  N   UNL     1       6.742   5.899  18.554  0.00  0.00    +0.000 N 
ATOM     24  C   UNL     1       6.183   5.251  17.477  0.00  0.00    +0.000 A 
ATOM     25  H   UNL     1       6.542   5.746  19.531  0.00  0.00    +0.000 HD
ENDBRANCH   7  16
TORSDOF 1
ENDMDL
MODEL 2
REMARK VINA RESULT:      -8.4      0.618      1.828
REMARK  Name = 
REMARK  1 active torsions:
REMARK  status: ('A' for Active; 'I' for Inactive)
REMARK    1  A    between atoms: N_7  and  C_8
REMARK                            x       y       z     vdW  Elec       q    Type
REMARK                         _______ _______ _______ _____ _____    ______ ____
ROOT
ATOM      1  C   UNL     1       1.285   5.659  20.852  0.00  0.00    +0.000 C 
ATOM      2  C   UNL     1       1.681   4.395  20.649  0.00  0.00    +0.000 C 
ATOM      3  C   UNL     1       2.519   4.033  19.433  0.00  0.00    +0.000 C 
ATOM      4  C   UNL     1       2.237   2.572  19.031  0.00  0.00    +0.000 C 
ATOM      5  C   UNL     1       3.129   2.136  17.867  0.00  0.00    +0.000 C 
ATOM      6  C   UNL     1       4.612   2.384  18.160  0.00  0.00    +0.000 C 
ATOM      7  N   UNL     1       4.858   3.776  18.591  0.00  0.00    +0.000 N 
ATOM      8  C   UNL     1       4.047   4.197  19.733  0.00  0.00    +0.000 C 
ATOM      9  O   UNL     1       2.164   4.866  18.296  0.00  0.00    +0.000 OA
ATOM     10  C   UNL     1       2.117   6.202  18.601  0.00  0.00    +0.000 A 
ATOM     11  C   UNL     1       2.521   7.098  17.616  0.00  0.00    +0.000 A 
ATOM     12  C   UNL     1       2.542   8.463  17.911  0.00  0.00    +0.000 A 
ATOM     13  C   UNL     1       2.138   8.915  19.170  0.00  0.00    +0.000 A 
ATOM     14  C   UNL     1       1.705   8.009  20.143  0.00  0.00    +0.000 A 
ATOM     15  C   UNL     1       1.701   6.644  19.864  0.00  0.00    +0.000 A 
ENDROOT
BRANCH   7  16
ATOM     16  C   UNL     1       5.720   4.568  17.848  0.00  0.00    +0.000 A 
ATOM     17  N   UNL     1       6.289   5.624  18.501  0.00  0.00    +0.000 NA
ATOM     18  C   UNL     1       7.124   6.472  17.875  0.00  0.00    +0.000 A 
ATOM     19  N   UNL     1       7.507   6.446  16.606  0.00  0.00    +0.000 NA
ATOM     20  C   UNL     1       6.969   5.417  15.934  0.00  0.00    +0.000 A 
ATOM     21  N   UNL     1       7.228   5.182  14.612  0.00  0.00    +0.000 NA
ATOM     22  C   UNL     1       6.543   4.102  14.332  0.00  0.00    +0.000 A 
ATOM     23  N   UNL     1       5.843   3.653  15.421  0.00  0.00    +0.000 N 
ATOM     24  C   UNL     1       6.100   4.477  16.492  0.00  0.00    +0.000 A 
ATOM     25  H   UNL     1       5.252   2.835  15.406  0.00  0.00    +0.000 HD
ENDBRANCH   7  16
TORSDOF 1
ENDMDL
MODEL 3
REMARK VINA RESULT:      -7.8      2.760      5.064
REMARK  Name = 
REMARK  1 active torsions:
REMARK  status: ('A' for Active; 'I' for Inactive)
REMARK    1  A    between atoms: N_7  and  C_8
REMARK                            x       y       z     vdW  Elec       q    Type
REMARK                         _______ _______ _______ _____ _____    ______ ____
ROOT
ATOM      1  C   UNL     1       4.565   2.478  19.863  0.00  0.00    +0.000 C 
ATOM      2  C   UNL     1       5.283   3.132  18.939  0.00  0.00    +0.000 C 
ATOM      3  C   UNL     1       4.651   4.235  18.107  0.00  0.00    +0.000 C 
ATOM      4  C   UNL     1       5.350   4.308  16.735  0.00  0.00    +0.000 C 
ATOM      5  C   UNL     1       4.807   5.468  15.897  0.00  0.00    +0.000 C 
ATOM      6  C   UNL     1       4.871   6.798  16.656  0.00  0.00    +0.000 C 
ATOM      7  N   UNL     1       4.240   6.698  17.988  0.00  0.00    +0.000 N 
ATOM      8  C   UNL     1       4.778   5.622  18.821  0.00  0.00    +0.000 C 
ATOM      9  O   UNL     1       3.248   3.954  17.858  0.00  0.00    +0.000 OA
ATOM     10  C   UNL     1       2.560   3.605  18.992  0.00  0.00    +0.000 A 
ATOM     11  C   UNL     1       1.233   4.014  19.087  0.00  0.00    +0.000 A 
ATOM     12  C   UNL     1       0.519   3.728  20.252  0.00  0.00    +0.000 A 
ATOM     13  C   UNL     1       1.127   3.018  21.291  0.00  0.00    +0.000 A 
ATOM     14  C   UNL     1       2.450   2.584  21.173  0.00  0.00    +0.000 A 
ATOM     15  C   UNL     1       3.177   2.884  20.023  0.00  0.00    +0.000 A 
ENDROOT
BRANCH   7  16
ATOM     16  C   UNL     1       3.168   7.523  18.290  0.00  0.00    +0.000 A 
ATOM     17  N   UNL     1       2.831   8.451  17.347  0.00  0.00    +0.000 NA
ATOM     18  C   UNL     1       1.821   9.318  17.541  0.00  0.00    +0.000 A 
ATOM     19  N   UNL     1       1.039   9.428  18.606  0.00  0.00    +0.000 NA
ATOM     20  C   UNL     1       1.340   8.527  19.553  0.00  0.00    +0.000 A 
ATOM     21  N   UNL     1       0.660   8.445  20.736  0.00  0.00    +0.000 NA
ATOM     22  C   UNL     1       1.231   7.453  21.373  0.00  0.00    +0.000 A 
ATOM     23  N   UNL     1       2.261   6.915  20.646  0.00  0.00    +0.000 N 
ATOM     24  C   UNL     1       2.360   7.580  19.446  0.00  0.00    +0.000 A 
ATOM     25  H   UNL     1       2.827   6.143  20.967  0.00  0.00    +0.000 HD
ENDBRANCH   7  16
TORSDOF 1
ENDMDL
MODEL 4
REMARK VINA RESULT:      -6.7      2.888      5.309
REMARK  Name = 
REMARK  1 active torsions:
REMARK  status: ('A' for Active; 'I' for Inactive)
REMARK    1  A    between atoms: N_7  and  C_8
REMARK                            x       y       z     vdW  Elec       q    Type
REMARK                         _______ _______ _______ _____ _____    ______ ____
ROOT
ATOM      1  C   UNL     1       4.247   2.630  17.018  0.00  0.00    +0.000 C 
ATOM      2  C   UNL     1       3.466   2.483  18.098  0.00  0.00    +0.000 C 
ATOM      3  C   UNL     1       3.222   3.651  19.040  0.00  0.00    +0.000 C 
ATOM      4  C   UNL     1       2.962   3.118  20.462  0.00  0.00    +0.000 C 
ATOM      5  C   UNL     1       2.620   4.255  21.426  0.00  0.00    +0.000 C 
ATOM      6  C   UNL     1       1.463   5.116  20.906  0.00  0.00    +0.000 C 
ATOM      7  N   UNL     1       1.707   5.579  19.524  0.00  0.00    +0.000 N 
ATOM      8  C   UNL     1       1.991   4.500  18.577  0.00  0.00    +0.000 C 
ATOM      9  O   UNL     1       4.393   4.509  19.112  0.00  0.00    +0.000 OA
ATOM     10  C   UNL     1       4.892   4.842  17.879  0.00  0.00    +0.000 A 
ATOM     11  C   UNL     1       5.443   6.112  17.733  0.00  0.00    +0.000 A 
ATOM     12  C   UNL     1       5.908   6.507  16.477  0.00  0.00    +0.000 A 
ATOM     13  C   UNL     1       5.841   5.626  15.395  0.00  0.00    +0.000 A 
ATOM     14  C   UNL     1       5.314   4.341  15.559  0.00  0.00    +0.000 A 
ATOM     15  C   UNL     1       4.829   3.946  16.803  0.00  0.00    +0.000 A 
ENDROOT
BRANCH   7  16
ATOM     16  C   UNL     1       1.748   6.940  19.267  0.00  0.00    +0.000 A 
ATOM     17  N   UNL     1       2.289   7.317  18.071  0.00  0.00    +0.000 NA
ATOM     18  C   UNL     1       2.399   8.611  17.724  0.00  0.00    +0.000 A 
ATOM     19  N   UNL     1       2.043   9.675  18.431  0.00  0.00    +0.000 NA
ATOM     20  C   UNL     1       1.504   9.341  19.613  0.00  0.00    +0.000 A 
ATOM     21  N   UNL     1       1.053  10.272  20.509  0.00  0.00    +0.000 NA
ATOM     22  C   UNL     1       0.595   9.566  21.511  0.00  0.00    +0.000 A 
ATOM     23  N   UNL     1       0.755   8.222  21.295  0.00  0.00    +0.000 N 
ATOM     24  C   UNL     1       1.335   8.030  20.063  0.00  0.00    +0.000 A 
ATOM     25  H   UNL     1       0.467   7.513  21.953  0.00  0.00    +0.000 HD
ENDBRANCH   7  16
TORSDOF 1
ENDMDL
MODEL 5
REMARK VINA RESULT:      -6.6      2.632      5.098
REMARK  Name = 
REMARK  1 active torsions:
REMARK  status: ('A' for Active; 'I' for Inactive)
REMARK    1  A    between atoms: N_7  and  C_8
REMARK                            x       y       z     vdW  Elec       q    Type
REMARK                         _______ _______ _______ _____ _____    ______ ____
ROOT
ATOM      1  C   UNL     1       4.288   2.685  16.830  0.00  0.00    +0.000 C 
ATOM      2  C   UNL     1       3.520   2.243  17.836  0.00  0.00    +0.000 C 
ATOM      3  C   UNL     1       3.236   3.128  19.039  0.00  0.00    +0.000 C 
ATOM      4  C   UNL     1       3.006   2.245  20.282  0.00  0.00    +0.000 C 
ATOM      5  C   UNL     1       2.624   3.091  21.498  0.00  0.00    +0.000 C 
ATOM      6  C   UNL     1       1.432   4.009  21.205  0.00  0.00    +0.000 C 
ATOM      7  N   UNL     1       1.649   4.811  19.983  0.00  0.00    +0.000 N 
ATOM      8  C   UNL     1       1.970   4.016  18.798  0.00  0.00    +0.000 C 
ATOM      9  O   UNL     1       4.373   3.985  19.328  0.00  0.00    +0.000 OA
ATOM     10  C   UNL     1       4.851   4.636  18.220  0.00  0.00    +0.000 A 
ATOM     11  C   UNL     1       5.351   5.922  18.399  0.00  0.00    +0.000 A 
ATOM     12  C   UNL     1       5.793   6.637  17.284  0.00  0.00    +0.000 A 
ATOM     13  C   UNL     1       5.755   6.052  16.015  0.00  0.00    +0.000 A 
ATOM     14  C   UNL     1       5.279   4.748  15.850  0.00  0.00    +0.000 A 
ATOM     15  C   UNL     1       4.817   4.035  16.954  0.00  0.00    +0.000 A 
ENDROOT
BRANCH   7  16
ATOM     16  C   UNL     1       1.636   6.195  20.075  0.00  0.00    +0.000 A 
ATOM     17  N   UNL     1       1.249   6.721  21.274  0.00  0.00    +0.000 NA
ATOM     18  C   UNL     1       1.179   8.049  21.470  0.00  0.00    +0.000 A 
ATOM     19  N   UNL     1       1.439   9.014  20.599  0.00  0.00    +0.000 NA
ATOM     20  C   UNL     1       1.826   8.532  19.408  0.00  0.00    +0.000 A 
ATOM     21  N   UNL     1       2.156   9.341  18.356  0.00  0.00    +0.000 NA
ATOM     22  C   UNL     1       2.487   8.512  17.398  0.00  0.00    +0.000 A 
ATOM     23  N   UNL     1       2.360   7.207  17.796  0.00  0.00    +0.000 N 
ATOM     24  C   UNL     1       1.941   7.174  19.105  0.00  0.00    +0.000 A 
ATOM     25  H   UNL     1       2.565   6.419  17.198  0.00  0.00    +0.000 HD
ENDBRANCH   7  16
TORSDOF 1
ENDMDL
MODEL 6
REMARK VINA RESULT:      -6.5      7.827     10.750
REMARK  Name = 
REMARK  1 active torsions:
REMARK  status: ('A' for Active; 'I' for Inactive)
REMARK    1  A    between atoms: N_7  and  C_8
REMARK                            x       y       z     vdW  Elec       q    Type
REMARK                         _______ _______ _______ _____ _____    ______ ____
ROOT
ATOM      1  C   UNL     1       1.514  11.287  18.546  0.00  0.00    +0.000 C 
ATOM      2  C   UNL     1       1.091  10.302  19.350  0.00  0.00    +0.000 C 
ATOM      3  C   UNL     1       0.704  10.592  20.791  0.00  0.00    +0.000 C 
ATOM      4  C   UNL     1       0.963   9.341  21.654  0.00  0.00    +0.000 C 
ATOM      5  C   UNL     1       0.500   9.558  23.096  0.00  0.00    +0.000 C 
ATOM      6  C   UNL     1      -0.959  10.022  23.164  0.00  0.00    +0.000 C 
ATOM      7  N   UNL     1      -1.201  11.191  22.294  0.00  0.00    +0.000 N 
ATOM      8  C   UNL     1      -0.807  10.987  20.900  0.00  0.00    +0.000 C 
ATOM      9  O   UNL     1       1.518  11.664  21.338  0.00  0.00    +0.000 OA
ATOM     10  C   UNL     1       1.587  12.760  20.515  0.00  0.00    +0.000 A 
ATOM     11  C   UNL     1       1.649  14.011  21.120  0.00  0.00    +0.000 A 
ATOM     12  C   UNL     1       1.661  15.152  20.314  0.00  0.00    +0.000 A 
ATOM     13  C   UNL     1       1.638  15.028  18.922  0.00  0.00    +0.000 A 
ATOM     14  C   UNL     1       1.607  13.765  18.324  0.00  0.00    +0.000 A 
ATOM     15  C   UNL     1       1.574  12.623  19.120  0.00  0.00    +0.000 A 
ENDROOT
BRANCH   7  16
ATOM     16  C   UNL     1      -1.662  12.369  22.861  0.00  0.00    +0.000 A 
ATOM     17  N   UNL     1      -0.712  13.241  23.310  0.00  0.00    +0.000 NA
ATOM     18  C   UNL     1      -1.044  14.405  23.895  0.00  0.00    +0.000 A 
ATOM     19  N   UNL     1      -2.261  14.875  24.137  0.00  0.00    +0.000 NA
ATOM     20  C   UNL     1      -3.221  14.044  23.705  0.00  0.00    +0.000 A 
ATOM     21  N   UNL     1      -4.553  14.323  23.837  0.00  0.00    +0.000 NA
ATOM     22  C   UNL     1      -5.158  13.297  23.292  0.00  0.00    +0.000 A 
ATOM     23  N   UNL     1      -4.259  12.367  22.836  0.00  0.00    +0.000 N 
ATOM     24  C   UNL     1      -2.982  12.820  23.076  0.00  0.00    +0.000 A 
ATOM     25  H   UNL     1      -4.528  11.504  22.388  0.00  0.00    +0.000 HD
ENDBRANCH   7  16
TORSDOF 1
ENDMDL
MODEL 7
REMARK VINA RESULT:      -6.4      8.897     11.489
REMARK  Name = 
REMARK  1 active torsions:
REMARK  status: ('A' for Active; 'I' for Inactive)
REMARK    1  A    between atoms: N_7  and  C_8
REMARK                            x       y       z     vdW  Elec       q    Type
REMARK                         _______ _______ _______ _____ _____    ______ ____
ROOT
ATOM      1  C   UNL     1      -5.994  12.399  16.585  0.00  0.00    +0.000 C 
ATOM      2  C   UNL     1      -6.710  12.763  17.658  0.00  0.00    +0.000 C 
ATOM      3  C   UNL     1      -6.293  12.322  19.052  0.00  0.00    +0.000 C 
ATOM      4  C   UNL     1      -7.540  12.211  19.950  0.00  0.00    +0.000 C 
ATOM      5  C   UNL     1      -7.157  11.860  21.389  0.00  0.00    +0.000 C 
ATOM      6  C   UNL     1      -6.115  12.831  21.956  0.00  0.00    +0.000 C 
ATOM      7  N   UNL     1      -4.948  12.963  21.059  0.00  0.00    +0.000 N 
ATOM      8  C   UNL     1      -5.292  13.344  19.689  0.00  0.00    +0.000 C 
ATOM      9  O   UNL     1      -5.674  11.008  19.014  0.00  0.00    +0.000 OA
ATOM     10  C   UNL     1      -4.707  10.897  18.048  0.00  0.00    +0.000 A 
ATOM     11  C   UNL     1      -3.606  10.096  18.334  0.00  0.00    +0.000 A 
ATOM     12  C   UNL     1      -2.574  10.005  17.398  0.00  0.00    +0.000 A 
ATOM     13  C   UNL     1      -2.666  10.691  16.183  0.00  0.00    +0.000 A 
ATOM     14  C   UNL     1      -3.791  11.468  15.893  0.00  0.00    +0.000 A 
ATOM     15  C   UNL     1      -4.816  11.581  16.830  0.00  0.00    +0.000 A 
ENDROOT
BRANCH   7  16
ATOM     16  C   UNL     1      -3.690  12.630  21.537  0.00  0.00    +0.000 A 
ATOM     17  N   UNL     1      -3.617  12.256  22.848  0.00  0.00    +0.000 NA
ATOM     18  C   UNL     1      -2.446  11.931  23.423  0.00  0.00    +0.000 A 
ATOM     19  N   UNL     1      -1.241  11.929  22.869  0.00  0.00    +0.000 NA
ATOM     20  C   UNL     1      -1.276  12.290  21.578  0.00  0.00    +0.000 A 
ATOM     21  N   UNL     1      -0.155  12.352  20.797  0.00  0.00    +0.000 NA
ATOM     22  C   UNL     1      -0.594  12.721  19.621  0.00  0.00    +0.000 A 
ATOM     23  N   UNL     1      -1.951  12.916  19.629  0.00  0.00    +0.000 N 
ATOM     24  C   UNL     1      -2.438  12.635  20.885  0.00  0.00    +0.000 A 
ATOM     25  H   UNL     1      -2.478  13.206  18.819  0.00  0.00    +0.000 HD
ENDBRANCH   7  16
TORSDOF 1
ENDMDL
MODEL 8
REMARK VINA RESULT:      -6.4     10.310     13.053
REMARK  Name = 
REMARK  1 active torsions:
REMARK  status: ('A' for Active; 'I' for Inactive)
REMARK    1  A    between atoms: N_7  and  C_8
REMARK                            x       y       z     vdW  Elec       q    Type
REMARK                         _______ _______ _______ _____ _____    ______ ____
ROOT
ATOM      1  C   UNL     1      -2.946  14.024  24.206  0.00  0.00    +0.000 C 
ATOM      2  C   UNL     1      -4.171  14.566  24.162  0.00  0.00    +0.000 C 
ATOM      3  C   UNL     1      -5.036  14.425  22.920  0.00  0.00    +0.000 C 
ATOM      4  C   UNL     1      -5.977  15.641  22.809  0.00  0.00    +0.000 C 
ATOM      5  C   UNL     1      -6.932  15.494  21.622  0.00  0.00    +0.000 C 
ATOM      6  C   UNL     1      -7.696  14.167  21.664  0.00  0.00    +0.000 C 
ATOM      7  N   UNL     1      -6.783  13.016  21.820  0.00  0.00    +0.000 N 
ATOM      8  C   UNL     1      -5.893  13.116  22.978  0.00  0.00    +0.000 C 
ATOM      9  O   UNL     1      -4.216  14.407  21.721  0.00  0.00    +0.000 OA
ATOM     10  C   UNL     1      -3.160  13.536  21.804  0.00  0.00    +0.000 A 
ATOM     11  C   UNL     1      -2.779  12.879  20.638  0.00  0.00    +0.000 A 
ATOM     12  C   UNL     1      -1.745  11.942  20.697  0.00  0.00    +0.000 A 
ATOM     13  C   UNL     1      -1.092  11.693  21.907  0.00  0.00    +0.000 A 
ATOM     14  C   UNL     1      -1.462  12.381  23.067  0.00  0.00    +0.000 A 
ATOM     15  C   UNL     1      -2.506  13.303  23.021  0.00  0.00    +0.000 A 
ENDROOT
BRANCH   7  16
ATOM     16  C   UNL     1      -6.769  12.030  20.847  0.00  0.00    +0.000 A 
ATOM     17  N   UNL     1      -7.319  10.828  21.190  0.00  0.00    +0.000 NA
ATOM     18  C   UNL     1      -7.343   9.793  20.332  0.00  0.00    +0.000 A 
ATOM     19  N   UNL     1      -6.861   9.750  19.098  0.00  0.00    +0.000 NA
ATOM     20  C   UNL     1      -6.315  10.917  18.725  0.00  0.00    +0.000 A 
ATOM     21  N   UNL     1      -5.762  11.113  17.489  0.00  0.00    +0.000 NA
ATOM     22  C   UNL     1      -5.358  12.358  17.505  0.00  0.00    +0.000 A 
ATOM     23  N   UNL     1      -5.616  12.955  18.712  0.00  0.00    +0.000 N 
ATOM     24  C   UNL     1      -6.249  12.053  19.534  0.00  0.00    +0.000 A 
ATOM     25  H   UNL     1      -5.376  13.913  18.923  0.00  0.00    +0.000 HD
ENDBRANCH   7  16
TORSDOF 1
ENDMDL
MODEL 9
REMARK VINA RESULT:      -6.4     10.324     13.091
REMARK  Name = 
REMARK  1 active torsions:
REMARK  status: ('A' for Active; 'I' for Inactive)
REMARK    1  A    between atoms: N_7  and  C_8
REMARK                            x       y       z     vdW  Elec       q    Type
REMARK                         _______ _______ _______ _____ _____    ______ ____
ROOT
ATOM      1  C   UNL     1      -2.807  13.963  24.239  0.00  0.00    +0.000 C 
ATOM      2  C   UNL     1      -4.028  14.511  24.172  0.00  0.00    +0.000 C 
ATOM      3  C   UNL     1      -4.838  14.442  22.887  0.00  0.00    +0.000 C 
ATOM      4  C   UNL     1      -5.771  15.666  22.802  0.00  0.00    +0.000 C 
ATOM      5  C   UNL     1      -6.673  15.589  21.568  0.00  0.00    +0.000 C 
ATOM      6  C   UNL     1      -7.441  14.264  21.503  0.00  0.00    +0.000 C 
ATOM      7  N   UNL     1      -6.537  13.103  21.635  0.00  0.00    +0.000 N 
ATOM      8  C   UNL     1      -5.698  13.136  22.834  0.00  0.00    +0.000 C 
ATOM      9  O   UNL     1      -3.966  14.488  21.725  0.00  0.00    +0.000 OA
ATOM     10  C   UNL     1      -2.916  13.610  21.806  0.00  0.00    +0.000 A 
ATOM     11  C   UNL     1      -2.484  13.017  20.624  0.00  0.00    +0.000 A 
ATOM     12  C   UNL     1      -1.456  12.074  20.676  0.00  0.00    +0.000 A 
ATOM     13  C   UNL     1      -0.857  11.756  21.898  0.00  0.00    +0.000 A 
ATOM     14  C   UNL     1      -1.276  12.380  23.076  0.00  0.00    +0.000 A 
ATOM     15  C   UNL     1      -2.316  13.307  23.036  0.00  0.00    +0.000 A 
ENDROOT
BRANCH   7  16
ATOM     16  C   UNL     1      -6.481  12.172  20.609  0.00  0.00    +0.000 A 
ATOM     17  N   UNL     1      -5.897  12.583  19.446  0.00  0.00    +0.000 NA
ATOM     18  C   UNL     1      -5.807  11.772  18.378  0.00  0.00    +0.000 A 
ATOM     19  N   UNL     1      -6.246  10.526  18.265  0.00  0.00    +0.000 NA
ATOM     20  C   UNL     1      -6.824  10.087  19.393  0.00  0.00    +0.000 A 
ATOM     21  N   UNL     1      -7.343   8.828  19.515  0.00  0.00    +0.000 NA
ATOM     22  C   UNL     1      -7.795   8.778  20.743  0.00  0.00    +0.000 A 
ATOM     23  N   UNL     1      -7.599   9.965  21.399  0.00  0.00    +0.000 N 
ATOM     24  C   UNL     1      -6.959  10.845  20.558  0.00  0.00    +0.000 A 
ATOM     25  H   UNL     1      -7.882  10.128  22.355  0.00  0.00    +0.000 HD
ENDBRANCH   7  16
TORSDOF 1
ENDMDL
