MODEL 1
REMARK VINA RESULT:      -9.2      0.000      0.000
REMARK  Name = 
REMARK  8 active torsions:
REMARK  status: ('A' for Active; 'I' for Inactive)
REMARK    1  A    between atoms: C_1  and  C_2
REMARK    2  A    between atoms: C_2  and  C_3
REMARK    3  A    between atoms: C_2  and  C_4
REMARK    4  A    between atoms: C_2  and  C_5
REMARK    5  A    between atoms: C_8  and  C_9
REMARK    6  A    between atoms: C_12  and  S_13
REMARK    7  A    between atoms: S_13  and  C_14
REMARK    8  A    between atoms: C_14  and  N_15
REMARK                            x       y       z     vdW  Elec       q    Type
REMARK                         _______ _______ _______ _____ _____    ______ ____
ROOT
ATOM      1  C   UNL     1       7.986   8.484  18.125  0.00  0.00    +0.000 A 
ATOM      2  N   UNL     1       8.325   7.304  18.606  0.00  0.00    +0.000 NA
ATOM      3  N   UNL     1       7.459   6.388  18.045  0.00  0.00    +0.000 NA
ATOM      4  C   UNL     1       6.661   7.065  17.245  0.00  0.00    +0.000 A 
ATOM      5  O   UNL     1       6.923   8.409  17.261  0.00  0.00    +0.000 OA
ENDROOT
BRANCH   1   9
ATOM      6  C   UNL     1       9.875  12.319  18.741  0.00  0.00    +0.000 A 
ATOM      7  C   UNL     1      10.211  11.191  19.511  0.00  0.00    +0.000 A 
ATOM      8  C   UNL     1       9.583   9.952  19.313  0.00  0.00    +0.000 A 
ATOM      9  C   UNL     1       8.586   9.794  18.345  0.00  0.00    +0.000 A 
ATOM     10  C   UNL     1       8.208  10.920  17.608  0.00  0.00    +0.000 A 
ATOM     11  C   UNL     1       8.834  12.161  17.810  0.00  0.00    +0.000 A 
BRANCH   6  13
ATOM     12  C   UNL     1      10.639  14.499  17.624  0.00  0.00    +0.000 C 
ATOM     13  C   UNL     1      10.594  13.670  18.930  0.00  0.00    +0.000 C 
ATOM     14  C   UNL     1      12.040  13.409  19.393  0.00  0.00    +0.000 C 
ATOM     15  C   UNL     1       9.901  14.568  19.983  0.00  0.00    +0.000 C 
ENDBRANCH   6  13
ENDBRANCH   1   9
BRANCH   4  16
ATOM     16  S   UNL     1       5.411   6.350  16.278  0.00  0.00    +0.000 S 
BRANCH  16  17
ATOM     17  C   UNL     1       4.467   5.576  17.609  0.00  0.00    +0.000 C 
BRANCH  17  18
ATOM     18  N   UNL     1       4.403   4.119  17.547  0.00  0.00    +0.000 N 
ATOM     19  N   UNL     1       3.415   3.647  16.703  0.00  0.00    +0.000 NA
ATOM     20  N   UNL     1       2.394   3.094  17.165  0.00  0.00    +0.000 NA
ATOM     21  C   UNL     1       2.232   3.076  18.553  0.00  0.00    +0.000 A 
ATOM     22  C   UNL     1       0.947   3.087  19.098  0.00  0.00    +0.000 A 
ATOM     23  C   UNL     1       0.771   3.101  20.482  0.00  0.00    +0.000 A 
ATOM     24  C   UNL     1       1.880   3.052  21.330  0.00  0.00    +0.000 A 
ATOM     25  C   UNL     1       3.167   3.054  20.798  0.00  0.00    +0.000 A 
ATOM     26  C   UNL     1       3.322   3.107  19.413  0.00  0.00    +0.000 A 
ATOM     27  C   UNL     1       4.581   3.527  18.799  0.00  0.00    +0.000 A 
ATOM     28  O   UNL     1       5.616   3.587  19.460  0.00  0.00    +0.000 OA
ENDBRANCH  17  18
ENDBRANCH  16  17
ENDBRANCH   4  16
TORSDOF 5
ENDMDL
MODEL 2
REMARK VINA RESULT:      -9.1      1.467      1.844
REMARK  Name = 
REMARK  8 active torsions:
REMARK  status: ('A' for Active; 'I' for Inactive)
REMARK    1  A    between atoms: C_1  and  C_2
REMARK    2  A    between atoms: C_2  and  C_3
REMARK    3  A    between atoms: C_2  and  C_4
REMARK    4  A    between atoms: C_2  and  C_5
REMARK    5  A    between atoms: C_8  and  C_9
REMARK    6  A    between atoms: C_12  and  S_13
REMARK    7  A    between atoms: S_13  and  C_14
REMARK    8  A    between atoms: C_14  and  N_15
REMARK                            x       y       z     vdW  Elec       q    Type
REMARK                         _______ _______ _______ _____ _____    ______ ____
ROOT
ATOM      1  C   UNL     1       7.893   8.031  18.059  0.00  0.00    +0.000 A 
ATOM      2  N   UNL     1       8.214   6.933  18.714  0.00  0.00    +0.000 NA
ATOM      3  N   UNL     1       7.498   5.906  18.132  0.00  0.00    +0.000 NA
ATOM      4  C   UNL     1       6.804   6.441  17.150  0.00  0.00    +0.000 A 
ATOM      5  O   UNL     1       6.987   7.795  17.057  0.00  0.00    +0.000 OA
ENDROOT
BRANCH   1   9
ATOM      6  C   UNL     1       9.447  12.036  18.509  0.00  0.00    +0.000 A 
ATOM      7  C   UNL     1       9.874  10.974  19.328  0.00  0.00    +0.000 A 
ATOM      8  C   UNL     1       9.354   9.679  19.184  0.00  0.00    +0.000 A 
ATOM      9  C   UNL     1       8.379   9.396  18.223  0.00  0.00    +0.000 A 
ATOM     10  C   UNL     1       7.910  10.452  17.436  0.00  0.00    +0.000 A 
ATOM     11  C   UNL     1       8.428  11.749  17.584  0.00  0.00    +0.000 A 
BRANCH   6  13
ATOM     12  C   UNL     1       8.964  14.532  18.851  0.00  0.00    +0.000 C 
ATOM     13  C   UNL     1      10.049  13.449  18.639  0.00  0.00    +0.000 C 
ATOM     14  C   UNL     1      10.828  13.784  17.352  0.00  0.00    +0.000 C 
ATOM     15  C   UNL     1      11.018  13.573  19.839  0.00  0.00    +0.000 C 
ENDBRANCH   6  13
ENDBRANCH   1   9
BRANCH   4  16
ATOM     16  S   UNL     1       5.764   5.546  16.087  0.00  0.00    +0.000 S 
BRANCH  16  17
ATOM     17  C   UNL     1       4.761   4.722  17.344  0.00  0.00    +0.000 C 
BRANCH  17  18
ATOM     18  N   UNL     1       3.393   5.219  17.458  0.00  0.00    +0.000 N 
ATOM     19  N   UNL     1       3.278   6.326  18.279  0.00  0.00    +0.000 NA
ATOM     20  N   UNL     1       2.722   6.236  19.394  0.00  0.00    +0.000 NA
ATOM     21  C   UNL     1       2.334   4.965  19.830  0.00  0.00    +0.000 A 
ATOM     22  C   UNL     1       2.320   4.678  21.195  0.00  0.00    +0.000 A 
ATOM     23  C   UNL     1       1.964   3.406  21.643  0.00  0.00    +0.000 A 
ATOM     24  C   UNL     1       1.569   2.427  20.728  0.00  0.00    +0.000 A 
ATOM     25  C   UNL     1       1.591   2.697  19.362  0.00  0.00    +0.000 A 
ATOM     26  C   UNL     1       2.014   3.955  18.932  0.00  0.00    +0.000 A 
ATOM     27  C   UNL     1       2.460   4.185  17.559  0.00  0.00    +0.000 A 
ATOM     28  O   UNL     1       2.230   3.363  16.674  0.00  0.00    +0.000 OA
ENDBRANCH  17  18
ENDBRANCH  16  17
ENDBRANCH   4  16
TORSDOF 5
ENDMDL
MODEL 3
REMARK VINA RESULT:      -9.1      1.649      2.087
REMARK  Name = 
REMARK  8 active torsions:
REMARK  status: ('A' for Active; 'I' for Inactive)
REMARK    1  A    between atoms: C_1  and  C_2
REMARK    2  A    between atoms: C_2  and  C_3
REMARK    3  A    between atoms: C_2  and  C_4
REMARK    4  A    between atoms: C_2  and  C_5
REMARK    5  A    between atoms: C_8  and  C_9
REMARK    6  A    between atoms: C_12  and  S_13
REMARK    7  A    between atoms: S_13  and  C_14
REMARK    8  A    between atoms: C_14  and  N_15
REMARK                            x       y       z     vdW  Elec       q    Type
REMARK                         _______ _______ _______ _____ _____    ______ ____
ROOT
ATOM      1  C   UNL     1       7.942   8.643  17.869  0.00  0.00    +0.000 A 
ATOM      2  N   UNL     1       7.054   8.488  16.907  0.00  0.00    +0.000 NA
ATOM      3  N   UNL     1       6.728   7.147  16.887  0.00  0.00    +0.000 NA
ATOM      4  C   UNL     1       7.422   6.577  17.849  0.00  0.00    +0.000 A 
ATOM      5  O   UNL     1       8.236   7.463  18.504  0.00  0.00    +0.000 OA
ENDROOT
BRANCH   1   9
ATOM      6  C   UNL     1       9.767  12.279  19.322  0.00  0.00    +0.000 A 
ATOM      7  C   UNL     1       9.062  12.233  18.105  0.00  0.00    +0.000 A 
ATOM      8  C   UNL     1       8.484  11.045  17.634  0.00  0.00    +0.000 A 
ATOM      9  C   UNL     1       8.596   9.852  18.355  0.00  0.00    +0.000 A 
ATOM     10  C   UNL     1       9.337   9.873  19.540  0.00  0.00    +0.000 A 
ATOM     11  C   UNL     1       9.919  11.062  20.009  0.00  0.00    +0.000 A 
BRANCH   6  13
ATOM     12  C   UNL     1       9.796  14.838  19.139  0.00  0.00    +0.000 C 
ATOM     13  C   UNL     1      10.366  13.593  19.860  0.00  0.00    +0.000 C 
ATOM     14  C   UNL     1      11.894  13.568  19.659  0.00  0.00    +0.000 C 
ATOM     15  C   UNL     1      10.078  13.802  21.367  0.00  0.00    +0.000 C 
ENDBRANCH   6  13
ENDBRANCH   1   9
BRANCH   4  16
ATOM     16  S   UNL     1       7.334   4.891  18.251  0.00  0.00    +0.000 S 
BRANCH  16  17
ATOM     17  C   UNL     1       5.716   4.904  19.056  0.00  0.00    +0.000 C 
BRANCH  17  18
ATOM     18  N   UNL     1       4.622   5.397  18.223  0.00  0.00    +0.000 N 
ATOM     19  N   UNL     1       3.858   6.370  18.840  0.00  0.00    +0.000 NA
ATOM     20  N   UNL     1       2.691   6.121  19.213  0.00  0.00    +0.000 NA
ATOM     21  C   UNL     1       2.234   4.805  19.095  0.00  0.00    +0.000 A 
ATOM     22  C   UNL     1       1.294   4.317  20.002  0.00  0.00    +0.000 A 
ATOM     23  C   UNL     1       0.851   2.997  19.915  0.00  0.00    +0.000 A 
ATOM     24  C   UNL     1       1.310   2.172  18.885  0.00  0.00    +0.000 A 
ATOM     25  C   UNL     1       2.258   2.644  17.981  0.00  0.00    +0.000 A 
ATOM     26  C   UNL     1       2.736   3.945  18.126  0.00  0.00    +0.000 A 
ATOM     27  C   UNL     1       3.993   4.372  17.513  0.00  0.00    +0.000 A 
ATOM     28  O   UNL     1       4.531   3.696  16.639  0.00  0.00    +0.000 OA
ENDBRANCH  17  18
ENDBRANCH  16  17
ENDBRANCH   4  16
TORSDOF 5
ENDMDL
MODEL 4
REMARK VINA RESULT:      -9.0      1.458      2.135
REMARK  Name = 
REMARK  8 active torsions:
REMARK  status: ('A' for Active; 'I' for Inactive)
REMARK    1  A    between atoms: C_1  and  C_2
REMARK    2  A    between atoms: C_2  and  C_3
REMARK    3  A    between atoms: C_2  and  C_4
REMARK    4  A    between atoms: C_2  and  C_5
REMARK    5  A    between atoms: C_8  and  C_9
REMARK    6  A    between atoms: C_12  and  S_13
REMARK    7  A    between atoms: S_13  and  C_14
REMARK    8  A    between atoms: C_14  and  N_15
REMARK                            x       y       z     vdW  Elec       q    Type
REMARK                         _______ _______ _______ _____ _____    ______ ____
ROOT
ATOM      1  C   UNL     1       7.962   8.185  18.116  0.00  0.00    +0.000 A 
ATOM      2  N   UNL     1       8.286   7.032  18.667  0.00  0.00    +0.000 NA
ATOM      3  N   UNL     1       7.489   6.075  18.072  0.00  0.00    +0.000 NA
ATOM      4  C   UNL     1       6.746   6.703  17.185  0.00  0.00    +0.000 A 
ATOM      5  O   UNL     1       6.977   8.053  17.172  0.00  0.00    +0.000 OA
ENDROOT
BRANCH   1   9
ATOM      6  C   UNL     1       9.479  12.173  18.788  0.00  0.00    +0.000 A 
ATOM      7  C   UNL     1       8.634  11.870  17.705  0.00  0.00    +0.000 A 
ATOM      8  C   UNL     1       8.157  10.569  17.487  0.00  0.00    +0.000 A 
ATOM      9  C   UNL     1       8.514   9.517  18.336  0.00  0.00    +0.000 A 
ATOM     10  C   UNL     1       9.393   9.795  19.386  0.00  0.00    +0.000 A 
ATOM     11  C   UNL     1       9.874  11.097  19.601  0.00  0.00    +0.000 A 
BRANCH   6  13
ATOM     12  C   UNL     1      11.121  13.657  20.086  0.00  0.00    +0.000 C 
ATOM     13  C   UNL     1       9.970  13.610  19.052  0.00  0.00    +0.000 C 
ATOM     14  C   UNL     1       8.796  14.451  19.591  0.00  0.00    +0.000 C 
ATOM     15  C   UNL     1      10.514  14.295  17.775  0.00  0.00    +0.000 C 
ENDBRANCH   6  13
ENDBRANCH   1   9
BRANCH   4  16
ATOM     16  S   UNL     1       5.596   5.924  16.145  0.00  0.00    +0.000 S 
BRANCH  16  17
ATOM     17  C   UNL     1       4.680   5.017  17.411  0.00  0.00    +0.000 C 
BRANCH  17  18
ATOM     18  N   UNL     1       3.264   5.359  17.505  0.00  0.00    +0.000 N 
ATOM     19  N   UNL     1       3.015   6.449  18.319  0.00  0.00    +0.000 NA
ATOM     20  N   UNL     1       2.457   6.300  19.428  0.00  0.00    +0.000 NA
ATOM     21  C   UNL     1       2.207   4.996  19.864  0.00  0.00    +0.000 A 
ATOM     22  C   UNL     1       2.206   4.713  21.230  0.00  0.00    +0.000 A 
ATOM     23  C   UNL     1       1.988   3.410  21.678  0.00  0.00    +0.000 A 
ATOM     24  C   UNL     1       1.717   2.391  20.763  0.00  0.00    +0.000 A 
ATOM     25  C   UNL     1       1.728   2.658  19.396  0.00  0.00    +0.000 A 
ATOM     26  C   UNL     1       2.013   3.953  18.966  0.00  0.00    +0.000 A 
ATOM     27  C   UNL     1       2.451   4.228  17.598  0.00  0.00    +0.000 A 
ATOM     28  O   UNL     1       2.325   3.383  16.714  0.00  0.00    +0.000 OA
ENDBRANCH  17  18
ENDBRANCH  16  17
ENDBRANCH   4  16
TORSDOF 5
ENDMDL
MODEL 5
REMARK VINA RESULT:      -8.9      5.866      7.617
REMARK  Name = 
REMARK  8 active torsions:
REMARK  status: ('A' for Active; 'I' for Inactive)
REMARK    1  A    between atoms: C_1  and  C_2
REMARK    2  A    between atoms: C_2  and  C_3
REMARK    3  A    between atoms: C_2  and  C_4
REMARK    4  A    between atoms: C_2  and  C_5
REMARK    5  A    between atoms: C_8  and  C_9
REMARK    6  A    between atoms: C_12  and  S_13
REMARK    7  A    between atoms: S_13  and  C_14
REMARK    8  A    between atoms: C_14  and  N_15
REMARK                            x       y       z     vdW  Elec       q    Type
REMARK                         _______ _______ _______ _____ _____    ______ ____
ROOT
ATOM      1  C   UNL     1       1.107   8.463  20.552  0.00  0.00    +0.000 A 
ATOM      2  N   UNL     1       1.443   7.295  21.060  0.00  0.00    +0.000 NA
ATOM      3  N   UNL     1       2.226   6.666  20.113  0.00  0.00    +0.000 NA
ATOM      4  C   UNL     1       2.331   7.498  19.099  0.00  0.00    +0.000 A 
ATOM      5  O   UNL     1       1.626   8.656  19.297  0.00  0.00    +0.000 OA
ENDROOT
BRANCH   1   9
ATOM      6  C   UNL     1      -1.300  11.655  22.189  0.00  0.00    +0.000 A 
ATOM      7  C   UNL     1      -0.800  11.698  20.875  0.00  0.00    +0.000 A 
ATOM      8  C   UNL     1      -0.009  10.663  20.355  0.00  0.00    +0.000 A 
ATOM      9  C   UNL     1       0.325   9.549  21.133  0.00  0.00    +0.000 A 
ATOM     10  C   UNL     1      -0.123   9.519  22.456  0.00  0.00    +0.000 A 
ATOM     11  C   UNL     1      -0.913  10.557  22.977  0.00  0.00    +0.000 A 
BRANCH   6  13
ATOM     12  C   UNL     1      -2.985  13.508  21.631  0.00  0.00    +0.000 C 
ATOM     13  C   UNL     1      -2.205  12.772  22.747  0.00  0.00    +0.000 C 
ATOM     14  C   UNL     1      -1.332  13.800  23.493  0.00  0.00    +0.000 C 
ATOM     15  C   UNL     1      -3.272  12.234  23.730  0.00  0.00    +0.000 C 
ENDBRANCH   6  13
ENDBRANCH   1   9
BRANCH   4  16
ATOM     16  S   UNL     1       3.250   7.178  17.663  0.00  0.00    +0.000 S 
BRANCH  16  17
ATOM     17  C   UNL     1       4.404   5.975  18.359  0.00  0.00    +0.000 C 
BRANCH  17  18
ATOM     18  N   UNL     1       4.203   4.602  17.906  0.00  0.00    +0.000 N 
ATOM     19  N   UNL     1       3.075   4.441  17.123  0.00  0.00    +0.000 NA
ATOM     20  N   UNL     1       2.078   3.828  17.562  0.00  0.00    +0.000 NA
ATOM     21  C   UNL     1       2.097   3.421  18.899  0.00  0.00    +0.000 A 
ATOM     22  C   UNL     1       0.901   3.337  19.612  0.00  0.00    +0.000 A 
ATOM     23  C   UNL     1       0.909   2.961  20.956  0.00  0.00    +0.000 A 
ATOM     24  C   UNL     1       2.110   2.617  21.580  0.00  0.00    +0.000 A 
ATOM     25  C   UNL     1       3.313   2.709  20.882  0.00  0.00    +0.000 A 
ATOM     26  C   UNL     1       3.289   3.150  19.560  0.00  0.00    +0.000 A 
ATOM     27  C   UNL     1       4.490   3.667  18.904  0.00  0.00    +0.000 A 
ATOM     28  O   UNL     1       5.603   3.485  19.391  0.00  0.00    +0.000 OA
ENDBRANCH  17  18
ENDBRANCH  16  17
ENDBRANCH   4  16
TORSDOF 5
ENDMDL
MODEL 6
REMARK VINA RESULT:      -8.6      1.507      2.168
REMARK  Name = 
REMARK  8 active torsions:
REMARK  status: ('A' for Active; 'I' for Inactive)
REMARK    1  A    between atoms: C_1  and  C_2
REMARK    2  A    between atoms: C_2  and  C_3
REMARK    3  A    between atoms: C_2  and  C_4
REMARK    4  A    between atoms: C_2  and  C_5
REMARK    5  A    between atoms: C_8  and  C_9
REMARK    6  A    between atoms: C_12  and  S_13
REMARK    7  A    between atoms: S_13  and  C_14
REMARK    8  A    between atoms: C_14  and  N_15
REMARK                            x       y       z     vdW  Elec       q    Type
REMARK                         _______ _______ _______ _____ _____    ______ ____
ROOT
ATOM      1  C   UNL     1       8.261   8.644  18.256  0.00  0.00    +0.000 A 
ATOM      2  N   UNL     1       8.608   7.644  19.041  0.00  0.00    +0.000 NA
ATOM      3  N   UNL     1       7.934   6.532  18.580  0.00  0.00    +0.000 NA
ATOM      4  C   UNL     1       7.237   6.921  17.534  0.00  0.00    +0.000 A 
ATOM      5  O   UNL     1       7.378   8.260  17.280  0.00  0.00    +0.000 OA
ENDROOT
BRANCH   1   9
ATOM      6  C   UNL     1       9.454  12.796  18.314  0.00  0.00    +0.000 A 
ATOM      7  C   UNL     1       8.397  12.335  17.508  0.00  0.00    +0.000 A 
ATOM      8  C   UNL     1       8.025  10.983  17.485  0.00  0.00    +0.000 A 
ATOM      9  C   UNL     1       8.701  10.035  18.259  0.00  0.00    +0.000 A 
ATOM     10  C   UNL     1       9.786  10.471  19.026  0.00  0.00    +0.000 A 
ATOM     11  C   UNL     1      10.160  11.825  19.045  0.00  0.00    +0.000 A 
BRANCH   6  13
ATOM     12  C   UNL     1      10.425  14.692  19.744  0.00  0.00    +0.000 C 
ATOM     13  C   UNL     1       9.836  14.288  18.371  0.00  0.00    +0.000 C 
ATOM     14  C   UNL     1       8.578  15.139  18.110  0.00  0.00    +0.000 C 
ATOM     15  C   UNL     1      10.905  14.667  17.318  0.00  0.00    +0.000 C 
ENDBRANCH   6  13
ENDBRANCH   1   9
BRANCH   4  16
ATOM     16  S   UNL     1       6.241   5.872  16.576  0.00  0.00    +0.000 S 
BRANCH  16  17
ATOM     17  C   UNL     1       4.711   6.035  17.523  0.00  0.00    +0.000 C 
BRANCH  17  18
ATOM     18  N   UNL     1       4.780   5.526  18.890  0.00  0.00    +0.000 N 
ATOM     19  N   UNL     1       5.567   4.396  19.016  0.00  0.00    +0.000 NA
ATOM     20  N   UNL     1       5.049   3.282  19.244  0.00  0.00    +0.000 NA
ATOM     21  C   UNL     1       3.653   3.199  19.247  0.00  0.00    +0.000 A 
ATOM     22  C   UNL     1       3.032   2.011  18.859  0.00  0.00    +0.000 A 
ATOM     23  C   UNL     1       1.640   1.924  18.828  0.00  0.00    +0.000 A 
ATOM     24  C   UNL     1       0.860   3.009  19.234  0.00  0.00    +0.000 A 
ATOM     25  C   UNL     1       1.469   4.205  19.610  0.00  0.00    +0.000 A 
ATOM     26  C   UNL     1       2.860   4.292  19.572  0.00  0.00    +0.000 A 
ATOM     27  C   UNL     1       3.545   5.584  19.539  0.00  0.00    +0.000 A 
ATOM     28  O   UNL     1       2.948   6.622  19.814  0.00  0.00    +0.000 OA
ENDBRANCH  17  18
ENDBRANCH  16  17
ENDBRANCH   4  16
TORSDOF 5
ENDMDL
MODEL 7
REMARK VINA RESULT:      -8.6      5.540      7.314
REMARK  Name = 
REMARK  8 active torsions:
REMARK  status: ('A' for Active; 'I' for Inactive)
REMARK    1  A    between atoms: C_1  and  C_2
REMARK    2  A    between atoms: C_2  and  C_3
REMARK    3  A    between atoms: C_2  and  C_4
REMARK    4  A    between atoms: C_2  and  C_5
REMARK    5  A    between atoms: C_8  and  C_9
REMARK    6  A    between atoms: C_12  and  S_13
REMARK    7  A    between atoms: S_13  and  C_14
REMARK    8  A    between atoms: C_14  and  N_15
REMARK                            x       y       z     vdW  Elec       q    Type
REMARK                         _______ _______ _______ _____ _____    ______ ____
ROOT
ATOM      1  C   UNL     1       1.420   8.031  20.243  0.00  0.00    +0.000 A 
ATOM      2  N   UNL     1       1.779   6.909  20.835  0.00  0.00    +0.000 NA
ATOM      3  N   UNL     1       2.629   6.260  19.962  0.00  0.00    +0.000 NA
ATOM      4  C   UNL     1       2.748   7.036  18.905  0.00  0.00    +0.000 A 
ATOM      5  O   UNL     1       1.988   8.172  19.003  0.00  0.00    +0.000 OA
ENDROOT
BRANCH   1   9
ATOM      6  C   UNL     1      -1.002  11.282  21.735  0.00  0.00    +0.000 A 
ATOM      7  C   UNL     1      -0.505  10.273  22.581  0.00  0.00    +0.000 A 
ATOM      8  C   UNL     1       0.270   9.214  22.086  0.00  0.00    +0.000 A 
ATOM      9  C   UNL     1       0.570   9.114  20.724  0.00  0.00    +0.000 A 
ATOM     10  C   UNL     1       0.040  10.082  19.865  0.00  0.00    +0.000 A 
ATOM     11  C   UNL     1      -0.739  11.140  20.361  0.00  0.00    +0.000 A 
BRANCH   6  13
ATOM     12  C   UNL     1      -2.799  12.040  23.401  0.00  0.00    +0.000 C 
ATOM     13  C   UNL     1      -1.818  12.469  22.284  0.00  0.00    +0.000 C 
ATOM     14  C   UNL     1      -2.631  13.095  21.134  0.00  0.00    +0.000 C 
ATOM     15  C   UNL     1      -0.921  13.569  22.901  0.00  0.00    +0.000 C 
ENDBRANCH   6  13
ENDBRANCH   1   9
BRANCH   4  16
ATOM     16  S   UNL     1       3.744   6.673  17.532  0.00  0.00    +0.000 S 
BRANCH  16  17
ATOM     17  C   UNL     1       4.823   5.453  18.314  0.00  0.00    +0.000 C 
BRANCH  17  18
ATOM     18  N   UNL     1       4.547   4.067  17.945  0.00  0.00    +0.000 N 
ATOM     19  N   UNL     1       3.612   3.943  16.934  0.00  0.00    +0.000 NA
ATOM     20  N   UNL     1       2.469   3.498  17.176  0.00  0.00    +0.000 NA
ATOM     21  C   UNL     1       2.134   3.247  18.510  0.00  0.00    +0.000 A 
ATOM     22  C   UNL     1       0.808   3.378  18.924  0.00  0.00    +0.000 A 
ATOM     23  C   UNL     1       0.465   3.159  20.259  0.00  0.00    +0.000 A 
ATOM     24  C   UNL     1       1.438   2.759  21.177  0.00  0.00    +0.000 A 
ATOM     25  C   UNL     1       2.767   2.638  20.777  0.00  0.00    +0.000 A 
ATOM     26  C   UNL     1       3.100   2.924  19.454  0.00  0.00    +0.000 A 
ATOM     27  C   UNL     1       4.475   3.227  19.059  0.00  0.00    +0.000 A 
ATOM     28  O   UNL     1       5.417   2.981  19.810  0.00  0.00    +0.000 OA
ENDBRANCH  17  18
ENDBRANCH  16  17
ENDBRANCH   4  16
TORSDOF 5
ENDMDL
MODEL 8
REMARK VINA RESULT:      -8.6      1.780      2.350
REMARK  Name = 
REMARK  8 active torsions:
REMARK  status: ('A' for Active; 'I' for Inactive)
REMARK    1  A    between atoms: C_1  and  C_2
REMARK    2  A    between atoms: C_2  and  C_3
REMARK    3  A    between atoms: C_2  and  C_4
REMARK    4  A    between atoms: C_2  and  C_5
REMARK    5  A    between atoms: C_8  and  C_9
REMARK    6  A    between atoms: C_12  and  S_13
REMARK    7  A    between atoms: S_13  and  C_14
REMARK    8  A    between atoms: C_14  and  N_15
REMARK                            x       y       z     vdW  Elec       q    Type
REMARK                         _______ _______ _______ _____ _____    ______ ____
ROOT
ATOM      1  C   UNL     1       7.847   8.612  17.811  0.00  0.00    +0.000 A 
ATOM      2  N   UNL     1       6.816   8.481  17.000  0.00  0.00    +0.000 NA
ATOM      3  N   UNL     1       6.587   7.126  16.872  0.00  0.00    +0.000 NA
ATOM      4  C   UNL     1       7.479   6.521  17.628  0.00  0.00    +0.000 A 
ATOM      5  O   UNL     1       8.331   7.402  18.240  0.00  0.00    +0.000 OA
ENDROOT
BRANCH   1   9
ATOM      6  C   UNL     1       9.639  12.235  19.333  0.00  0.00    +0.000 A 
ATOM      7  C   UNL     1       9.017  12.184  18.072  0.00  0.00    +0.000 A 
ATOM      8  C   UNL     1       8.449  11.000  17.580  0.00  0.00    +0.000 A 
ATOM      9  C   UNL     1       8.490   9.816  18.323  0.00  0.00    +0.000 A 
ATOM     10  C   UNL     1       9.150   9.841  19.555  0.00  0.00    +0.000 A 
ATOM     11  C   UNL     1       9.722  11.026  20.046  0.00  0.00    +0.000 A 
BRANCH   6  13
ATOM     12  C   UNL     1      10.019  13.678  21.420  0.00  0.00    +0.000 C 
ATOM     13  C   UNL     1      10.226  13.546  19.893  0.00  0.00    +0.000 C 
ATOM     14  C   UNL     1       9.539  14.740  19.201  0.00  0.00    +0.000 C 
ATOM     15  C   UNL     1      11.752  13.660  19.657  0.00  0.00    +0.000 C 
ENDBRANCH   6  13
ENDBRANCH   1   9
BRANCH   4  16
ATOM     16  S   UNL     1       7.582   4.801  17.832  0.00  0.00    +0.000 S 
BRANCH  16  17
ATOM     17  C   UNL     1       5.813   4.442  17.882  0.00  0.00    +0.000 C 
BRANCH  17  18
ATOM     18  N   UNL     1       5.223   4.454  19.218  0.00  0.00    +0.000 N 
ATOM     19  N   UNL     1       5.402   3.269  19.909  0.00  0.00    +0.000 NA
ATOM     20  N   UNL     1       4.436   2.505  20.121  0.00  0.00    +0.000 NA
ATOM     21  C   UNL     1       3.207   2.827  19.537  0.00  0.00    +0.000 A 
ATOM     22  C   UNL     1       2.324   1.807  19.181  0.00  0.00    +0.000 A 
ATOM     23  C   UNL     1       1.107   2.113  18.571  0.00  0.00    +0.000 A 
ATOM     24  C   UNL     1       0.744   3.445  18.360  0.00  0.00    +0.000 A 
ATOM     25  C   UNL     1       1.623   4.471  18.700  0.00  0.00    +0.000 A 
ATOM     26  C   UNL     1       2.862   4.141  19.248  0.00  0.00    +0.000 A 
ATOM     27  C   UNL     1       3.978   5.085  19.242  0.00  0.00    +0.000 A 
ATOM     28  O   UNL     1       3.795   6.278  19.005  0.00  0.00    +0.000 OA
ENDBRANCH  17  18
ENDBRANCH  16  17
ENDBRANCH   4  16
TORSDOF 5
ENDMDL
MODEL 9
REMARK VINA RESULT:      -8.5      6.260      7.824
REMARK  Name = 
REMARK  8 active torsions:
REMARK  status: ('A' for Active; 'I' for Inactive)
REMARK    1  A    between atoms: C_1  and  C_2
REMARK    2  A    between atoms: C_2  and  C_3
REMARK    3  A    between atoms: C_2  and  C_4
REMARK    4  A    between atoms: C_2  and  C_5
REMARK    5  A    between atoms: C_8  and  C_9
REMARK    6  A    between atoms: C_12  and  S_13
REMARK    7  A    between atoms: S_13  and  C_14
REMARK    8  A    between atoms: C_14  and  N_15
REMARK                            x       y       z     vdW  Elec       q    Type
REMARK                         _______ _______ _______ _____ _____    ______ ____
ROOT
ATOM      1  C   UNL     1       0.813   8.917  20.723  0.00  0.00    +0.000 A 
ATOM      2  N   UNL     1       1.235   7.801  21.283  0.00  0.00    +0.000 NA
ATOM      3  N   UNL     1       2.044   7.177  20.356  0.00  0.00    +0.000 NA
ATOM      4  C   UNL     1       2.079   7.962  19.299  0.00  0.00    +0.000 A 
ATOM      5  O   UNL     1       1.301   9.079  19.451  0.00  0.00    +0.000 OA
ENDROOT
BRANCH   1   9
ATOM      6  C   UNL     1      -1.600  12.079  22.407  0.00  0.00    +0.000 A 
ATOM      7  C   UNL     1      -1.288  10.914  23.131  0.00  0.00    +0.000 A 
ATOM      8  C   UNL     1      -0.514   9.886  22.572  0.00  0.00    +0.000 A 
ATOM      9  C   UNL     1      -0.031   9.976  21.262  0.00  0.00    +0.000 A 
ATOM     10  C   UNL     1      -0.377  11.107  20.516  0.00  0.00    +0.000 A 
ATOM     11  C   UNL     1      -1.154  12.133  21.076  0.00  0.00    +0.000 A 
BRANCH   6  13
ATOM     12  C   UNL     1      -3.103  14.112  21.969  0.00  0.00    +0.000 C 
ATOM     13  C   UNL     1      -2.414  13.227  23.036  0.00  0.00    +0.000 C 
ATOM     14  C   UNL     1      -1.470  14.115  23.870  0.00  0.00    +0.000 C 
ATOM     15  C   UNL     1      -3.544  12.715  23.961  0.00  0.00    +0.000 C 
ENDBRANCH   6  13
ENDBRANCH   1   9
BRANCH   4  16
ATOM     16  S   UNL     1       2.998   7.631  17.865  0.00  0.00    +0.000 S 
BRANCH  16  17
ATOM     17  C   UNL     1       3.993   6.267  18.507  0.00  0.00    +0.000 C 
BRANCH  17  18
ATOM     18  N   UNL     1       3.668   4.957  17.950  0.00  0.00    +0.000 N 
ATOM     19  N   UNL     1       2.384   4.879  17.442  0.00  0.00    +0.000 NA
ATOM     20  N   UNL     1       1.509   4.205  18.026  0.00  0.00    +0.000 NA
ATOM     21  C   UNL     1       1.837   3.636  19.261  0.00  0.00    +0.000 A 
ATOM     22  C   UNL     1       0.843   3.450  20.221  0.00  0.00    +0.000 A 
ATOM     23  C   UNL     1       1.162   2.912  21.469  0.00  0.00    +0.000 A 
ATOM     24  C   UNL     1       2.471   2.510  21.744  0.00  0.00    +0.000 A 
ATOM     25  C   UNL     1       3.475   2.703  20.798  0.00  0.00    +0.000 A 
ATOM     26  C   UNL     1       3.147   3.302  19.582  0.00  0.00    +0.000 A 
ATOM     27  C   UNL     1       4.167   3.911  18.729  0.00  0.00    +0.000 A 
ATOM     28  O   UNL     1       5.361   3.685  18.913  0.00  0.00    +0.000 OA
ENDBRANCH  17  18
ENDBRANCH  16  17
ENDBRANCH   4  16
TORSDOF 5
ENDMDL
