MODEL 1
REMARK VINA RESULT:      -8.6      0.000      0.000
REMARK  Name = 
REMARK  3 active torsions:
REMARK  status: ('A' for Active; 'I' for Inactive)
REMARK    1  A    between atoms: C_4  and  C_5
REMARK    2  A    between atoms: N_9  and  C_10
REMARK    3  A    between atoms: C_10  and  C_11
REMARK                            x       y       z     vdW  Elec       q    Type
REMARK                         _______ _______ _______ _____ _____    ______ ____
ROOT
ATOM      1  C   UNL     1       6.080   5.961  16.201  0.00  0.00    +0.000 C 
ATOM      2  C   UNL     1       7.115   5.847  17.323  0.00  0.00    +0.000 C 
ATOM      3  C   UNL     1       6.816   4.724  18.301  0.00  0.00    +0.000 C 
ATOM      4  C   UNL     1       5.365   4.753  18.761  0.00  0.00    +0.000 C 
ATOM      5  N   UNL     1       4.421   4.630  17.638  0.00  0.00    +0.000 NA
ATOM      6  C   UNL     1       4.632   5.723  16.659  0.00  0.00    +0.000 C 
ENDROOT
BRANCH   1  10
ATOM      7  O   UNL     1       5.941   3.078  12.464  0.00  0.00    +0.000 OA
ATOM      8  C   UNL     1       6.303   3.973  13.228  0.00  0.00    +0.000 A 
ATOM      9  N   UNL     1       5.683   4.347  14.397  0.00  0.00    +0.000 NA
ATOM     10  C   UNL     1       6.509   5.202  14.960  0.00  0.00    +0.000 A 
ATOM     11  N   UNL     1       7.690   5.390  14.277  0.00  0.00    +0.000 N 
ATOM     12  N   UNL     1       7.425   4.752  13.052  0.00  0.00    +0.000 N 
ATOM     13  H   UNL     1       8.049   6.343  14.236  0.00  0.00    +0.000 HD
ATOM     14  H   UNL     1       8.172   4.399  12.466  0.00  0.00    +0.000 HD
ENDBRANCH   1  10
BRANCH   5  15
ATOM     15  C   UNL     1       3.005   4.705  18.144  0.00  0.00    +0.000 C 
BRANCH  15  16
ATOM     16  C   UNL     1       2.589   6.017  18.778  0.00  0.00    +0.000 A 
ATOM     17  C   UNL     1       2.444   7.171  18.104  0.00  0.00    +0.000 A 
ATOM     18  C   UNL     1       1.913   8.369  18.746  0.00  0.00    +0.000 A 
ATOM     19  C   UNL     1       1.845   9.588  18.075  0.00  0.00    +0.000 A 
ATOM     20  C   UNL     1       1.286  10.702  18.710  0.00  0.00    +0.000 A 
ATOM     21  C   UNL     1       0.784  10.592  20.009  0.00  0.00    +0.000 A 
ATOM     22  C   UNL     1       0.859   9.377  20.690  0.00  0.00    +0.000 A 
ATOM     23  C   UNL     1       1.440   8.277  20.060  0.00  0.00    +0.000 A 
ATOM     24  N   UNL     1       1.608   7.077  20.760  0.00  0.00    +0.000 N 
ATOM     25  C   UNL     1       2.297   6.002  20.250  0.00  0.00    +0.000 A 
ATOM     26  O   UNL     1       2.641   5.074  20.972  0.00  0.00    +0.000 OA
ATOM     27  H   UNL     1       1.370   7.031  21.742  0.00  0.00    +0.000 HD
ENDBRANCH  15  16
ENDBRANCH   5  15
TORSDOF 3
ENDMDL
MODEL 2
REMARK VINA RESULT:      -8.4      3.481      5.391
REMARK  Name = 
REMARK  3 active torsions:
REMARK  status: ('A' for Active; 'I' for Inactive)
REMARK    1  A    between atoms: C_4  and  C_5
REMARK    2  A    between atoms: N_9  and  C_10
REMARK    3  A    between atoms: C_10  and  C_11
REMARK                            x       y       z     vdW  Elec       q    Type
REMARK                         _______ _______ _______ _____ _____    ______ ____
ROOT
ATOM      1  C   UNL     1       2.397   4.036  17.952  0.00  0.00    +0.000 C 
ATOM      2  C   UNL     1       3.806   3.601  17.543  0.00  0.00    +0.000 C 
ATOM      3  C   UNL     1       4.885   4.570  17.993  0.00  0.00    +0.000 C 
ATOM      4  C   UNL     1       4.527   6.009  17.645  0.00  0.00    +0.000 C 
ATOM      5  N   UNL     1       3.260   6.432  18.265  0.00  0.00    +0.000 NA
ATOM      6  C   UNL     1       2.150   5.549  17.836  0.00  0.00    +0.000 C 
ENDROOT
BRANCH   1  10
ATOM      7  O   UNL     1       2.579   2.311  22.344  0.00  0.00    +0.000 OA
ATOM      8  C   UNL     1       2.128   2.760  21.290  0.00  0.00    +0.000 A 
ATOM      9  N   UNL     1       2.859   3.176  20.202  0.00  0.00    +0.000 NA
ATOM     10  C   UNL     1       1.969   3.400  19.260  0.00  0.00    +0.000 A 
ATOM     11  N   UNL     1       0.672   3.101  19.618  0.00  0.00    +0.000 N 
ATOM     12  N   UNL     1       0.788   2.905  21.006  0.00  0.00    +0.000 N 
ATOM     13  H   UNL     1      -0.050   3.746  19.299  0.00  0.00    +0.000 HD
ATOM     14  H   UNL     1       0.121   2.343  21.518  0.00  0.00    +0.000 HD
ENDBRANCH   1  10
BRANCH   5  15
ATOM     15  C   UNL     1       2.935   7.845  17.857  0.00  0.00    +0.000 C 
BRANCH  15  16
ATOM     16  C   UNL     1       2.035   8.623  18.796  0.00  0.00    +0.000 A 
ATOM     17  C   UNL     1       1.547   8.138  19.951  0.00  0.00    +0.000 A 
ATOM     18  C   UNL     1       0.795   8.980  20.876  0.00  0.00    +0.000 A 
ATOM     19  C   UNL     1       0.213   8.460  22.030  0.00  0.00    +0.000 A 
ATOM     20  C   UNL     1      -0.460   9.310  22.914  0.00  0.00    +0.000 A 
ATOM     21  C   UNL     1      -0.538  10.679  22.650  0.00  0.00    +0.000 A 
ATOM     22  C   UNL     1       0.034  11.205  21.492  0.00  0.00    +0.000 A 
ATOM     23  C   UNL     1       0.682  10.348  20.602  0.00  0.00    +0.000 A 
ATOM     24  N   UNL     1       1.179  10.843  19.391  0.00  0.00    +0.000 N 
ATOM     25  C   UNL     1       1.700  10.033  18.409  0.00  0.00    +0.000 A 
ATOM     26  O   UNL     1       1.890  10.460  17.277  0.00  0.00    +0.000 OA
ATOM     27  H   UNL     1       1.008  11.805  19.133  0.00  0.00    +0.000 HD
ENDBRANCH  15  16
ENDBRANCH   5  15
TORSDOF 3
ENDMDL
MODEL 3
REMARK VINA RESULT:      -8.4      2.203      7.551
REMARK  Name = 
REMARK  3 active torsions:
REMARK  status: ('A' for Active; 'I' for Inactive)
REMARK    1  A    between atoms: C_4  and  C_5
REMARK    2  A    between atoms: N_9  and  C_10
REMARK    3  A    between atoms: C_10  and  C_11
REMARK                            x       y       z     vdW  Elec       q    Type
REMARK                         _______ _______ _______ _____ _____    ______ ____
ROOT
ATOM      1  C   UNL     1       2.699   6.478  18.009  0.00  0.00    +0.000 C 
ATOM      2  C   UNL     1       1.625   5.460  17.615  0.00  0.00    +0.000 C 
ATOM      3  C   UNL     1       1.842   4.091  18.237  0.00  0.00    +0.000 C 
ATOM      4  C   UNL     1       3.278   3.617  18.060  0.00  0.00    +0.000 C 
ATOM      5  N   UNL     1       4.250   4.542  18.667  0.00  0.00    +0.000 NA
ATOM      6  C   UNL     1       4.119   5.895  18.075  0.00  0.00    +0.000 C 
ENDROOT
BRANCH   1  10
ATOM      7  O   UNL     1       0.845   9.987  20.567  0.00  0.00    +0.000 OA
ATOM      8  C   UNL     1       1.299   8.883  20.266  0.00  0.00    +0.000 A 
ATOM      9  N   UNL     1       1.702   8.480  19.015  0.00  0.00    +0.000 NA
ATOM     10  C   UNL     1       2.274   7.311  19.203  0.00  0.00    +0.000 A 
ATOM     11  N   UNL     1       2.346   6.914  20.520  0.00  0.00    +0.000 N 
ATOM     12  N   UNL     1       1.506   7.849  21.153  0.00  0.00    +0.000 N 
ATOM     13  H   UNL     1       2.170   5.929  20.711  0.00  0.00    +0.000 HD
ATOM     14  H   UNL     1       1.604   8.068  22.136  0.00  0.00    +0.000 HD
ENDBRANCH   1  10
BRANCH   5  15
ATOM     15  C   UNL     1       5.652   4.045  18.429  0.00  0.00    +0.000 C 
BRANCH  15  16
ATOM     16  C   UNL     1       6.203   4.242  17.031  0.00  0.00    +0.000 A 
ATOM     17  C   UNL     1       5.757   3.589  15.943  0.00  0.00    +0.000 A 
ATOM     18  C   UNL     1       6.238   3.918  14.606  0.00  0.00    +0.000 A 
ATOM     19  C   UNL     1       5.845   3.185  13.487  0.00  0.00    +0.000 A 
ATOM     20  C   UNL     1       6.291   3.562  12.216  0.00  0.00    +0.000 A 
ATOM     21  C   UNL     1       7.117   4.678  12.064  0.00  0.00    +0.000 A 
ATOM     22  C   UNL     1       7.522   5.409  13.180  0.00  0.00    +0.000 A 
ATOM     23  C   UNL     1       7.094   5.014  14.447  0.00  0.00    +0.000 A 
ATOM     24  N   UNL     1       7.566   5.679  15.584  0.00  0.00    +0.000 N 
ATOM     25  C   UNL     1       7.298   5.254  16.865  0.00  0.00    +0.000 A 
ATOM     26  O   UNL     1       7.922   5.699  17.819  0.00  0.00    +0.000 OA
ATOM     27  H   UNL     1       8.268   6.400  15.490  0.00  0.00    +0.000 HD
ENDBRANCH  15  16
ENDBRANCH   5  15
TORSDOF 3
ENDMDL
MODEL 4
REMARK VINA RESULT:      -8.3      2.594      3.353
REMARK  Name = 
REMARK  3 active torsions:
REMARK  status: ('A' for Active; 'I' for Inactive)
REMARK    1  A    between atoms: C_4  and  C_5
REMARK    2  A    between atoms: N_9  and  C_10
REMARK    3  A    between atoms: C_10  and  C_11
REMARK                            x       y       z     vdW  Elec       q    Type
REMARK                         _______ _______ _______ _____ _____    ______ ____
ROOT
ATOM      1  C   UNL     1       6.902   5.318  18.059  0.00  0.00    +0.000 C 
ATOM      2  C   UNL     1       7.212   4.604  16.741  0.00  0.00    +0.000 C 
ATOM      3  C   UNL     1       6.203   4.904  15.646  0.00  0.00    +0.000 C 
ATOM      4  C   UNL     1       4.773   4.747  16.144  0.00  0.00    +0.000 C 
ATOM      5  N   UNL     1       4.477   5.638  17.280  0.00  0.00    +0.000 NA
ATOM      6  C   UNL     1       5.405   5.371  18.405  0.00  0.00    +0.000 C 
ENDROOT
BRANCH   1  10
ATOM      7  O   UNL     1       8.185   9.803  17.325  0.00  0.00    +0.000 OA
ATOM      8  C   UNL     1       8.069   8.700  17.860  0.00  0.00    +0.000 A 
ATOM      9  N   UNL     1       7.338   7.636  17.387  0.00  0.00    +0.000 NA
ATOM     10  C   UNL     1       7.650   6.632  18.177  0.00  0.00    +0.000 A 
ATOM     11  N   UNL     1       8.602   6.927  19.128  0.00  0.00    +0.000 N 
ATOM     12  N   UNL     1       8.683   8.329  19.037  0.00  0.00    +0.000 N 
ATOM     13  H   UNL     1       8.460   6.530  20.056  0.00  0.00    +0.000 HD
ATOM     14  H   UNL     1       9.510   8.831  19.330  0.00  0.00    +0.000 HD
ENDBRANCH   1  10
BRANCH   5  15
ATOM     15  C   UNL     1       3.066   5.414  17.756  0.00  0.00    +0.000 C 
BRANCH  15  16
ATOM     16  C   UNL     1       2.529   6.420  18.754  0.00  0.00    +0.000 A 
ATOM     17  C   UNL     1       2.209   7.690  18.451  0.00  0.00    +0.000 A 
ATOM     18  C   UNL     1       1.572   8.570  19.424  0.00  0.00    +0.000 A 
ATOM     19  C   UNL     1       1.320   9.911  19.142  0.00  0.00    +0.000 A 
ATOM     20  C   UNL     1       0.665  10.710  20.085  0.00  0.00    +0.000 A 
ATOM     21  C   UNL     1       0.252  10.164  21.302  0.00  0.00    +0.000 A 
ATOM     22  C   UNL     1       0.510   8.826  21.595  0.00  0.00    +0.000 A 
ATOM     23  C   UNL     1       1.185   8.041  20.661  0.00  0.00    +0.000 A 
ATOM     24  N   UNL     1       1.535   6.723  20.976  0.00  0.00    +0.000 N 
ATOM     25  C   UNL     1       2.321   5.942  20.161  0.00  0.00    +0.000 A 
ATOM     26  O   UNL     1       2.813   4.899  20.573  0.00  0.00    +0.000 OA
ATOM     27  H   UNL     1       1.358   6.364  21.904  0.00  0.00    +0.000 HD
ENDBRANCH  15  16
ENDBRANCH   5  15
TORSDOF 3
ENDMDL
MODEL 5
REMARK VINA RESULT:      -8.2      0.999      1.151
REMARK  Name = 
REMARK  3 active torsions:
REMARK  status: ('A' for Active; 'I' for Inactive)
REMARK    1  A    between atoms: C_4  and  C_5
REMARK    2  A    between atoms: N_9  and  C_10
REMARK    3  A    between atoms: C_10  and  C_11
REMARK                            x       y       z     vdW  Elec       q    Type
REMARK                         _______ _______ _______ _____ _____    ______ ____
ROOT
ATOM      1  C   UNL     1       5.986   5.433  15.145  0.00  0.00    +0.000 C 
ATOM      2  C   UNL     1       7.183   5.676  16.068  0.00  0.00    +0.000 C 
ATOM      3  C   UNL     1       7.281   4.666  17.197  0.00  0.00    +0.000 C 
ATOM      4  C   UNL     1       5.946   4.485  17.906  0.00  0.00    +0.000 C 
ATOM      5  N   UNL     1       4.887   4.029  16.990  0.00  0.00    +0.000 NA
ATOM      6  C   UNL     1       4.709   4.993  15.878  0.00  0.00    +0.000 C 
ENDROOT
BRANCH   1  10
ATOM      7  O   UNL     1       5.723   2.300  11.621  0.00  0.00    +0.000 OA
ATOM      8  C   UNL     1       6.102   3.253  12.303  0.00  0.00    +0.000 A 
ATOM      9  N   UNL     1       5.536   3.692  13.477  0.00  0.00    +0.000 NA
ATOM     10  C   UNL     1       6.368   4.603  13.935  0.00  0.00    +0.000 A 
ATOM     11  N   UNL     1       7.504   4.772  13.175  0.00  0.00    +0.000 N 
ATOM     12  N   UNL     1       7.191   4.046  12.012  0.00  0.00    +0.000 N 
ATOM     13  H   UNL     1       7.833   5.728  13.051  0.00  0.00    +0.000 HD
ATOM     14  H   UNL     1       7.913   3.672  11.410  0.00  0.00    +0.000 HD
ENDBRANCH   1  10
BRANCH   5  15
ATOM     15  C   UNL     1       3.582   3.905  17.732  0.00  0.00    +0.000 C 
BRANCH  15  16
ATOM     16  C   UNL     1       3.118   5.138  18.480  0.00  0.00    +0.000 A 
ATOM     17  C   UNL     1       2.816   6.310  17.894  0.00  0.00    +0.000 A 
ATOM     18  C   UNL     1       2.248   7.418  18.653  0.00  0.00    +0.000 A 
ATOM     19  C   UNL     1       2.016   8.662  18.068  0.00  0.00    +0.000 A 
ATOM     20  C   UNL     1       1.426   9.685  18.818  0.00  0.00    +0.000 A 
ATOM     21  C   UNL     1       1.058   9.460  20.146  0.00  0.00    +0.000 A 
ATOM     22  C   UNL     1       1.296   8.222  20.741  0.00  0.00    +0.000 A 
ATOM     23  C   UNL     1       1.907   7.213  19.995  0.00  0.00    +0.000 A 
ATOM     24  N   UNL     1       2.239   5.997  20.603  0.00  0.00    +0.000 N 
ATOM     25  C   UNL     1       2.966   5.017  19.968  0.00  0.00    +0.000 A 
ATOM     26  O   UNL     1       3.451   4.085  20.598  0.00  0.00    +0.000 OA
ATOM     27  H   UNL     1       2.097   5.876  21.596  0.00  0.00    +0.000 HD
ENDBRANCH  15  16
ENDBRANCH   5  15
TORSDOF 3
ENDMDL
MODEL 6
REMARK VINA RESULT:      -8.2      3.535      7.693
REMARK  Name = 
REMARK  3 active torsions:
REMARK  status: ('A' for Active; 'I' for Inactive)
REMARK    1  A    between atoms: C_4  and  C_5
REMARK    2  A    between atoms: N_9  and  C_10
REMARK    3  A    between atoms: C_10  and  C_11
REMARK                            x       y       z     vdW  Elec       q    Type
REMARK                         _______ _______ _______ _____ _____    ______ ____
ROOT
ATOM      1  C   UNL     1      -1.294  10.831  19.432  0.00  0.00    +0.000 C 
ATOM      2  C   UNL     1      -0.645  12.129  19.922  0.00  0.00    +0.000 C 
ATOM      3  C   UNL     1       0.873  12.095  19.868  0.00  0.00    +0.000 C 
ATOM      4  C   UNL     1       1.427  10.821  20.491  0.00  0.00    +0.000 C 
ATOM      5  N   UNL     1       0.930   9.609  19.816  0.00  0.00    +0.000 NA
ATOM      6  C   UNL     1      -0.550   9.557  19.865  0.00  0.00    +0.000 C 
ENDROOT
BRANCH   1  10
ATOM      7  O   UNL     1      -2.835   9.572  15.150  0.00  0.00    +0.000 OA
ATOM      8  C   UNL     1      -2.497  10.275  16.103  0.00  0.00    +0.000 A 
ATOM      9  N   UNL     1      -2.096   9.831  17.341  0.00  0.00    +0.000 NA
ATOM     10  C   UNL     1      -1.667  10.907  17.964  0.00  0.00    +0.000 A 
ATOM     11  N   UNL     1      -1.691  12.056  17.204  0.00  0.00    +0.000 N 
ATOM     12  N   UNL     1      -2.442  11.651  16.086  0.00  0.00    +0.000 N 
ATOM     13  H   UNL     1      -1.984  12.910  17.676  0.00  0.00    +0.000 HD
ATOM     14  H   UNL     1      -2.358  12.121  15.194  0.00  0.00    +0.000 HD
ENDBRANCH   1  10
BRANCH   5  15
ATOM     15  C   UNL     1       1.477   8.381  20.495  0.00  0.00    +0.000 C 
BRANCH  15  16
ATOM     16  C   UNL     1       2.190   7.385  19.603  0.00  0.00    +0.000 A 
ATOM     17  C   UNL     1       2.907   7.720  18.516  0.00  0.00    +0.000 A 
ATOM     18  C   UNL     1       3.679   6.728  17.776  0.00  0.00    +0.000 A 
ATOM     19  C   UNL     1       4.351   7.054  16.599  0.00  0.00    +0.000 A 
ATOM     20  C   UNL     1       5.118   6.085  15.944  0.00  0.00    +0.000 A 
ATOM     21  C   UNL     1       5.224   4.797  16.473  0.00  0.00    +0.000 A 
ATOM     22  C   UNL     1       4.546   4.461  17.644  0.00  0.00    +0.000 A 
ATOM     23  C   UNL     1       3.762   5.425  18.279  0.00  0.00    +0.000 A 
ATOM     24  N   UNL     1       3.002   5.079  19.401  0.00  0.00    +0.000 N 
ATOM     25  C   UNL     1       2.102   5.938  19.989  0.00  0.00    +0.000 A 
ATOM     26  O   UNL     1       1.280   5.530  20.800  0.00  0.00    +0.000 OA
ATOM     27  H   UNL     1       2.968   4.117  19.709  0.00  0.00    +0.000 HD
ENDBRANCH  15  16
ENDBRANCH   5  15
TORSDOF 3
ENDMDL
MODEL 7
REMARK VINA RESULT:      -8.1      4.217      8.000
REMARK  Name = 
REMARK  3 active torsions:
REMARK  status: ('A' for Active; 'I' for Inactive)
REMARK    1  A    between atoms: C_4  and  C_5
REMARK    2  A    between atoms: N_9  and  C_10
REMARK    3  A    between atoms: C_10  and  C_11
REMARK                            x       y       z     vdW  Elec       q    Type
REMARK                         _______ _______ _______ _____ _____    ______ ____
ROOT
ATOM      1  C   UNL     1      -1.405  11.132  19.519  0.00  0.00    +0.000 C 
ATOM      2  C   UNL     1      -0.853  12.512  19.887  0.00  0.00    +0.000 C 
ATOM      3  C   UNL     1       0.665  12.569  19.881  0.00  0.00    +0.000 C 
ATOM      4  C   UNL     1       1.273  11.404  20.651  0.00  0.00    +0.000 C 
ATOM      5  N   UNL     1       0.874  10.100  20.094  0.00  0.00    +0.000 NA
ATOM      6  C   UNL     1      -0.602   9.960  20.105  0.00  0.00    +0.000 C 
ENDROOT
BRANCH   1  10
ATOM      7  O   UNL     1      -2.888   9.397  15.384  0.00  0.00    +0.000 OA
ATOM      8  C   UNL     1      -2.539  10.202  16.249  0.00  0.00    +0.000 A 
ATOM      9  N   UNL     1      -2.201   9.906  17.549  0.00  0.00    +0.000 NA
ATOM     10  C   UNL     1      -1.729  11.031  18.041  0.00  0.00    +0.000 A 
ATOM     11  N   UNL     1      -1.665  12.068  17.136  0.00  0.00    +0.000 N 
ATOM     12  N   UNL     1      -2.405  11.559  16.053  0.00  0.00    +0.000 N 
ATOM     13  H   UNL     1      -1.922  12.992  17.480  0.00  0.00    +0.000 HD
ATOM     14  H   UNL     1      -2.267  11.900  15.111  0.00  0.00    +0.000 HD
ENDBRANCH   1  10
BRANCH   5  15
ATOM     15  C   UNL     1       1.469   8.986  20.914  0.00  0.00    +0.000 C 
BRANCH  15  16
ATOM     16  C   UNL     1       1.730   7.683  20.185  0.00  0.00    +0.000 A 
ATOM     17  C   UNL     1       1.479   6.466  20.697  0.00  0.00    +0.000 A 
ATOM     18  C   UNL     1       1.627   5.256  19.896  0.00  0.00    +0.000 A 
ATOM     19  C   UNL     1       1.453   3.988  20.449  0.00  0.00    +0.000 A 
ATOM     20  C   UNL     1       1.558   2.854  19.636  0.00  0.00    +0.000 A 
ATOM     21  C   UNL     1       1.822   2.990  18.272  0.00  0.00    +0.000 A 
ATOM     22  C   UNL     1       2.007   4.255  17.714  0.00  0.00    +0.000 A 
ATOM     23  C   UNL     1       1.926   5.380  18.535  0.00  0.00    +0.000 A 
ATOM     24  N   UNL     1       2.201   6.649  18.012  0.00  0.00    +0.000 N 
ATOM     25  C   UNL     1       2.278   7.779  18.792  0.00  0.00    +0.000 A 
ATOM     26  O   UNL     1       2.762   8.815  18.352  0.00  0.00    +0.000 OA
ATOM     27  H   UNL     1       2.523   6.740  17.058  0.00  0.00    +0.000 HD
ENDBRANCH  15  16
ENDBRANCH   5  15
TORSDOF 3
ENDMDL
MODEL 8
REMARK VINA RESULT:      -8.0      4.806      7.731
REMARK  Name = 
REMARK  3 active torsions:
REMARK  status: ('A' for Active; 'I' for Inactive)
REMARK    1  A    between atoms: C_4  and  C_5
REMARK    2  A    between atoms: N_9  and  C_10
REMARK    3  A    between atoms: C_10  and  C_11
REMARK                            x       y       z     vdW  Elec       q    Type
REMARK                         _______ _______ _______ _____ _____    ______ ____
ROOT
ATOM      1  C   UNL     1      -1.272  10.241  18.360  0.00  0.00    +0.000 C 
ATOM      2  C   UNL     1      -1.205  11.438  19.312  0.00  0.00    +0.000 C 
ATOM      3  C   UNL     1       0.111  12.192  19.232  0.00  0.00    +0.000 C 
ATOM      4  C   UNL     1       1.303  11.248  19.297  0.00  0.00    +0.000 C 
ATOM      5  N   UNL     1       1.290  10.257  18.207  0.00  0.00    +0.000 NA
ATOM      6  C   UNL     1       0.044   9.455  18.249  0.00  0.00    +0.000 C 
ENDROOT
BRANCH   1  10
ATOM      7  O   UNL     1      -3.358   9.808  14.145  0.00  0.00    +0.000 OA
ATOM      8  C   UNL     1      -2.978  10.298  15.209  0.00  0.00    +0.000 A 
ATOM      9  N   UNL     1      -2.266   9.657  16.195  0.00  0.00    +0.000 NA
ATOM     10  C   UNL     1      -1.933  10.604  17.044  0.00  0.00    +0.000 A 
ATOM     11  N   UNL     1      -2.321  11.871  16.667  0.00  0.00    +0.000 N 
ATOM     12  N   UNL     1      -3.187  11.605  15.592  0.00  0.00    +0.000 N 
ATOM     13  H   UNL     1      -2.671  12.481  17.405  0.00  0.00    +0.000 HD
ATOM     14  H   UNL     1      -3.369  12.296  14.875  0.00  0.00    +0.000 HD
ENDBRANCH   1  10
BRANCH   5  15
ATOM     15  C   UNL     1       2.466   9.327  18.342  0.00  0.00    +0.000 C 
BRANCH  15  16
ATOM     16  C   UNL     1       2.155   7.916  18.800  0.00  0.00    +0.000 A 
ATOM     17  C   UNL     1       2.123   6.846  17.988  0.00  0.00    +0.000 A 
ATOM     18  C   UNL     1       1.948   5.495  18.511  0.00  0.00    +0.000 A 
ATOM     19  C   UNL     1       1.826   4.394  17.665  0.00  0.00    +0.000 A 
ATOM     20  C   UNL     1       1.707   3.110  18.207  0.00  0.00    +0.000 A 
ATOM     21  C   UNL     1       1.724   2.928  19.591  0.00  0.00    +0.000 A 
ATOM     22  C   UNL     1       1.836   4.026  20.443  0.00  0.00    +0.000 A 
ATOM     23  C   UNL     1       1.929   5.306  19.897  0.00  0.00    +0.000 A 
ATOM     24  N   UNL     1       1.947   6.425  20.737  0.00  0.00    +0.000 N 
ATOM     25  C   UNL     1       1.896   7.716  20.264  0.00  0.00    +0.000 A 
ATOM     26  O   UNL     1       1.661   8.653  21.018  0.00  0.00    +0.000 OA
ATOM     27  H   UNL     1       1.824   6.308  21.733  0.00  0.00    +0.000 HD
ENDBRANCH  15  16
ENDBRANCH   5  15
TORSDOF 3
ENDMDL
MODEL 9
REMARK VINA RESULT:      -8.0      2.500      7.328
REMARK  Name = 
REMARK  3 active torsions:
REMARK  status: ('A' for Active; 'I' for Inactive)
REMARK    1  A    between atoms: C_4  and  C_5
REMARK    2  A    between atoms: N_9  and  C_10
REMARK    3  A    between atoms: C_10  and  C_11
REMARK                            x       y       z     vdW  Elec       q    Type
REMARK                         _______ _______ _______ _____ _____    ______ ____
ROOT
ATOM      1  C   UNL     1       3.494   4.928  19.682  0.00  0.00    +0.000 C 
ATOM      2  C   UNL     1       2.523   6.015  20.152  0.00  0.00    +0.000 C 
ATOM      3  C   UNL     1       2.025   6.900  19.023  0.00  0.00    +0.000 C 
ATOM      4  C   UNL     1       3.171   7.392  18.150  0.00  0.00    +0.000 C 
ATOM      5  N   UNL     1       3.928   6.282  17.546  0.00  0.00    +0.000 NA
ATOM      6  C   UNL     1       4.478   5.395  18.598  0.00  0.00    +0.000 C 
ENDROOT
BRANCH   1  10
ATOM      7  O   UNL     1       0.147   1.857  18.391  0.00  0.00    +0.000 OA
ATOM      8  C   UNL     1       1.252   2.319  18.680  0.00  0.00    +0.000 A 
ATOM      9  N   UNL     1       1.531   3.627  18.996  0.00  0.00    +0.000 NA
ATOM     10  C   UNL     1       2.782   3.619  19.403  0.00  0.00    +0.000 A 
ATOM     11  N   UNL     1       3.360   2.369  19.445  0.00  0.00    +0.000 N 
ATOM     12  N   UNL     1       2.415   1.585  18.758  0.00  0.00    +0.000 N 
ATOM     13  H   UNL     1       4.329   2.303  19.137  0.00  0.00    +0.000 HD
ATOM     14  H   UNL     1       2.348   0.587  18.906  0.00  0.00    +0.000 HD
ENDBRANCH   1  10
BRANCH   5  15
ATOM     15  C   UNL     1       5.070   6.823  16.727  0.00  0.00    +0.000 C 
BRANCH  15  16
ATOM     16  C   UNL     1       5.647   5.888  15.683  0.00  0.00    +0.000 A 
ATOM     17  C   UNL     1       4.908   5.144  14.842  0.00  0.00    +0.000 A 
ATOM     18  C   UNL     1       5.522   4.365  13.772  0.00  0.00    +0.000 A 
ATOM     19  C   UNL     1       4.768   3.524  12.955  0.00  0.00    +0.000 A 
ATOM     20  C   UNL     1       5.387   2.831  11.910  0.00  0.00    +0.000 A 
ATOM     21  C   UNL     1       6.754   2.989  11.675  0.00  0.00    +0.000 A 
ATOM     22  C   UNL     1       7.516   3.820  12.494  0.00  0.00    +0.000 A 
ATOM     23  C   UNL     1       6.898   4.490  13.550  0.00  0.00    +0.000 A 
ATOM     24  N   UNL     1       7.663   5.254  14.438  0.00  0.00    +0.000 N 
ATOM     25  C   UNL     1       7.142   5.823  15.577  0.00  0.00    +0.000 A 
ATOM     26  O   UNL     1       7.876   6.265  16.452  0.00  0.00    +0.000 OA
ATOM     27  H   UNL     1       8.670   5.264  14.354  0.00  0.00    +0.000 HD
ENDBRANCH  15  16
ENDBRANCH   5  15
TORSDOF 3
ENDMDL
