MODEL 1
REMARK VINA RESULT:      -8.3      0.000      0.000
REMARK  Name = 
REMARK  8 active torsions:
REMARK  status: ('A' for Active; 'I' for Inactive)
REMARK    1  A    between atoms: C_1  and  C_2
REMARK    2  A    between atoms: C_2  and  C_3
REMARK    3  A    between atoms: C_2  and  C_9
REMARK    4  A    between atoms: N_7  and  C_8
REMARK    5  A    between atoms: C_9  and  C_10
REMARK    6  A    between atoms: C_14  and  N_15
REMARK    7  A    between atoms: C_16  and  C_18
REMARK    8  A    between atoms: C_22  and  C_23
REMARK                            x       y       z     vdW  Elec       q    Type
REMARK                         _______ _______ _______ _____ _____    ______ ____
ROOT
ATOM      1  C   UNL     1       2.989   6.079  18.701  0.00  0.00    +0.000 A 
ATOM      2  C   UNL     1       3.518   6.683  17.541  0.00  0.00    +0.000 A 
ATOM      3  C   UNL     1       3.252   8.003  17.209  0.00  0.00    +0.000 A 
ATOM      4  C   UNL     1       2.467   8.779  18.050  0.00  0.00    +0.000 A 
ATOM      5  C   UNL     1       1.973   8.262  19.247  0.00  0.00    +0.000 A 
ATOM      6  C   UNL     1       2.247   6.921  19.564  0.00  0.00    +0.000 A 
ENDROOT
BRANCH   1   7
ATOM      7  C   UNL     1       3.099   4.468  18.899  0.00  0.00    +0.000 C 
ATOM      8  C   UNL     1       1.863   3.763  19.601  0.00  0.00    +0.000 C 
ATOM      9  C   UNL     1       1.183   3.713  18.221  0.00  0.00    +0.000 C 
ATOM     10  C   UNL     1       2.597   3.661  17.614  0.00  0.00    +0.000 C 
BRANCH   7  12
ATOM     11  C   UNL     1       4.568   2.462  19.605  0.00  0.00    +0.000 C 
ATOM     12  C   UNL     1       4.474   3.976  19.426  0.00  0.00    +0.000 C 
BRANCH  12  13
ATOM     13  C   UNL     1       5.684   4.598  18.772  0.00  0.00    +0.000 A 
ATOM     14  C   UNL     1       6.618   5.419  19.390  0.00  0.00    +0.000 A 
ATOM     15  N   UNL     1       7.581   5.845  18.524  0.00  0.00    +0.000 NA
ATOM     16  C   UNL     1       7.273   5.283  17.382  0.00  0.00    +0.000 A 
ATOM     17  N   UNL     1       6.149   4.498  17.480  0.00  0.00    +0.000 N 
ATOM     18  C   UNL     1       5.661   3.742  16.354  0.00  0.00    +0.000 C 
ENDBRANCH  12  13
ENDBRANCH   7  12
ENDBRANCH   1   7
BRANCH   5  19
ATOM     19  N   UNL     1       1.177   9.020  20.132  0.00  0.00    +0.000 N 
ATOM     20  C   UNL     1       0.230   9.972  19.779  0.00  0.00    +0.000 C 
ATOM     21  O   UNL     1      -0.046  10.351  18.647  0.00  0.00    +0.000 OA
ATOM     22  H   UNL     1       1.254   8.845  21.132  0.00  0.00    +0.000 HD
BRANCH  20  23
ATOM     23  C   UNL     1      -0.517  10.562  20.929  0.00  0.00    +0.000 A 
ATOM     24  C   UNL     1      -0.325  10.037  22.199  0.00  0.00    +0.000 A 
ATOM     25  C   UNL     1      -1.024  10.607  23.251  0.00  0.00    +0.000 A 
ATOM     26  C   UNL     1      -1.878  11.675  22.990  0.00  0.00    +0.000 A 
ATOM     27  C   UNL     1      -2.020  12.161  21.687  0.00  0.00    +0.000 A 
ATOM     28  N   UNL     1      -1.345  11.605  20.650  0.00  0.00    +0.000 NA
BRANCH  27  29
ATOM     29  C   UNL     1      -2.942  13.313  21.379  0.00  0.00    +0.000 C 
ATOM     30  C   UNL     1      -4.342  13.286  21.953  0.00  0.00    +0.000 C 
ATOM     31  C   UNL     1      -4.141  13.152  20.474  0.00  0.00    +0.000 C 
ENDBRANCH  27  29
ENDBRANCH  20  23
ENDBRANCH   5  19
TORSDOF 6
ENDMDL
MODEL 2
REMARK VINA RESULT:      -8.3      4.215      8.008
REMARK  Name = 
REMARK  8 active torsions:
REMARK  status: ('A' for Active; 'I' for Inactive)
REMARK    1  A    between atoms: C_1  and  C_2
REMARK    2  A    between atoms: C_2  and  C_3
REMARK    3  A    between atoms: C_2  and  C_9
REMARK    4  A    between atoms: N_7  and  C_8
REMARK    5  A    between atoms: C_9  and  C_10
REMARK    6  A    between atoms: C_14  and  N_15
REMARK    7  A    between atoms: C_16  and  C_18
REMARK    8  A    between atoms: C_22  and  C_23
REMARK                            x       y       z     vdW  Elec       q    Type
REMARK                         _______ _______ _______ _____ _____    ______ ____
ROOT
ATOM      1  C   UNL     1       5.077   4.624  17.478  0.00  0.00    +0.000 A 
ATOM      2  C   UNL     1       5.631   3.887  16.411  0.00  0.00    +0.000 A 
ATOM      3  C   UNL     1       6.614   4.410  15.583  0.00  0.00    +0.000 A 
ATOM      4  C   UNL     1       7.101   5.688  15.817  0.00  0.00    +0.000 A 
ATOM      5  C   UNL     1       6.646   6.441  16.898  0.00  0.00    +0.000 A 
ATOM      6  C   UNL     1       5.646   5.898  17.722  0.00  0.00    +0.000 A 
ENDROOT
BRANCH   1   7
ATOM      7  C   UNL     1       3.747   4.078  18.237  0.00  0.00    +0.000 C 
ATOM      8  C   UNL     1       3.493   2.513  18.169  0.00  0.00    +0.000 C 
ATOM      9  C   UNL     1       4.442   2.366  19.372  0.00  0.00    +0.000 C 
ATOM     10  C   UNL     1       4.007   3.785  19.786  0.00  0.00    +0.000 C 
BRANCH   7  12
ATOM     11  C   UNL     1       1.242   4.100  17.599  0.00  0.00    +0.000 C 
ATOM     12  C   UNL     1       2.469   4.924  17.986  0.00  0.00    +0.000 C 
BRANCH  12  13
ATOM     13  C   UNL     1       2.192   6.006  19.002  0.00  0.00    +0.000 A 
ATOM     14  C   UNL     1       1.774   5.813  20.311  0.00  0.00    +0.000 A 
ATOM     15  N   UNL     1       1.584   6.991  20.969  0.00  0.00    +0.000 NA
ATOM     16  C   UNL     1       1.899   7.914  20.096  0.00  0.00    +0.000 A 
ATOM     17  N   UNL     1       2.299   7.375  18.896  0.00  0.00    +0.000 N 
ATOM     18  C   UNL     1       2.743   8.209  17.809  0.00  0.00    +0.000 C 
ENDBRANCH  12  13
ENDBRANCH   7  12
ENDBRANCH   1   7
BRANCH   5  19
ATOM     19  N   UNL     1       7.120   7.741  17.174  0.00  0.00    +0.000 N 
ATOM     20  C   UNL     1       8.037   8.092  18.156  0.00  0.00    +0.000 C 
ATOM     21  O   UNL     1       8.557   7.347  18.978  0.00  0.00    +0.000 OA
ATOM     22  H   UNL     1       6.807   8.512  16.587  0.00  0.00    +0.000 HD
BRANCH  20  23
ATOM     23  C   UNL     1       8.412   9.538  18.169  0.00  0.00    +0.000 A 
ATOM     24  C   UNL     1       7.725  10.420  17.347  0.00  0.00    +0.000 A 
ATOM     25  C   UNL     1       8.086  11.757  17.383  0.00  0.00    +0.000 A 
ATOM     26  C   UNL     1       9.112  12.153  18.237  0.00  0.00    +0.000 A 
ATOM     27  C   UNL     1       9.758  11.214  19.044  0.00  0.00    +0.000 A 
ATOM     28  N   UNL     1       9.416   9.902  19.011  0.00  0.00    +0.000 NA
BRANCH  27  29
ATOM     29  C   UNL     1      10.874  11.619  19.973  0.00  0.00    +0.000 C 
ATOM     30  C   UNL     1      10.523  12.390  21.226  0.00  0.00    +0.000 C 
ATOM     31  C   UNL     1      11.294  13.061  20.131  0.00  0.00    +0.000 C 
ENDBRANCH  27  29
ENDBRANCH  20  23
ENDBRANCH   5  19
TORSDOF 6
ENDMDL
MODEL 3
REMARK VINA RESULT:      -8.2      2.462      8.849
REMARK  Name = 
REMARK  8 active torsions:
REMARK  status: ('A' for Active; 'I' for Inactive)
REMARK    1  A    between atoms: C_1  and  C_2
REMARK    2  A    between atoms: C_2  and  C_3
REMARK    3  A    between atoms: C_2  and  C_9
REMARK    4  A    between atoms: N_7  and  C_8
REMARK    5  A    between atoms: C_9  and  C_10
REMARK    6  A    between atoms: C_14  and  N_15
REMARK    7  A    between atoms: C_16  and  C_18
REMARK    8  A    between atoms: C_22  and  C_23
REMARK                            x       y       z     vdW  Elec       q    Type
REMARK                         _______ _______ _______ _____ _____    ______ ____
ROOT
ATOM      1  C   UNL     1      -0.530  11.352  20.735  0.00  0.00    +0.000 A 
ATOM      2  C   UNL     1      -0.880  11.328  22.101  0.00  0.00    +0.000 A 
ATOM      3  C   UNL     1      -0.569  10.257  22.926  0.00  0.00    +0.000 A 
ATOM      4  C   UNL     1       0.136   9.178  22.413  0.00  0.00    +0.000 A 
ATOM      5  C   UNL     1       0.573   9.171  21.090  0.00  0.00    +0.000 A 
ATOM      6  C   UNL     1       0.244  10.262  20.268  0.00  0.00    +0.000 A 
ENDROOT
BRANCH   1   7
ATOM      7  C   UNL     1      -1.154  12.491  19.756  0.00  0.00    +0.000 C 
ATOM      8  C   UNL     1      -1.328  12.086  18.232  0.00  0.00    +0.000 C 
ATOM      9  C   UNL     1      -2.673  11.444  18.617  0.00  0.00    +0.000 C 
ATOM     10  C   UNL     1      -2.752  12.481  19.753  0.00  0.00    +0.000 C 
BRANCH   7  12
ATOM     11  C   UNL     1      -1.513  14.904  20.611  0.00  0.00    +0.000 C 
ATOM     12  C   UNL     1      -0.556  13.910  19.956  0.00  0.00    +0.000 C 
BRANCH  12  13
ATOM     13  C   UNL     1       0.851  13.954  20.501  0.00  0.00    +0.000 A 
ATOM     14  C   UNL     1       1.227  14.395  21.763  0.00  0.00    +0.000 A 
ATOM     15  N   UNL     1       2.577  14.337  21.947  0.00  0.00    +0.000 NA
ATOM     16  C   UNL     1       3.044  13.847  20.826  0.00  0.00    +0.000 A 
ATOM     17  N   UNL     1       2.043  13.573  19.925  0.00  0.00    +0.000 N 
ATOM     18  C   UNL     1       2.328  12.976  18.645  0.00  0.00    +0.000 C 
ENDBRANCH  12  13
ENDBRANCH   7  12
ENDBRANCH   1   7
BRANCH   5  19
ATOM     19  N   UNL     1       1.298   8.096  20.533  0.00  0.00    +0.000 N 
ATOM     20  C   UNL     1       1.916   8.075  19.289  0.00  0.00    +0.000 C 
ATOM     21  O   UNL     1       1.900   8.963  18.444  0.00  0.00    +0.000 OA
ATOM     22  H   UNL     1       1.433   7.254  21.090  0.00  0.00    +0.000 HD
BRANCH  20  23
ATOM     23  C   UNL     1       2.679   6.826  18.994  0.00  0.00    +0.000 A 
ATOM     24  C   UNL     1       3.610   6.832  17.965  0.00  0.00    +0.000 A 
ATOM     25  C   UNL     1       4.311   5.663  17.716  0.00  0.00    +0.000 A 
ATOM     26  C   UNL     1       4.053   4.545  18.504  0.00  0.00    +0.000 A 
ATOM     27  C   UNL     1       3.107   4.609  19.530  0.00  0.00    +0.000 A 
ATOM     28  N   UNL     1       2.412   5.747  19.777  0.00  0.00    +0.000 NA
BRANCH  27  29
ATOM     29  C   UNL     1       2.809   3.410  20.393  0.00  0.00    +0.000 C 
ATOM     30  C   UNL     1       1.642   2.523  20.015  0.00  0.00    +0.000 C 
ATOM     31  C   UNL     1       1.577   3.345  21.266  0.00  0.00    +0.000 C 
ENDBRANCH  27  29
ENDBRANCH  20  23
ENDBRANCH   5  19
TORSDOF 6
ENDMDL
MODEL 4
REMARK VINA RESULT:      -8.2      0.710      1.375
REMARK  Name = 
REMARK  8 active torsions:
REMARK  status: ('A' for Active; 'I' for Inactive)
REMARK    1  A    between atoms: C_1  and  C_2
REMARK    2  A    between atoms: C_2  and  C_3
REMARK    3  A    between atoms: C_2  and  C_9
REMARK    4  A    between atoms: N_7  and  C_8
REMARK    5  A    between atoms: C_9  and  C_10
REMARK    6  A    between atoms: C_14  and  N_15
REMARK    7  A    between atoms: C_16  and  C_18
REMARK    8  A    between atoms: C_22  and  C_23
REMARK                            x       y       z     vdW  Elec       q    Type
REMARK                         _______ _______ _______ _____ _____    ______ ____
ROOT
ATOM      1  C   UNL     1       2.856   5.946  19.077  0.00  0.00    +0.000 A 
ATOM      2  C   UNL     1       3.390   6.439  17.869  0.00  0.00    +0.000 A 
ATOM      3  C   UNL     1       3.143   7.730  17.424  0.00  0.00    +0.000 A 
ATOM      4  C   UNL     1       2.371   8.587  18.195  0.00  0.00    +0.000 A 
ATOM      5  C   UNL     1       1.872   8.183  19.432  0.00  0.00    +0.000 A 
ATOM      6  C   UNL     1       2.128   6.871  19.864  0.00  0.00    +0.000 A 
ENDROOT
BRANCH   1   7
ATOM      7  C   UNL     1       2.943   4.357  19.415  0.00  0.00    +0.000 C 
ATOM      8  C   UNL     1       2.021   3.841  20.598  0.00  0.00    +0.000 C 
ATOM      9  C   UNL     1       0.874   3.730  19.577  0.00  0.00    +0.000 C 
ATOM     10  C   UNL     1       1.956   3.488  18.508  0.00  0.00    +0.000 C 
BRANCH   7  12
ATOM     11  C   UNL     1       4.473   2.349  19.970  0.00  0.00    +0.000 C 
ATOM     12  C   UNL     1       4.387   3.787  19.460  0.00  0.00    +0.000 C 
BRANCH  12  13
ATOM     13  C   UNL     1       5.237   4.065  18.245  0.00  0.00    +0.000 A 
ATOM     14  C   UNL     1       5.000   3.604  16.957  0.00  0.00    +0.000 A 
ATOM     15  N   UNL     1       5.966   4.005  16.081  0.00  0.00    +0.000 NA
ATOM     16  C   UNL     1       6.788   4.725  16.802  0.00  0.00    +0.000 A 
ATOM     17  N   UNL     1       6.383   4.816  18.112  0.00  0.00    +0.000 N 
ATOM     18  C   UNL     1       7.113   5.607  19.070  0.00  0.00    +0.000 C 
ENDBRANCH  12  13
ENDBRANCH   7  12
ENDBRANCH   1   7
BRANCH   5  19
ATOM     19  N   UNL     1       1.089   9.026  20.250  0.00  0.00    +0.000 N 
ATOM     20  C   UNL     1       0.119   9.921  19.819  0.00  0.00    +0.000 C 
ATOM     21  O   UNL     1      -0.193  10.168  18.659  0.00  0.00    +0.000 OA
ATOM     22  H   UNL     1       1.196   8.966  21.261  0.00  0.00    +0.000 HD
BRANCH  20  23
ATOM     23  C   UNL     1      -0.606  10.629  20.917  0.00  0.00    +0.000 A 
ATOM     24  C   UNL     1      -0.479  10.163  22.218  0.00  0.00    +0.000 A 
ATOM     25  C   UNL     1      -1.155  10.841  23.219  0.00  0.00    +0.000 A 
ATOM     26  C   UNL     1      -1.922  11.952  22.879  0.00  0.00    +0.000 A 
ATOM     27  C   UNL     1      -2.001  12.372  21.549  0.00  0.00    +0.000 A 
ATOM     28  N   UNL     1      -1.348  11.711  20.560  0.00  0.00    +0.000 NA
BRANCH  27  29
ATOM     29  C   UNL     1      -2.829  13.569  21.155  0.00  0.00    +0.000 C 
ATOM     30  C   UNL     1      -2.323  14.946  21.524  0.00  0.00    +0.000 C 
ATOM     31  C   UNL     1      -3.556  14.405  22.182  0.00  0.00    +0.000 C 
ENDBRANCH  27  29
ENDBRANCH  20  23
ENDBRANCH   5  19
TORSDOF 6
ENDMDL
MODEL 5
REMARK VINA RESULT:      -8.1      2.551      9.239
REMARK  Name = 
REMARK  8 active torsions:
REMARK  status: ('A' for Active; 'I' for Inactive)
REMARK    1  A    between atoms: C_1  and  C_2
REMARK    2  A    between atoms: C_2  and  C_3
REMARK    3  A    between atoms: C_2  and  C_9
REMARK    4  A    between atoms: N_7  and  C_8
REMARK    5  A    between atoms: C_9  and  C_10
REMARK    6  A    between atoms: C_14  and  N_15
REMARK    7  A    between atoms: C_16  and  C_18
REMARK    8  A    between atoms: C_22  and  C_23
REMARK                            x       y       z     vdW  Elec       q    Type
REMARK                         _______ _______ _______ _____ _____    ______ ____
ROOT
ATOM      1  C   UNL     1      -0.511  11.120  20.431  0.00  0.00    +0.000 A 
ATOM      2  C   UNL     1      -0.520  11.189  21.839  0.00  0.00    +0.000 A 
ATOM      3  C   UNL     1       0.058  10.208  22.631  0.00  0.00    +0.000 A 
ATOM      4  C   UNL     1       0.696   9.130  22.033  0.00  0.00    +0.000 A 
ATOM      5  C   UNL     1       0.800   9.039  20.646  0.00  0.00    +0.000 A 
ATOM      6  C   UNL     1       0.204  10.040  19.861  0.00  0.00    +0.000 A 
ENDROOT
BRANCH   1   7
ATOM      7  C   UNL     1      -1.434  12.140  19.562  0.00  0.00    +0.000 C 
ATOM      8  C   UNL     1      -1.461  13.649  20.050  0.00  0.00    +0.000 C 
ATOM      9  C   UNL     1      -0.167  13.871  19.247  0.00  0.00    +0.000 C 
ATOM     10  C   UNL     1      -0.652  12.750  18.309  0.00  0.00    +0.000 C 
BRANCH   7  12
ATOM     11  C   UNL     1      -3.998  12.428  19.708  0.00  0.00    +0.000 C 
ATOM     12  C   UNL     1      -2.835  11.583  19.190  0.00  0.00    +0.000 C 
BRANCH  12  13
ATOM     13  C   UNL     1      -2.995  11.117  17.764  0.00  0.00    +0.000 A 
ATOM     14  C   UNL     1      -2.116  10.302  17.065  0.00  0.00    +0.000 A 
ATOM     15  N   UNL     1      -2.526  10.082  15.783  0.00  0.00    +0.000 NA
ATOM     16  C   UNL     1      -3.659  10.731  15.681  0.00  0.00    +0.000 A 
ATOM     17  N   UNL     1      -4.004  11.355  16.857  0.00  0.00    +0.000 N 
ATOM     18  C   UNL     1      -5.241  12.083  16.985  0.00  0.00    +0.000 C 
ENDBRANCH  12  13
ENDBRANCH   7  12
ENDBRANCH   1   7
BRANCH   5  19
ATOM     19  N   UNL     1       1.447   7.964  20.000  0.00  0.00    +0.000 N 
ATOM     20  C   UNL     1       2.178   8.030  18.822  0.00  0.00    +0.000 C 
ATOM     21  O   UNL     1       2.350   9.017  18.116  0.00  0.00    +0.000 OA
ATOM     22  H   UNL     1       1.426   7.045  20.439  0.00  0.00    +0.000 HD
BRANCH  20  23
ATOM     23  C   UNL     1       2.815   6.743  18.412  0.00  0.00    +0.000 A 
ATOM     24  C   UNL     1       3.878   6.771  17.520  0.00  0.00    +0.000 A 
ATOM     25  C   UNL     1       4.457   5.565  17.161  0.00  0.00    +0.000 A 
ATOM     26  C   UNL     1       3.953   4.388  17.709  0.00  0.00    +0.000 A 
ATOM     27  C   UNL     1       2.885   4.431  18.608  0.00  0.00    +0.000 A 
ATOM     28  N   UNL     1       2.307   5.607  18.961  0.00  0.00    +0.000 NA
BRANCH  27  29
ATOM     29  C   UNL     1       2.319   3.170  19.211  0.00  0.00    +0.000 C 
ATOM     30  C   UNL     1       1.015   2.634  18.663  0.00  0.00    +0.000 C 
ATOM     31  C   UNL     1       1.067   3.185  20.056  0.00  0.00    +0.000 C 
ENDBRANCH  27  29
ENDBRANCH  20  23
ENDBRANCH   5  19
TORSDOF 6
ENDMDL
MODEL 6
REMARK VINA RESULT:      -8.1      5.277      8.212
REMARK  Name = 
REMARK  8 active torsions:
REMARK  status: ('A' for Active; 'I' for Inactive)
REMARK    1  A    between atoms: C_1  and  C_2
REMARK    2  A    between atoms: C_2  and  C_3
REMARK    3  A    between atoms: C_2  and  C_9
REMARK    4  A    between atoms: N_7  and  C_8
REMARK    5  A    between atoms: C_9  and  C_10
REMARK    6  A    between atoms: C_14  and  N_15
REMARK    7  A    between atoms: C_16  and  C_18
REMARK    8  A    between atoms: C_22  and  C_23
REMARK                            x       y       z     vdW  Elec       q    Type
REMARK                         _______ _______ _______ _____ _____    ______ ____
ROOT
ATOM      1  C   UNL     1       6.118   6.568  17.914  0.00  0.00    +0.000 A 
ATOM      2  C   UNL     1       6.856   5.653  18.694  0.00  0.00    +0.000 A 
ATOM      3  C   UNL     1       8.116   5.953  19.190  0.00  0.00    +0.000 A 
ATOM      4  C   UNL     1       8.672   7.201  18.946  0.00  0.00    +0.000 A 
ATOM      5  C   UNL     1       7.965   8.174  18.242  0.00  0.00    +0.000 A 
ATOM      6  C   UNL     1       6.693   7.851  17.742  0.00  0.00    +0.000 A 
ENDROOT
BRANCH   1   7
ATOM      7  C   UNL     1       4.782   6.074  17.130  0.00  0.00    +0.000 C 
ATOM      8  C   UNL     1       4.573   6.651  15.667  0.00  0.00    +0.000 C 
ATOM      9  C   UNL     1       5.491   5.526  15.155  0.00  0.00    +0.000 C 
ATOM     10  C   UNL     1       5.005   4.693  16.357  0.00  0.00    +0.000 C 
BRANCH   7  12
ATOM     11  C   UNL     1       2.555   7.258  17.696  0.00  0.00    +0.000 C 
ATOM     12  C   UNL     1       3.489   6.085  17.990  0.00  0.00    +0.000 C 
BRANCH  12  13
ATOM     13  C   UNL     1       2.788   4.756  18.133  0.00  0.00    +0.000 A 
ATOM     14  C   UNL     1       1.589   4.393  17.534  0.00  0.00    +0.000 A 
ATOM     15  N   UNL     1       1.202   3.133  17.880  0.00  0.00    +0.000 NA
ATOM     16  C   UNL     1       2.153   2.698  18.668  0.00  0.00    +0.000 A 
ATOM     17  N   UNL     1       3.151   3.628  18.835  0.00  0.00    +0.000 N 
ATOM     18  C   UNL     1       4.323   3.338  19.621  0.00  0.00    +0.000 C 
ENDBRANCH  12  13
ENDBRANCH   7  12
ENDBRANCH   1   7
BRANCH   5  19
ATOM     19  N   UNL     1       8.492   9.456  17.979  0.00  0.00    +0.000 N 
ATOM     20  C   UNL     1       9.067  10.317  18.904  0.00  0.00    +0.000 C 
ATOM     21  O   UNL     1       9.175  10.134  20.112  0.00  0.00    +0.000 OA
ATOM     22  H   UNL     1       8.502   9.795  17.018  0.00  0.00    +0.000 HD
BRANCH  20  23
ATOM     23  C   UNL     1       9.609  11.582  18.325  0.00  0.00    +0.000 A 
ATOM     24  C   UNL     1      10.858  11.565  17.719  0.00  0.00    +0.000 A 
ATOM     25  C   UNL     1      11.336  12.750  17.183  0.00  0.00    +0.000 A 
ATOM     26  C   UNL     1      10.547  13.894  17.271  0.00  0.00    +0.000 A 
ATOM     27  C   UNL     1       9.295  13.840  17.888  0.00  0.00    +0.000 A 
ATOM     28  N   UNL     1       8.821  12.686  18.422  0.00  0.00    +0.000 NA
BRANCH  27  29
ATOM     29  C   UNL     1       8.425  15.066  17.999  0.00  0.00    +0.000 C 
ATOM     30  C   UNL     1       8.823  16.143  18.984  0.00  0.00    +0.000 C 
ATOM     31  C   UNL     1       7.584  15.336  19.224  0.00  0.00    +0.000 C 
ENDBRANCH  27  29
ENDBRANCH  20  23
ENDBRANCH   5  19
TORSDOF 6
ENDMDL
MODEL 7
REMARK VINA RESULT:      -8.0      1.596      2.143
REMARK  Name = 
REMARK  8 active torsions:
REMARK  status: ('A' for Active; 'I' for Inactive)
REMARK    1  A    between atoms: C_1  and  C_2
REMARK    2  A    between atoms: C_2  and  C_3
REMARK    3  A    between atoms: C_2  and  C_9
REMARK    4  A    between atoms: N_7  and  C_8
REMARK    5  A    between atoms: C_9  and  C_10
REMARK    6  A    between atoms: C_14  and  N_15
REMARK    7  A    between atoms: C_16  and  C_18
REMARK    8  A    between atoms: C_22  and  C_23
REMARK                            x       y       z     vdW  Elec       q    Type
REMARK                         _______ _______ _______ _____ _____    ______ ____
ROOT
ATOM      1  C   UNL     1       2.822   6.104  19.127  0.00  0.00    +0.000 A 
ATOM      2  C   UNL     1       3.358   6.471  17.876  0.00  0.00    +0.000 A 
ATOM      3  C   UNL     1       3.130   7.716  17.310  0.00  0.00    +0.000 A 
ATOM      4  C   UNL     1       2.374   8.656  17.997  0.00  0.00    +0.000 A 
ATOM      5  C   UNL     1       1.875   8.380  19.269  0.00  0.00    +0.000 A 
ATOM      6  C   UNL     1       2.112   7.112  19.824  0.00  0.00    +0.000 A 
ENDROOT
BRANCH   1   7
ATOM      7  C   UNL     1       2.886   4.554  19.615  0.00  0.00    +0.000 C 
ATOM      8  C   UNL     1       2.073   4.200  20.931  0.00  0.00    +0.000 C 
ATOM      9  C   UNL     1       0.823   4.043  20.047  0.00  0.00    +0.000 C 
ATOM     10  C   UNL     1       1.778   3.647  18.906  0.00  0.00    +0.000 C 
BRANCH   7  12
ATOM     11  C   UNL     1       4.380   2.520  20.173  0.00  0.00    +0.000 C 
ATOM     12  C   UNL     1       4.304   3.924  19.575  0.00  0.00    +0.000 C 
BRANCH  12  13
ATOM     13  C   UNL     1       5.052   4.082  18.273  0.00  0.00    +0.000 A 
ATOM     14  C   UNL     1       4.677   3.558  17.044  0.00  0.00    +0.000 A 
ATOM     15  N   UNL     1       5.576   3.853  16.063  0.00  0.00    +0.000 NA
ATOM     16  C   UNL     1       6.494   4.573  16.659  0.00  0.00    +0.000 A 
ATOM     17  N   UNL     1       6.215   4.764  17.991  0.00  0.00    +0.000 N 
ATOM     18  C   UNL     1       7.065   5.573  18.827  0.00  0.00    +0.000 C 
ENDBRANCH  12  13
ENDBRANCH   7  12
ENDBRANCH   1   7
BRANCH   5  19
ATOM     19  N   UNL     1       1.108   9.310  20.004  0.00  0.00    +0.000 N 
ATOM     20  C   UNL     1       1.013   9.389  21.387  0.00  0.00    +0.000 C 
ATOM     21  O   UNL     1       1.537   8.642  22.205  0.00  0.00    +0.000 OA
ATOM     22  H   UNL     1       0.596  10.031  19.498  0.00  0.00    +0.000 HD
BRANCH  20  23
ATOM     23  C   UNL     1       0.185  10.526  21.889  0.00  0.00    +0.000 A 
ATOM     24  C   UNL     1      -0.829  10.270  22.801  0.00  0.00    +0.000 A 
ATOM     25  C   UNL     1      -1.578  11.342  23.259  0.00  0.00    +0.000 A 
ATOM     26  C   UNL     1      -1.281  12.618  22.789  0.00  0.00    +0.000 A 
ATOM     27  C   UNL     1      -0.240  12.808  21.876  0.00  0.00    +0.000 A 
ATOM     28  N   UNL     1       0.495  11.763  21.418  0.00  0.00    +0.000 NA
BRANCH  27  29
ATOM     29  C   UNL     1       0.098  14.180  21.351  0.00  0.00    +0.000 C 
ATOM     30  C   UNL     1      -0.727  14.737  20.212  0.00  0.00    +0.000 C 
ATOM     31  C   UNL     1       0.710  14.379  19.984  0.00  0.00    +0.000 C 
ENDBRANCH  27  29
ENDBRANCH  20  23
ENDBRANCH   5  19
TORSDOF 6
ENDMDL
MODEL 8
REMARK VINA RESULT:      -8.0      2.595      9.223
REMARK  Name = 
REMARK  8 active torsions:
REMARK  status: ('A' for Active; 'I' for Inactive)
REMARK    1  A    between atoms: C_1  and  C_2
REMARK    2  A    between atoms: C_2  and  C_3
REMARK    3  A    between atoms: C_2  and  C_9
REMARK    4  A    between atoms: N_7  and  C_8
REMARK    5  A    between atoms: C_9  and  C_10
REMARK    6  A    between atoms: C_14  and  N_15
REMARK    7  A    between atoms: C_16  and  C_18
REMARK    8  A    between atoms: C_22  and  C_23
REMARK                            x       y       z     vdW  Elec       q    Type
REMARK                         _______ _______ _______ _____ _____    ______ ____
ROOT
ATOM      1  C   UNL     1      -0.430  11.306  20.428  0.00  0.00    +0.000 A 
ATOM      2  C   UNL     1      -0.725  11.016  21.776  0.00  0.00    +0.000 A 
ATOM      3  C   UNL     1      -0.247   9.879  22.410  0.00  0.00    +0.000 A 
ATOM      4  C   UNL     1       0.575   9.001  21.718  0.00  0.00    +0.000 A 
ATOM      5  C   UNL     1       0.961   9.266  20.406  0.00  0.00    +0.000 A 
ATOM      6  C   UNL     1       0.463  10.419  19.778  0.00  0.00    +0.000 A 
ENDROOT
BRANCH   1   7
ATOM      7  C   UNL     1      -1.232  12.492  19.658  0.00  0.00    +0.000 C 
ATOM      8  C   UNL     1      -1.462  12.287  18.101  0.00  0.00    +0.000 C 
ATOM      9  C   UNL     1      -2.705  11.450  18.455  0.00  0.00    +0.000 C 
ATOM     10  C   UNL     1      -2.817  12.304  19.733  0.00  0.00    +0.000 C 
BRANCH   7  12
ATOM     11  C   UNL     1      -1.791  14.713  20.858  0.00  0.00    +0.000 C 
ATOM     12  C   UNL     1      -0.773  13.928  20.031  0.00  0.00    +0.000 C 
BRANCH  12  13
ATOM     13  C   UNL     1       0.649  14.052  20.521  0.00  0.00    +0.000 A 
ATOM     14  C   UNL     1       1.046  14.366  21.814  0.00  0.00    +0.000 A 
ATOM     15  N   UNL     1       2.403  14.429  21.935  0.00  0.00    +0.000 NA
ATOM     16  C   UNL     1       2.856  14.137  20.741  0.00  0.00    +0.000 A 
ATOM     17  N   UNL     1       1.840  13.875  19.853  0.00  0.00    +0.000 N 
ATOM     18  C   UNL     1       2.115  13.480  18.495  0.00  0.00    +0.000 C 
ENDBRANCH  12  13
ENDBRANCH   7  12
ENDBRANCH   1   7
BRANCH   5  19
ATOM     19  N   UNL     1       1.800   8.402  19.670  0.00  0.00    +0.000 N 
ATOM     20  C   UNL     1       1.995   7.046  19.902  0.00  0.00    +0.000 C 
ATOM     21  O   UNL     1       1.510   6.378  20.808  0.00  0.00    +0.000 OA
ATOM     22  H   UNL     1       2.295   8.771  18.860  0.00  0.00    +0.000 HD
BRANCH  20  23
ATOM     23  C   UNL     1       2.885   6.367  18.914  0.00  0.00    +0.000 A 
ATOM     24  C   UNL     1       3.528   7.130  17.950  0.00  0.00    +0.000 A 
ATOM     25  C   UNL     1       4.354   6.477  17.050  0.00  0.00    +0.000 A 
ATOM     26  C   UNL     1       4.504   5.097  17.154  0.00  0.00    +0.000 A 
ATOM     27  C   UNL     1       3.832   4.389  18.154  0.00  0.00    +0.000 A 
ATOM     28  N   UNL     1       3.016   5.019  19.036  0.00  0.00    +0.000 NA
BRANCH  27  29
ATOM     29  C   UNL     1       3.975   2.894  18.283  0.00  0.00    +0.000 C 
ATOM     30  C   UNL     1       2.865   2.017  17.747  0.00  0.00    +0.000 C 
ATOM     31  C   UNL     1       3.108   2.091  19.224  0.00  0.00    +0.000 C 
ENDBRANCH  27  29
ENDBRANCH  20  23
ENDBRANCH   5  19
TORSDOF 6
ENDMDL
MODEL 9
REMARK VINA RESULT:      -8.0      2.570      8.880
REMARK  Name = 
REMARK  8 active torsions:
REMARK  status: ('A' for Active; 'I' for Inactive)
REMARK    1  A    between atoms: C_1  and  C_2
REMARK    2  A    between atoms: C_2  and  C_3
REMARK    3  A    between atoms: C_2  and  C_9
REMARK    4  A    between atoms: N_7  and  C_8
REMARK    5  A    between atoms: C_9  and  C_10
REMARK    6  A    between atoms: C_14  and  N_15
REMARK    7  A    between atoms: C_16  and  C_18
REMARK    8  A    between atoms: C_22  and  C_23
REMARK                            x       y       z     vdW  Elec       q    Type
REMARK                         _______ _______ _______ _____ _____    ______ ____
ROOT
ATOM      1  C   UNL     1      -0.167  10.523  20.334  0.00  0.00    +0.000 A 
ATOM      2  C   UNL     1      -0.560  10.453  21.686  0.00  0.00    +0.000 A 
ATOM      3  C   UNL     1      -0.114   9.451  22.535  0.00  0.00    +0.000 A 
ATOM      4  C   UNL     1       0.774   8.495  22.063  0.00  0.00    +0.000 A 
ATOM      5  C   UNL     1       1.256   8.549  20.756  0.00  0.00    +0.000 A 
ATOM      6  C   UNL     1       0.788   9.568  19.909  0.00  0.00    +0.000 A 
ENDROOT
BRANCH   1   7
ATOM      7  C   UNL     1      -0.927  11.542  19.319  0.00  0.00    +0.000 C 
ATOM      8  C   UNL     1      -0.897  11.151  17.782  0.00  0.00    +0.000 C 
ATOM      9  C   UNL     1      -2.112  10.245  18.048  0.00  0.00    +0.000 C 
ATOM     10  C   UNL     1      -2.485  11.216  19.185  0.00  0.00    +0.000 C 
BRANCH   7  12
ATOM     11  C   UNL     1      -1.781  13.783  20.283  0.00  0.00    +0.000 C 
ATOM     12  C   UNL     1      -0.641  13.045  19.582  0.00  0.00    +0.000 C 
BRANCH  12  13
ATOM     13  C   UNL     1       0.730  13.364  20.127  0.00  0.00    +0.000 A 
ATOM     14  C   UNL     1       1.017  13.830  21.402  0.00  0.00    +0.000 A 
ATOM     15  N   UNL     1       2.350  14.050  21.582  0.00  0.00    +0.000 NA
ATOM     16  C   UNL     1       2.900  13.706  20.444  0.00  0.00    +0.000 A 
ATOM     17  N   UNL     1       1.970  13.259  19.536  0.00  0.00    +0.000 N 
ATOM     18  C   UNL     1       2.362  12.779  18.235  0.00  0.00    +0.000 C 
ENDBRANCH  12  13
ENDBRANCH   7  12
ENDBRANCH   1   7
BRANCH   5  19
ATOM     19  N   UNL     1       2.164   7.600  20.239  0.00  0.00    +0.000 N 
ATOM     20  C   UNL     1       2.025   6.220  20.280  0.00  0.00    +0.000 C 
ATOM     21  O   UNL     1       1.119   5.586  20.810  0.00  0.00    +0.000 OA
ATOM     22  H   UNL     1       2.992   7.932  19.747  0.00  0.00    +0.000 HD
BRANCH  20  23
ATOM     23  C   UNL     1       3.109   5.464  19.584  0.00  0.00    +0.000 A 
ATOM     24  C   UNL     1       3.309   4.128  19.901  0.00  0.00    +0.000 A 
ATOM     25  C   UNL     1       4.316   3.446  19.236  0.00  0.00    +0.000 A 
ATOM     26  C   UNL     1       5.073   4.126  18.286  0.00  0.00    +0.000 A 
ATOM     27  C   UNL     1       4.813   5.470  18.009  0.00  0.00    +0.000 A 
ATOM     28  N   UNL     1       3.834   6.148  18.659  0.00  0.00    +0.000 NA
BRANCH  27  29
ATOM     29  C   UNL     1       5.622   6.228  16.987  0.00  0.00    +0.000 C 
ATOM     30  C   UNL     1       5.326   5.998  15.521  0.00  0.00    +0.000 C 
ATOM     31  C   UNL     1       6.629   5.537  16.099  0.00  0.00    +0.000 C 
ENDBRANCH  27  29
ENDBRANCH  20  23
ENDBRANCH   5  19
TORSDOF 6
ENDMDL
