MODEL 1
REMARK VINA RESULT:      -8.7      0.000      0.000
REMARK  Name = 
REMARK  5 active torsions:
REMARK  status: ('A' for Active; 'I' for Inactive)
REMARK    1  A    between atoms: S_2  and  N_4
REMARK    2  A    between atoms: S_2  and  C_19
REMARK    3  A    between atoms: N_4  and  C_5
REMARK    4  A    between atoms: C_9  and  C_10
REMARK    5  A    between atoms: N_14  and  C_15
REMARK                            x       y       z     vdW  Elec       q    Type
REMARK                         _______ _______ _______ _____ _____    ______ ____
ROOT
ATOM      1  C   UNL     1       5.192   3.825  17.363  0.00  0.00    +0.000 A 
ATOM      2  C   UNL     1       5.709   4.600  18.395  0.00  0.00    +0.000 A 
ATOM      3  C   UNL     1       6.721   5.520  18.127  0.00  0.00    +0.000 A 
ATOM      4  C   UNL     1       7.208   5.670  16.825  0.00  0.00    +0.000 A 
ATOM      5  C   UNL     1       6.659   4.946  15.758  0.00  0.00    +0.000 A 
ATOM      6  C   UNL     1       5.641   4.014  16.056  0.00  0.00    +0.000 A 
ENDROOT
BRANCH   5   7
ATOM      7  C   UNL     1       7.160   5.009  14.376  0.00  0.00    +0.000 A 
ATOM      8  N   UNL     1       8.184   5.770  14.009  0.00  0.00    +0.000 NA
ATOM      9  N   UNL     1       8.311   5.662  12.653  0.00  0.00    +0.000 NA
ATOM     10  N   UNL     1       7.404   4.840  12.160  0.00  0.00    +0.000 NA
ATOM     11  N   UNL     1       6.711   4.385  13.222  0.00  0.00    +0.000 N 
BRANCH  11  12
ATOM     12  C   UNL     1       5.690   3.365  13.068  0.00  0.00    +0.000 C 
ATOM     13  C   UNL     1       5.636   2.447  11.856  0.00  0.00    +0.000 C 
ATOM     14  C   UNL     1       4.612   3.517  12.001  0.00  0.00    +0.000 C 
ENDBRANCH  11  12
ENDBRANCH   5   7
BRANCH   1  15
ATOM     15  N   UNL     1       4.283   2.780  17.669  0.00  0.00    +0.000 N 
ATOM     16  H   UNL     1       4.551   1.818  17.469  0.00  0.00    +0.000 HD
BRANCH  15  18
ATOM     17  O   UNL     1       2.208   3.314  16.335  0.00  0.00    +0.000 OA
ATOM     18  S   UNL     1       2.624   3.041  17.692  0.00  0.00    +0.000 S 
ATOM     19  O   UNL     1       2.009   1.966  18.446  0.00  0.00    +0.000 OA
BRANCH  18  20
ATOM     20  C   UNL     1       2.433   4.543  18.621  0.00  0.00    +0.000 A 
ATOM     21  C   UNL     1       2.440   5.756  17.914  0.00  0.00    +0.000 A 
ATOM     22  C   UNL     1       2.303   6.967  18.592  0.00  0.00    +0.000 A 
ATOM     23  C   UNL     1       2.161   6.976  19.977  0.00  0.00    +0.000 A 
ATOM     24  C   UNL     1       2.171   5.773  20.686  0.00  0.00    +0.000 A 
ATOM     25  C   UNL     1       2.315   4.550  20.015  0.00  0.00    +0.000 A 
ATOM     26 BR   UNL     1       2.322   2.998  21.110  0.00  0.00    +0.000 Br
ENDBRANCH  18  20
ENDBRANCH  15  18
ENDBRANCH   1  15
TORSDOF 5
ENDMDL
MODEL 2
REMARK VINA RESULT:      -8.6      1.493      2.036
REMARK  Name = 
REMARK  5 active torsions:
REMARK  status: ('A' for Active; 'I' for Inactive)
REMARK    1  A    between atoms: S_2  and  N_4
REMARK    2  A    between atoms: S_2  and  C_19
REMARK    3  A    between atoms: N_4  and  C_5
REMARK    4  A    between atoms: C_9  and  C_10
REMARK    5  A    between atoms: N_14  and  C_15
REMARK                            x       y       z     vdW  Elec       q    Type
REMARK                         _______ _______ _______ _____ _____    ______ ____
ROOT
ATOM      1  C   UNL     1       4.710   5.166  17.156  0.00  0.00    +0.000 A 
ATOM      2  C   UNL     1       5.476   4.772  18.246  0.00  0.00    +0.000 A 
ATOM      3  C   UNL     1       6.819   4.446  18.065  0.00  0.00    +0.000 A 
ATOM      4  C   UNL     1       7.396   4.524  16.793  0.00  0.00    +0.000 A 
ATOM      5  C   UNL     1       6.660   4.980  15.691  0.00  0.00    +0.000 A 
ATOM      6  C   UNL     1       5.300   5.296  15.898  0.00  0.00    +0.000 A 
ENDROOT
BRANCH   5   7
ATOM      7  C   UNL     1       7.183   5.031  14.316  0.00  0.00    +0.000 A 
ATOM      8  N   UNL     1       8.213   5.789  13.959  0.00  0.00    +0.000 NA
ATOM      9  N   UNL     1       8.361   5.670  12.606  0.00  0.00    +0.000 NA
ATOM     10  N   UNL     1       7.461   4.844  12.106  0.00  0.00    +0.000 NA
ATOM     11  N   UNL     1       6.752   4.398  13.160  0.00  0.00    +0.000 N 
BRANCH  11  12
ATOM     12  C   UNL     1       5.731   3.379  12.999  0.00  0.00    +0.000 C 
ATOM     13  C   UNL     1       5.689   2.458  11.788  0.00  0.00    +0.000 C 
ATOM     14  C   UNL     1       4.663   3.528  11.921  0.00  0.00    +0.000 C 
ENDBRANCH  11  12
ENDBRANCH   5   7
BRANCH   1  15
ATOM     15  N   UNL     1       3.311   5.338  17.317  0.00  0.00    +0.000 N 
ATOM     16  H   UNL     1       2.965   6.198  17.740  0.00  0.00    +0.000 HD
BRANCH  15  18
ATOM     17  O   UNL     1       0.964   4.443  17.070  0.00  0.00    +0.000 OA
ATOM     18  S   UNL     1       2.282   4.022  17.491  0.00  0.00    +0.000 S 
ATOM     19  O   UNL     1       2.916   2.871  16.879  0.00  0.00    +0.000 OA
BRANCH  18  20
ATOM     20  C   UNL     1       2.220   3.748  19.245  0.00  0.00    +0.000 A 
ATOM     21  C   UNL     1       2.129   2.423  19.698  0.00  0.00    +0.000 A 
ATOM     22  C   UNL     1       2.068   2.148  21.064  0.00  0.00    +0.000 A 
ATOM     23  C   UNL     1       2.095   3.192  21.984  0.00  0.00    +0.000 A 
ATOM     24  C   UNL     1       2.167   4.513  21.538  0.00  0.00    +0.000 A 
ATOM     25  C   UNL     1       2.222   4.801  20.167  0.00  0.00    +0.000 A 
ATOM     26 BR   UNL     1       2.306   6.642  19.707  0.00  0.00    +0.000 Br
ENDBRANCH  18  20
ENDBRANCH  15  18
ENDBRANCH   1  15
TORSDOF 5
ENDMDL
MODEL 3
REMARK VINA RESULT:      -8.5      1.859      2.376
REMARK  Name = 
REMARK  5 active torsions:
REMARK  status: ('A' for Active; 'I' for Inactive)
REMARK    1  A    between atoms: S_2  and  N_4
REMARK    2  A    between atoms: S_2  and  C_19
REMARK    3  A    between atoms: N_4  and  C_5
REMARK    4  A    between atoms: C_9  and  C_10
REMARK    5  A    between atoms: N_14  and  C_15
REMARK                            x       y       z     vdW  Elec       q    Type
REMARK                         _______ _______ _______ _____ _____    ______ ____
ROOT
ATOM      1  C   UNL     1       5.385   4.326  17.911  0.00  0.00    +0.000 A 
ATOM      2  C   UNL     1       4.556   5.416  18.142  0.00  0.00    +0.000 A 
ATOM      3  C   UNL     1       4.453   6.421  17.181  0.00  0.00    +0.000 A 
ATOM      4  C   UNL     1       5.175   6.329  15.987  0.00  0.00    +0.000 A 
ATOM      5  C   UNL     1       5.968   5.208  15.705  0.00  0.00    +0.000 A 
ATOM      6  C   UNL     1       6.063   4.208  16.697  0.00  0.00    +0.000 A 
ENDROOT
BRANCH   5   7
ATOM      7  C   UNL     1       6.799   5.070  14.498  0.00  0.00    +0.000 A 
ATOM      8  N   UNL     1       7.949   5.712  14.332  0.00  0.00    +0.000 NA
ATOM      9  N   UNL     1       8.397   5.433  13.072  0.00  0.00    +0.000 NA
ATOM     10  N   UNL     1       7.566   4.620  12.447  0.00  0.00    +0.000 NA
ATOM     11  N   UNL     1       6.592   4.343  13.335  0.00  0.00    +0.000 N 
BRANCH  11  12
ATOM     12  C   UNL     1       5.547   3.384  13.027  0.00  0.00    +0.000 C 
ATOM     13  C   UNL     1       5.598   2.500  11.789  0.00  0.00    +0.000 C 
ATOM     14  C   UNL     1       4.618   3.619  11.842  0.00  0.00    +0.000 C 
ENDBRANCH  11  12
ENDBRANCH   5   7
BRANCH   1  15
ATOM     15  N   UNL     1       5.611   3.393  18.956  0.00  0.00    +0.000 N 
ATOM     16  H   UNL     1       6.557   3.274  19.314  0.00  0.00    +0.000 HD
BRANCH  15  18
ATOM     17  O   UNL     1       4.325   1.526  17.848  0.00  0.00    +0.000 OA
ATOM     18  S   UNL     1       4.623   2.051  19.161  0.00  0.00    +0.000 S 
ATOM     19  O   UNL     1       5.221   1.202  20.173  0.00  0.00    +0.000 OA
BRANCH  18  20
ATOM     20  C   UNL     1       3.116   2.719  19.824  0.00  0.00    +0.000 A 
ATOM     21  C   UNL     1       2.960   2.724  21.219  0.00  0.00    +0.000 A 
ATOM     22  C   UNL     1       1.793   3.228  21.795  0.00  0.00    +0.000 A 
ATOM     23  C   UNL     1       0.778   3.727  20.984  0.00  0.00    +0.000 A 
ATOM     24  C   UNL     1       0.922   3.708  19.595  0.00  0.00    +0.000 A 
ATOM     25  C   UNL     1       2.087   3.198  19.005  0.00  0.00    +0.000 A 
ATOM     26 BR   UNL     1       2.138   3.226  17.107  0.00  0.00    +0.000 Br
ENDBRANCH  18  20
ENDBRANCH  15  18
ENDBRANCH   1  15
TORSDOF 5
ENDMDL
MODEL 4
REMARK VINA RESULT:      -8.3      1.528      1.976
REMARK  Name = 
REMARK  5 active torsions:
REMARK  status: ('A' for Active; 'I' for Inactive)
REMARK    1  A    between atoms: S_2  and  N_4
REMARK    2  A    between atoms: S_2  and  C_19
REMARK    3  A    between atoms: N_4  and  C_5
REMARK    4  A    between atoms: C_9  and  C_10
REMARK    5  A    between atoms: N_14  and  C_15
REMARK                            x       y       z     vdW  Elec       q    Type
REMARK                         _______ _______ _______ _____ _____    ______ ____
ROOT
ATOM      1  C   UNL     1       4.722   5.197  17.184  0.00  0.00    +0.000 A 
ATOM      2  C   UNL     1       5.495   4.821  18.276  0.00  0.00    +0.000 A 
ATOM      3  C   UNL     1       6.840   4.505  18.094  0.00  0.00    +0.000 A 
ATOM      4  C   UNL     1       7.412   4.573  16.820  0.00  0.00    +0.000 A 
ATOM      5  C   UNL     1       6.670   5.011  15.715  0.00  0.00    +0.000 A 
ATOM      6  C   UNL     1       5.307   5.317  15.923  0.00  0.00    +0.000 A 
ENDROOT
BRANCH   5   7
ATOM      7  C   UNL     1       7.189   5.050  14.338  0.00  0.00    +0.000 A 
ATOM      8  N   UNL     1       8.210   5.814  13.970  0.00  0.00    +0.000 NA
ATOM      9  N   UNL     1       8.356   5.680  12.618  0.00  0.00    +0.000 NA
ATOM     10  N   UNL     1       7.463   4.839  12.130  0.00  0.00    +0.000 NA
ATOM     11  N   UNL     1       6.760   4.399  13.191  0.00  0.00    +0.000 N 
BRANCH  11  12
ATOM     12  C   UNL     1       5.750   3.368  13.045  0.00  0.00    +0.000 C 
ATOM     13  C   UNL     1       5.677   2.473  11.816  0.00  0.00    +0.000 C 
ATOM     14  C   UNL     1       4.641   3.524  12.010  0.00  0.00    +0.000 C 
ENDBRANCH  11  12
ENDBRANCH   5   7
BRANCH   1  15
ATOM     15  N   UNL     1       3.322   5.358  17.347  0.00  0.00    +0.000 N 
ATOM     16  H   UNL     1       2.973   6.194  17.812  0.00  0.00    +0.000 HD
BRANCH  15  18
ATOM     17  O   UNL     1       0.962   4.493  17.121  0.00  0.00    +0.000 OA
ATOM     18  S   UNL     1       2.294   4.034  17.447  0.00  0.00    +0.000 S 
ATOM     19  O   UNL     1       2.895   2.940  16.709  0.00  0.00    +0.000 OA
BRANCH  18  20
ATOM     20  C   UNL     1       2.304   3.606  19.171  0.00  0.00    +0.000 A 
ATOM     21  C   UNL     1       1.623   4.452  20.060  0.00  0.00    +0.000 A 
ATOM     22  C   UNL     1       1.604   4.171  21.426  0.00  0.00    +0.000 A 
ATOM     23  C   UNL     1       2.266   3.047  21.912  0.00  0.00    +0.000 A 
ATOM     24  C   UNL     1       2.960   2.211  21.034  0.00  0.00    +0.000 A 
ATOM     25  C   UNL     1       2.990   2.489  19.660  0.00  0.00    +0.000 A 
ATOM     26 BR   UNL     1       3.982   1.273  18.589  0.00  0.00    +0.000 Br
ENDBRANCH  18  20
ENDBRANCH  15  18
ENDBRANCH   1  15
TORSDOF 5
ENDMDL
MODEL 5
REMARK VINA RESULT:      -8.3      2.662      4.166
REMARK  Name = 
REMARK  5 active torsions:
REMARK  status: ('A' for Active; 'I' for Inactive)
REMARK    1  A    between atoms: S_2  and  N_4
REMARK    2  A    between atoms: S_2  and  C_19
REMARK    3  A    between atoms: N_4  and  C_5
REMARK    4  A    between atoms: C_9  and  C_10
REMARK    5  A    between atoms: N_14  and  C_15
REMARK                            x       y       z     vdW  Elec       q    Type
REMARK                         _______ _______ _______ _____ _____    ______ ____
ROOT
ATOM      1  C   UNL     1       2.968   6.136  19.678  0.00  0.00    +0.000 A 
ATOM      2  C   UNL     1       2.013   7.039  19.226  0.00  0.00    +0.000 A 
ATOM      3  C   UNL     1       2.287   7.837  18.117  0.00  0.00    +0.000 A 
ATOM      4  C   UNL     1       3.515   7.724  17.456  0.00  0.00    +0.000 A 
ATOM      5  C   UNL     1       4.468   6.777  17.854  0.00  0.00    +0.000 A 
ATOM      6  C   UNL     1       4.171   5.986  18.986  0.00  0.00    +0.000 A 
ENDROOT
BRANCH   5   7
ATOM      7  C   UNL     1       5.801   6.643  17.244  0.00  0.00    +0.000 A 
ATOM      8  N   UNL     1       6.785   7.508  17.455  0.00  0.00    +0.000 NA
ATOM      9  N   UNL     1       7.835   7.137  16.663  0.00  0.00    +0.000 NA
ATOM     10  N   UNL     1       7.541   6.051  15.972  0.00  0.00    +0.000 NA
ATOM     11  N   UNL     1       6.299   5.701  16.357  0.00  0.00    +0.000 N 
BRANCH  11  12
ATOM     12  C   UNL     1       5.683   4.478  15.877  0.00  0.00    +0.000 C 
ATOM     13  C   UNL     1       6.256   3.686  14.710  0.00  0.00    +0.000 C 
ATOM     14  C   UNL     1       4.993   4.450  14.518  0.00  0.00    +0.000 C 
ENDBRANCH  11  12
ENDBRANCH   5   7
BRANCH   1  15
ATOM     15  N   UNL     1       2.749   5.448  20.899  0.00  0.00    +0.000 N 
ATOM     16  H   UNL     1       3.413   5.572  21.661  0.00  0.00    +0.000 HD
BRANCH  15  18
ATOM     17  O   UNL     1       2.078   3.438  22.270  0.00  0.00    +0.000 OA
ATOM     18  S   UNL     1       1.912   3.992  20.945  0.00  0.00    +0.000 S 
ATOM     19  O   UNL     1       0.586   4.218  20.405  0.00  0.00    +0.000 OA
BRANCH  18  20
ATOM     20  C   UNL     1       2.796   2.946  19.814  0.00  0.00    +0.000 A 
ATOM     21  C   UNL     1       3.843   2.164  20.327  0.00  0.00    +0.000 A 
ATOM     22  C   UNL     1       4.578   1.331  19.484  0.00  0.00    +0.000 A 
ATOM     23  C   UNL     1       4.274   1.274  18.127  0.00  0.00    +0.000 A 
ATOM     24  C   UNL     1       3.245   2.063  17.609  0.00  0.00    +0.000 A 
ATOM     25  C   UNL     1       2.505   2.910  18.446  0.00  0.00    +0.000 A 
ATOM     26 BR   UNL     1       1.144   3.932  17.601  0.00  0.00    +0.000 Br
ENDBRANCH  18  20
ENDBRANCH  15  18
ENDBRANCH   1  15
TORSDOF 5
ENDMDL
MODEL 6
REMARK VINA RESULT:      -8.3      5.366      8.108
REMARK  Name = 
REMARK  5 active torsions:
REMARK  status: ('A' for Active; 'I' for Inactive)
REMARK    1  A    between atoms: S_2  and  N_4
REMARK    2  A    between atoms: S_2  and  C_19
REMARK    3  A    between atoms: N_4  and  C_5
REMARK    4  A    between atoms: C_9  and  C_10
REMARK    5  A    between atoms: N_14  and  C_15
REMARK                            x       y       z     vdW  Elec       q    Type
REMARK                         _______ _______ _______ _____ _____    ______ ____
ROOT
ATOM      1  C   UNL     1       1.964   7.977  19.506  0.00  0.00    +0.000 A 
ATOM      2  C   UNL     1       1.672   7.645  20.824  0.00  0.00    +0.000 A 
ATOM      3  C   UNL     1       0.776   8.427  21.551  0.00  0.00    +0.000 A 
ATOM      4  C   UNL     1       0.166   9.536  20.954  0.00  0.00    +0.000 A 
ATOM      5  C   UNL     1       0.395   9.851  19.608  0.00  0.00    +0.000 A 
ATOM      6  C   UNL     1       1.314   9.050  18.896  0.00  0.00    +0.000 A 
ENDROOT
BRANCH   5   7
ATOM      7  C   UNL     1      -0.164  11.033  18.933  0.00  0.00    +0.000 A 
ATOM      8  N   UNL     1       0.214  12.275  19.211  0.00  0.00    +0.000 NA
ATOM      9  N   UNL     1      -0.573  13.118  18.479  0.00  0.00    +0.000 NA
ATOM     10  N   UNL     1      -1.426  12.438  17.735  0.00  0.00    +0.000 NA
ATOM     11  N   UNL     1      -1.153  11.139  17.966  0.00  0.00    +0.000 N 
BRANCH  11  12
ATOM     12  C   UNL     1      -1.832  10.089  17.230  0.00  0.00    +0.000 C 
ATOM     13  C   UNL     1      -3.072  10.359  16.390  0.00  0.00    +0.000 C 
ATOM     14  C   UNL     1      -3.212   9.614  17.671  0.00  0.00    +0.000 C 
ENDBRANCH  11  12
ENDBRANCH   5   7
BRANCH   1  15
ATOM     15  N   UNL     1       2.995   7.278  18.828  0.00  0.00    +0.000 N 
ATOM     16  H   UNL     1       3.464   7.730  18.044  0.00  0.00    +0.000 HD
BRANCH  15  18
ATOM     17  O   UNL     1       3.679   5.140  19.980  0.00  0.00    +0.000 OA
ATOM     18  S   UNL     1       3.028   5.599  18.774  0.00  0.00    +0.000 S 
ATOM     19  O   UNL     1       1.698   5.134  18.435  0.00  0.00    +0.000 OA
BRANCH  18  20
ATOM     20  C   UNL     1       4.105   5.229  17.411  0.00  0.00    +0.000 A 
ATOM     21  C   UNL     1       4.670   6.307  16.712  0.00  0.00    +0.000 A 
ATOM     22  C   UNL     1       5.517   6.077  15.627  0.00  0.00    +0.000 A 
ATOM     23  C   UNL     1       5.802   4.772  15.234  0.00  0.00    +0.000 A 
ATOM     24  C   UNL     1       5.228   3.697  15.916  0.00  0.00    +0.000 A 
ATOM     25  C   UNL     1       4.371   3.917  17.003  0.00  0.00    +0.000 A 
ATOM     26 BR   UNL     1       3.656   2.362  17.826  0.00  0.00    +0.000 Br
ENDBRANCH  18  20
ENDBRANCH  15  18
ENDBRANCH   1  15
TORSDOF 5
ENDMDL
MODEL 7
REMARK VINA RESULT:      -8.2      4.658      6.016
REMARK  Name = 
REMARK  5 active torsions:
REMARK  status: ('A' for Active; 'I' for Inactive)
REMARK    1  A    between atoms: S_2  and  N_4
REMARK    2  A    between atoms: S_2  and  C_19
REMARK    3  A    between atoms: N_4  and  C_5
REMARK    4  A    between atoms: C_9  and  C_10
REMARK    5  A    between atoms: N_14  and  C_15
REMARK                            x       y       z     vdW  Elec       q    Type
REMARK                         _______ _______ _______ _____ _____    ______ ____
ROOT
ATOM      1  C   UNL     1       2.898   7.851  17.830  0.00  0.00    +0.000 A 
ATOM      2  C   UNL     1       2.038   6.904  18.372  0.00  0.00    +0.000 A 
ATOM      3  C   UNL     1       2.334   5.548  18.243  0.00  0.00    +0.000 A 
ATOM      4  C   UNL     1       3.496   5.142  17.579  0.00  0.00    +0.000 A 
ATOM      5  C   UNL     1       4.410   6.079  17.081  0.00  0.00    +0.000 A 
ATOM      6  C   UNL     1       4.084   7.447  17.215  0.00  0.00    +0.000 A 
ENDROOT
BRANCH   5   7
ATOM      7  C   UNL     1       5.620   5.726  16.321  0.00  0.00    +0.000 A 
ATOM      8  N   UNL     1       5.723   5.880  15.007  0.00  0.00    +0.000 NA
ATOM      9  N   UNL     1       6.929   5.362  14.626  0.00  0.00    +0.000 NA
ATOM     10  N   UNL     1       7.594   4.902  15.669  0.00  0.00    +0.000 NA
ATOM     11  N   UNL     1       6.818   5.164  16.738  0.00  0.00    +0.000 N 
BRANCH  11  12
ATOM     12  C   UNL     1       7.282   4.890  18.086  0.00  0.00    +0.000 C 
ATOM     13  C   UNL     1       6.591   5.465  19.314  0.00  0.00    +0.000 C 
ATOM     14  C   UNL     1       7.922   5.997  18.916  0.00  0.00    +0.000 C 
ENDBRANCH  11  12
ENDBRANCH   5   7
BRANCH   1  15
ATOM     15  N   UNL     1       2.510   9.215  17.820  0.00  0.00    +0.000 N 
ATOM     16  H   UNL     1       3.228   9.931  17.724  0.00  0.00    +0.000 HD
BRANCH  15  18
ATOM     17  O   UNL     1      -0.001   9.454  17.737  0.00  0.00    +0.000 OA
ATOM     18  S   UNL     1       1.120   9.736  18.605  0.00  0.00    +0.000 S 
ATOM     19  O   UNL     1       1.148   9.220  19.960  0.00  0.00    +0.000 OA
BRANCH  18  20
ATOM     20  C   UNL     1       1.302  11.502  18.685  0.00  0.00    +0.000 A 
ATOM     21  C   UNL     1       2.465  12.065  18.138  0.00  0.00    +0.000 A 
ATOM     22  C   UNL     1       2.666  13.445  18.179  0.00  0.00    +0.000 A 
ATOM     23  C   UNL     1       1.710  14.268  18.768  0.00  0.00    +0.000 A 
ATOM     24  C   UNL     1       0.559  13.711  19.329  0.00  0.00    +0.000 A 
ATOM     25  C   UNL     1       0.351  12.324  19.298  0.00  0.00    +0.000 A 
ATOM     26 BR   UNL     1      -1.252  11.707  20.109  0.00  0.00    +0.000 Br
ENDBRANCH  18  20
ENDBRANCH  15  18
ENDBRANCH   1  15
TORSDOF 5
ENDMDL
MODEL 8
REMARK VINA RESULT:      -8.2      4.743      5.658
REMARK  Name = 
REMARK  5 active torsions:
REMARK  status: ('A' for Active; 'I' for Inactive)
REMARK    1  A    between atoms: S_2  and  N_4
REMARK    2  A    between atoms: S_2  and  C_19
REMARK    3  A    between atoms: N_4  and  C_5
REMARK    4  A    between atoms: C_9  and  C_10
REMARK    5  A    between atoms: N_14  and  C_15
REMARK                            x       y       z     vdW  Elec       q    Type
REMARK                         _______ _______ _______ _____ _____    ______ ____
ROOT
ATOM      1  C   UNL     1       2.313   7.491  18.139  0.00  0.00    +0.000 A 
ATOM      2  C   UNL     1       1.859   6.421  18.902  0.00  0.00    +0.000 A 
ATOM      3  C   UNL     1       2.699   5.333  19.132  0.00  0.00    +0.000 A 
ATOM      4  C   UNL     1       3.995   5.321  18.606  0.00  0.00    +0.000 A 
ATOM      5  C   UNL     1       4.495   6.415  17.888  0.00  0.00    +0.000 A 
ATOM      6  C   UNL     1       3.623   7.502  17.660  0.00  0.00    +0.000 A 
ENDROOT
BRANCH   5   7
ATOM      7  C   UNL     1       5.824   6.447  17.256  0.00  0.00    +0.000 A 
ATOM      8  N   UNL     1       6.740   7.365  17.539  0.00  0.00    +0.000 NA
ATOM      9  N   UNL     1       7.803   7.156  16.706  0.00  0.00    +0.000 NA
ATOM     10  N   UNL     1       7.585   6.120  15.917  0.00  0.00    +0.000 NA
ATOM     11  N   UNL     1       6.381   5.636  16.279  0.00  0.00    +0.000 N 
BRANCH  11  12
ATOM     12  C   UNL     1       5.856   4.417  15.691  0.00  0.00    +0.000 C 
ATOM     13  C   UNL     1       6.394   3.852  14.383  0.00  0.00    +0.000 C 
ATOM     14  C   UNL     1       5.043   4.478  14.402  0.00  0.00    +0.000 C 
ENDBRANCH  11  12
ENDBRANCH   5   7
BRANCH   1  15
ATOM     15  N   UNL     1       1.403   8.515  17.772  0.00  0.00    +0.000 N 
ATOM     16  H   UNL     1       1.180   8.648  16.787  0.00  0.00    +0.000 HD
BRANCH  15  18
ATOM     17  O   UNL     1       1.291   9.488  20.098  0.00  0.00    +0.000 OA
ATOM     18  S   UNL     1       1.209   9.893  18.713  0.00  0.00    +0.000 S 
ATOM     19  O   UNL     1       2.093  10.920  18.195  0.00  0.00    +0.000 OA
BRANCH  18  20
ATOM     20  C   UNL     1      -0.464  10.400  18.403  0.00  0.00    +0.000 A 
ATOM     21  C   UNL     1      -1.188   9.703  17.422  0.00  0.00    +0.000 A 
ATOM     22  C   UNL     1      -2.504  10.063  17.129  0.00  0.00    +0.000 A 
ATOM     23  C   UNL     1      -3.103  11.119  17.811  0.00  0.00    +0.000 A 
ATOM     24  C   UNL     1      -2.381  11.826  18.775  0.00  0.00    +0.000 A 
ATOM     25  C   UNL     1      -1.056  11.477  19.072  0.00  0.00    +0.000 A 
ATOM     26 BR   UNL     1      -0.195  12.534  20.395  0.00  0.00    +0.000 Br
ENDBRANCH  18  20
ENDBRANCH  15  18
ENDBRANCH   1  15
TORSDOF 5
ENDMDL
MODEL 9
REMARK VINA RESULT:      -8.1      5.204      7.298
REMARK  Name = 
REMARK  5 active torsions:
REMARK  status: ('A' for Active; 'I' for Inactive)
REMARK    1  A    between atoms: S_2  and  N_4
REMARK    2  A    between atoms: S_2  and  C_19
REMARK    3  A    between atoms: N_4  and  C_5
REMARK    4  A    between atoms: C_9  and  C_10
REMARK    5  A    between atoms: N_14  and  C_15
REMARK                            x       y       z     vdW  Elec       q    Type
REMARK                         _______ _______ _______ _____ _____    ______ ____
ROOT
ATOM      1  C   UNL     1       2.216   7.797  19.092  0.00  0.00    +0.000 A 
ATOM      2  C   UNL     1       2.690   8.290  17.883  0.00  0.00    +0.000 A 
ATOM      3  C   UNL     1       3.601   7.540  17.142  0.00  0.00    +0.000 A 
ATOM      4  C   UNL     1       4.031   6.293  17.608  0.00  0.00    +0.000 A 
ATOM      5  C   UNL     1       3.518   5.748  18.793  0.00  0.00    +0.000 A 
ATOM      6  C   UNL     1       2.602   6.530  19.531  0.00  0.00    +0.000 A 
ENDROOT
BRANCH   5   7
ATOM      7  C   UNL     1       3.966   4.472  19.373  0.00  0.00    +0.000 A 
ATOM      8  N   UNL     1       5.132   3.910  19.078  0.00  0.00    +0.000 NA
ATOM      9  N   UNL     1       5.177   2.700  19.710  0.00  0.00    +0.000 NA
ATOM     10  N   UNL     1       4.076   2.493  20.408  0.00  0.00    +0.000 NA
ATOM     11  N   UNL     1       3.333   3.605  20.252  0.00  0.00    +0.000 N 
BRANCH  11  12
ATOM     12  C   UNL     1       2.085   3.780  20.972  0.00  0.00    +0.000 C 
ATOM     13  C   UNL     1       1.325   2.606  21.573  0.00  0.00    +0.000 C 
ATOM     14  C   UNL     1       0.776   3.285  20.367  0.00  0.00    +0.000 C 
ENDBRANCH  11  12
ENDBRANCH   5   7
BRANCH   1  15
ATOM     15  N   UNL     1       1.419   8.632  19.917  0.00  0.00    +0.000 N 
ATOM     16  H   UNL     1       0.926   8.220  20.707  0.00  0.00    +0.000 HD
BRANCH  15  18
ATOM     17  O   UNL     1       1.778  10.967  19.028  0.00  0.00    +0.000 OA
ATOM     18  S   UNL     1       0.713  10.035  19.321  0.00  0.00    +0.000 S 
ATOM     19  O   UNL     1      -0.237   9.658  18.293  0.00  0.00    +0.000 OA
BRANCH  18  20
ATOM     20  C   UNL     1      -0.198  10.683  20.702  0.00  0.00    +0.000 A 
ATOM     21  C   UNL     1      -0.175   9.954  21.901  0.00  0.00    +0.000 A 
ATOM     22  C   UNL     1      -0.879  10.410  23.016  0.00  0.00    +0.000 A 
ATOM     23  C   UNL     1      -1.611  11.592  22.939  0.00  0.00    +0.000 A 
ATOM     24  C   UNL     1      -1.651  12.311  21.743  0.00  0.00    +0.000 A 
ATOM     25  C   UNL     1      -0.953  11.858  20.615  0.00  0.00    +0.000 A 
ATOM     26 BR   UNL     1      -1.108  12.931  19.055  0.00  0.00    +0.000 Br
ENDBRANCH  18  20
ENDBRANCH  15  18
ENDBRANCH   1  15
TORSDOF 5
ENDMDL
