MODEL 1
REMARK VINA RESULT:      -8.5      0.000      0.000
REMARK  Name = 
REMARK  7 active torsions:
REMARK  status: ('A' for Active; 'I' for Inactive)
REMARK    1  A    between atoms: C_1  and  C_2
REMARK    2  A    between atoms: C_4  and  C_5
REMARK    3  A    between atoms: C_7  and  N_8
REMARK    4  A    between atoms: C_10  and  C_11
REMARK    5  A    between atoms: N_13  and  C_14
REMARK    6  A    between atoms: N_20  and  C_21
REMARK    7  A    between atoms: C_27  and  C_28
REMARK                            x       y       z     vdW  Elec       q    Type
REMARK                         _______ _______ _______ _____ _____    ______ ____
ROOT
ATOM      1  C   UNL     1       1.012   9.303  20.712  0.00  0.00    +0.000 C 
ATOM      2  O   UNL     1       1.534   8.833  21.730  0.00  0.00    +0.000 OA
ATOM      3  N   UNL     1       1.312   8.907  19.412  0.00  0.00    +0.000 N 
ATOM      4  H   UNL     1       0.922   9.510  18.689  0.00  0.00    +0.000 HD
ENDROOT
BRANCH   3   5
ATOM      5  C   UNL     1       2.211   7.883  19.024  0.00  0.00    +0.000 A 
ATOM      6  C   UNL     1       3.034   7.987  17.905  0.00  0.00    +0.000 A 
ATOM      7  C   UNL     1       3.861   6.927  17.534  0.00  0.00    +0.000 A 
ATOM      8  C   UNL     1       3.864   5.746  18.275  0.00  0.00    +0.000 A 
ATOM      9  C   UNL     1       3.057   5.611  19.417  0.00  0.00    +0.000 A 
ATOM     10  C   UNL     1       2.251   6.706  19.793  0.00  0.00    +0.000 A 
ATOM     11  N   UNL     1       3.022   4.355  20.090  0.00  0.00    +0.000 N 
ATOM     12  C   UNL     1       2.264   4.097  21.292  0.00  0.00    +0.000 C 
ATOM     13  C   UNL     1       3.711   3.270  19.549  0.00  0.00    +0.000 C 
ATOM     14  O   UNL     1       3.499   2.100  19.846  0.00  0.00    +0.000 OA
ATOM     15  C   UNL     1       4.880   3.692  18.679  0.00  0.00    +0.000 C 
ATOM     16  O   UNL     1       4.665   4.755  17.772  0.00  0.00    +0.000 OA
ENDBRANCH   3   5
BRANCH   1  19
ATOM     17  N   UNL     1      -1.207  11.916  21.728  0.00  0.00    +0.000 N 
ATOM     18  N   UNL     1      -0.147  11.091  21.978  0.00  0.00    +0.000 NA
ATOM     19  C   UNL     1       0.048  10.421  20.817  0.00  0.00    +0.000 A 
ATOM     20  C   UNL     1      -0.781  10.951  19.792  0.00  0.00    +0.000 A 
ATOM     21  C   UNL     1      -1.566  11.915  20.390  0.00  0.00    +0.000 A 
ATOM     22  C   UNL     1      -2.541  12.867  19.789  0.00  0.00    +0.000 C 
BRANCH  17  29
ATOM     23  C   UNL     1      -1.257  15.825  24.765  0.00  0.00    +0.000 C 
ATOM     24  C   UNL     1      -1.864  14.535  24.300  0.00  0.00    +0.000 A 
ATOM     25  C   UNL     1      -3.086  14.086  24.804  0.00  0.00    +0.000 A 
ATOM     26  C   UNL     1      -3.678  12.910  24.326  0.00  0.00    +0.000 A 
ATOM     27  C   UNL     1      -4.961  12.410  24.917  0.00  0.00    +0.000 C 
ATOM     28  C   UNL     1      -3.051  12.188  23.296  0.00  0.00    +0.000 A 
ATOM     29  C   UNL     1      -1.824  12.625  22.792  0.00  0.00    +0.000 A 
ATOM     30  C   UNL     1      -1.230  13.784  23.312  0.00  0.00    +0.000 A 
ENDBRANCH  17  29
ENDBRANCH   1  19
TORSDOF 3
ENDMDL
MODEL 2
REMARK VINA RESULT:      -8.5      1.593      2.249
REMARK  Name = 
REMARK  7 active torsions:
REMARK  status: ('A' for Active; 'I' for Inactive)
REMARK    1  A    between atoms: C_1  and  C_2
REMARK    2  A    between atoms: C_4  and  C_5
REMARK    3  A    between atoms: C_7  and  N_8
REMARK    4  A    between atoms: C_10  and  C_11
REMARK    5  A    between atoms: N_13  and  C_14
REMARK    6  A    between atoms: N_20  and  C_21
REMARK    7  A    between atoms: C_27  and  C_28
REMARK                            x       y       z     vdW  Elec       q    Type
REMARK                         _______ _______ _______ _____ _____    ______ ____
ROOT
ATOM      1  C   UNL     1       0.896   9.666  19.085  0.00  0.00    +0.000 C 
ATOM      2  O   UNL     1       0.517   9.570  17.912  0.00  0.00    +0.000 OA
ATOM      3  N   UNL     1       1.732   8.757  19.726  0.00  0.00    +0.000 N 
ATOM      4  H   UNL     1       1.806   8.891  20.732  0.00  0.00    +0.000 HD
ENDROOT
BRANCH   3   5
ATOM      5  C   UNL     1       2.331   7.607  19.152  0.00  0.00    +0.000 A 
ATOM      6  C   UNL     1       3.144   7.666  18.022  0.00  0.00    +0.000 A 
ATOM      7  C   UNL     1       3.664   6.498  17.464  0.00  0.00    +0.000 A 
ATOM      8  C   UNL     1       3.367   5.258  18.026  0.00  0.00    +0.000 A 
ATOM      9  C   UNL     1       2.562   5.163  19.174  0.00  0.00    +0.000 A 
ATOM     10  C   UNL     1       2.071   6.357  19.742  0.00  0.00    +0.000 A 
ATOM     11  N   UNL     1       2.208   3.870  19.660  0.00  0.00    +0.000 N 
ATOM     12  C   UNL     1       1.419   3.636  20.847  0.00  0.00    +0.000 C 
ATOM     13  C   UNL     1       2.587   2.739  18.937  0.00  0.00    +0.000 C 
ATOM     14  O   UNL     1       2.081   1.632  19.072  0.00  0.00    +0.000 OA
ATOM     15  C   UNL     1       3.819   2.976  18.082  0.00  0.00    +0.000 C 
ATOM     16  O   UNL     1       3.879   4.183  17.349  0.00  0.00    +0.000 OA
ENDBRANCH   3   5
BRANCH   1  19
ATOM     17  N   UNL     1      -0.998  11.988  21.034  0.00  0.00    +0.000 N 
ATOM     18  N   UNL     1      -0.856  10.759  20.455  0.00  0.00    +0.000 NA
ATOM     19  C   UNL     1       0.398  10.765  19.942  0.00  0.00    +0.000 A 
ATOM     20  C   UNL     1       1.096  11.933  20.349  0.00  0.00    +0.000 A 
ATOM     21  C   UNL     1       0.192  12.696  21.058  0.00  0.00    +0.000 A 
ATOM     22  C   UNL     1       0.389  13.968  21.808  0.00  0.00    +0.000 C 
BRANCH  17  29
ATOM     23  C   UNL     1      -5.475  13.859  20.048  0.00  0.00    +0.000 C 
ATOM     24  C   UNL     1      -4.475  13.339  21.037  0.00  0.00    +0.000 A 
ATOM     25  C   UNL     1      -4.814  13.148  22.378  0.00  0.00    +0.000 A 
ATOM     26  C   UNL     1      -3.896  12.607  23.286  0.00  0.00    +0.000 A 
ATOM     27  C   UNL     1      -4.254  12.460  24.734  0.00  0.00    +0.000 C 
ATOM     28  C   UNL     1      -2.623  12.217  22.836  0.00  0.00    +0.000 A 
ATOM     29  C   UNL     1      -2.272  12.414  21.498  0.00  0.00    +0.000 A 
ATOM     30  C   UNL     1      -3.193  12.992  20.614  0.00  0.00    +0.000 A 
ENDBRANCH  17  29
ENDBRANCH   1  19
TORSDOF 3
ENDMDL
MODEL 3
REMARK VINA RESULT:      -8.5      1.051      2.060
REMARK  Name = 
REMARK  7 active torsions:
REMARK  status: ('A' for Active; 'I' for Inactive)
REMARK    1  A    between atoms: C_1  and  C_2
REMARK    2  A    between atoms: C_4  and  C_5
REMARK    3  A    between atoms: C_7  and  N_8
REMARK    4  A    between atoms: C_10  and  C_11
REMARK    5  A    between atoms: N_13  and  C_14
REMARK    6  A    between atoms: N_20  and  C_21
REMARK    7  A    between atoms: C_27  and  C_28
REMARK                            x       y       z     vdW  Elec       q    Type
REMARK                         _______ _______ _______ _____ _____    ______ ____
ROOT
ATOM      1  C   UNL     1       1.152   9.095  21.564  0.00  0.00    +0.000 C 
ATOM      2  O   UNL     1       1.852   8.857  22.555  0.00  0.00    +0.000 OA
ATOM      3  N   UNL     1       1.092   8.297  20.425  0.00  0.00    +0.000 N 
ATOM      4  H   UNL     1       0.603   8.722  19.640  0.00  0.00    +0.000 HD
ENDROOT
BRANCH   3   5
ATOM      5  C   UNL     1       1.765   7.068  20.216  0.00  0.00    +0.000 A 
ATOM      6  C   UNL     1       1.498   5.925  20.968  0.00  0.00    +0.000 A 
ATOM      7  C   UNL     1       2.229   4.755  20.759  0.00  0.00    +0.000 A 
ATOM      8  C   UNL     1       3.241   4.721  19.802  0.00  0.00    +0.000 A 
ATOM      9  C   UNL     1       3.528   5.850  19.016  0.00  0.00    +0.000 A 
ATOM     10  C   UNL     1       2.757   7.013  19.221  0.00  0.00    +0.000 A 
ATOM     11  N   UNL     1       4.631   5.799  18.115  0.00  0.00    +0.000 N 
ATOM     12  C   UNL     1       5.007   6.875  17.228  0.00  0.00    +0.000 C 
ATOM     13  C   UNL     1       5.453   4.671  18.102  0.00  0.00    +0.000 C 
ATOM     14  O   UNL     1       6.581   4.644  17.624  0.00  0.00    +0.000 OA
ATOM     15  C   UNL     1       4.740   3.421  18.586  0.00  0.00    +0.000 C 
ATOM     16  O   UNL     1       3.931   3.539  19.738  0.00  0.00    +0.000 OA
ENDBRANCH   3   5
BRANCH   1  19
ATOM     17  N   UNL     1      -0.903  11.962  22.144  0.00  0.00    +0.000 N 
ATOM     18  N   UNL     1      -0.085  10.971  22.609  0.00  0.00    +0.000 NA
ATOM     19  C   UNL     1       0.358  10.342  21.494  0.00  0.00    +0.000 A 
ATOM     20  C   UNL     1      -0.048  11.048  20.330  0.00  0.00    +0.000 A 
ATOM     21  C   UNL     1      -0.842  12.088  20.766  0.00  0.00    +0.000 A 
ATOM     22  C   UNL     1      -1.457  13.211  20.005  0.00  0.00    +0.000 C 
BRANCH  17  29
ATOM     23  C   UNL     1      -1.612  16.049  24.847  0.00  0.00    +0.000 C 
ATOM     24  C   UNL     1      -2.077  14.699  24.391  0.00  0.00    +0.000 A 
ATOM     25  C   UNL     1      -3.338  14.211  24.736  0.00  0.00    +0.000 A 
ATOM     26  C   UNL     1      -3.792  12.974  24.261  0.00  0.00    +0.000 A 
ATOM     27  C   UNL     1      -5.125  12.438  24.686  0.00  0.00    +0.000 C 
ATOM     28  C   UNL     1      -2.979  12.226  23.392  0.00  0.00    +0.000 A 
ATOM     29  C   UNL     1      -1.711  12.701  23.049  0.00  0.00    +0.000 A 
ATOM     30  C   UNL     1      -1.262  13.924  23.567  0.00  0.00    +0.000 A 
ENDBRANCH  17  29
ENDBRANCH   1  19
TORSDOF 3
ENDMDL
MODEL 4
REMARK VINA RESULT:      -8.5      1.060      2.606
REMARK  Name = 
REMARK  7 active torsions:
REMARK  status: ('A' for Active; 'I' for Inactive)
REMARK    1  A    between atoms: C_1  and  C_2
REMARK    2  A    between atoms: C_4  and  C_5
REMARK    3  A    between atoms: C_7  and  N_8
REMARK    4  A    between atoms: C_10  and  C_11
REMARK    5  A    between atoms: N_13  and  C_14
REMARK    6  A    between atoms: N_20  and  C_21
REMARK    7  A    between atoms: C_27  and  C_28
REMARK                            x       y       z     vdW  Elec       q    Type
REMARK                         _______ _______ _______ _____ _____    ______ ____
ROOT
ATOM      1  C   UNL     1       1.158   9.157  21.566  0.00  0.00    +0.000 C 
ATOM      2  O   UNL     1       1.802   8.881  22.584  0.00  0.00    +0.000 OA
ATOM      3  N   UNL     1       1.132   8.384  20.409  0.00  0.00    +0.000 N 
ATOM      4  H   UNL     1       0.694   8.838  19.610  0.00  0.00    +0.000 HD
ENDROOT
BRANCH   3   5
ATOM      5  C   UNL     1       1.782   7.141  20.207  0.00  0.00    +0.000 A 
ATOM      6  C   UNL     1       1.505   6.012  20.976  0.00  0.00    +0.000 A 
ATOM      7  C   UNL     1       2.214   4.828  20.773  0.00  0.00    +0.000 A 
ATOM      8  C   UNL     1       3.213   4.764  19.804  0.00  0.00    +0.000 A 
ATOM      9  C   UNL     1       3.508   5.878  19.001  0.00  0.00    +0.000 A 
ATOM     10  C   UNL     1       2.760   7.057  19.200  0.00  0.00    +0.000 A 
ATOM     11  N   UNL     1       4.599   5.797  18.087  0.00  0.00    +0.000 N 
ATOM     12  C   UNL     1       4.982   6.855  17.181  0.00  0.00    +0.000 C 
ATOM     13  C   UNL     1       5.401   4.656  18.078  0.00  0.00    +0.000 C 
ATOM     14  O   UNL     1       6.522   4.603  17.586  0.00  0.00    +0.000 OA
ATOM     15  C   UNL     1       4.674   3.424  18.586  0.00  0.00    +0.000 C 
ATOM     16  O   UNL     1       3.882   3.569  19.747  0.00  0.00    +0.000 OA
ENDBRANCH   3   5
BRANCH   1  19
ATOM     17  N   UNL     1      -0.848  12.067  22.105  0.00  0.00    +0.000 N 
ATOM     18  N   UNL     1      -0.082  11.044  22.588  0.00  0.00    +0.000 NA
ATOM     19  C   UNL     1       0.401  10.427  21.483  0.00  0.00    +0.000 A 
ATOM     20  C   UNL     1       0.074  11.168  20.316  0.00  0.00    +0.000 A 
ATOM     21  C   UNL     1      -0.713  12.221  20.735  0.00  0.00    +0.000 A 
ATOM     22  C   UNL     1      -1.258  13.375  19.969  0.00  0.00    +0.000 C 
BRANCH  17  29
ATOM     23  C   UNL     1      -5.060  12.422  24.684  0.00  0.00    +0.000 C 
ATOM     24  C   UNL     1      -3.748  13.008  24.254  0.00  0.00    +0.000 A 
ATOM     25  C   UNL     1      -3.276  14.204  24.797  0.00  0.00    +0.000 A 
ATOM     26  C   UNL     1      -2.024  14.719  24.437  0.00  0.00    +0.000 A 
ATOM     27  C   UNL     1      -1.555  16.032  24.984  0.00  0.00    +0.000 C 
ATOM     28  C   UNL     1      -1.212  14.002  23.540  0.00  0.00    +0.000 A 
ATOM     29  C   UNL     1      -1.681  12.809  22.984  0.00  0.00    +0.000 A 
ATOM     30  C   UNL     1      -2.953  12.332  23.330  0.00  0.00    +0.000 A 
ENDBRANCH  17  29
ENDBRANCH   1  19
TORSDOF 3
ENDMDL
MODEL 5
REMARK VINA RESULT:      -8.5      1.595      2.259
REMARK  Name = 
REMARK  7 active torsions:
REMARK  status: ('A' for Active; 'I' for Inactive)
REMARK    1  A    between atoms: C_1  and  C_2
REMARK    2  A    between atoms: C_4  and  C_5
REMARK    3  A    between atoms: C_7  and  N_8
REMARK    4  A    between atoms: C_10  and  C_11
REMARK    5  A    between atoms: N_13  and  C_14
REMARK    6  A    between atoms: N_20  and  C_21
REMARK    7  A    between atoms: C_27  and  C_28
REMARK                            x       y       z     vdW  Elec       q    Type
REMARK                         _______ _______ _______ _____ _____    ______ ____
ROOT
ATOM      1  C   UNL     1       0.917   9.671  19.081  0.00  0.00    +0.000 C 
ATOM      2  O   UNL     1       0.599   9.612  17.888  0.00  0.00    +0.000 OA
ATOM      3  N   UNL     1       1.703   8.731  19.740  0.00  0.00    +0.000 N 
ATOM      4  H   UNL     1       1.727   8.837  20.752  0.00  0.00    +0.000 HD
ENDROOT
BRANCH   3   5
ATOM      5  C   UNL     1       2.313   7.586  19.168  0.00  0.00    +0.000 A 
ATOM      6  C   UNL     1       3.137   7.652  18.046  0.00  0.00    +0.000 A 
ATOM      7  C   UNL     1       3.667   6.488  17.489  0.00  0.00    +0.000 A 
ATOM      8  C   UNL     1       3.368   5.245  18.043  0.00  0.00    +0.000 A 
ATOM      9  C   UNL     1       2.552   5.142  19.182  0.00  0.00    +0.000 A 
ATOM     10  C   UNL     1       2.051   6.332  19.749  0.00  0.00    +0.000 A 
ATOM     11  N   UNL     1       2.198   3.846  19.659  0.00  0.00    +0.000 N 
ATOM     12  C   UNL     1       1.398   3.604  20.837  0.00  0.00    +0.000 C 
ATOM     13  C   UNL     1       2.589   2.720  18.935  0.00  0.00    +0.000 C 
ATOM     14  O   UNL     1       2.086   1.610  19.061  0.00  0.00    +0.000 OA
ATOM     15  C   UNL     1       3.828   2.965  18.094  0.00  0.00    +0.000 C 
ATOM     16  O   UNL     1       3.892   4.175  17.366  0.00  0.00    +0.000 OA
ENDBRANCH   3   5
BRANCH   1  19
ATOM     17  N   UNL     1      -1.033  11.947  21.030  0.00  0.00    +0.000 N 
ATOM     18  N   UNL     1      -0.863  10.723  20.446  0.00  0.00    +0.000 NA
ATOM     19  C   UNL     1       0.393  10.757  19.940  0.00  0.00    +0.000 A 
ATOM     20  C   UNL     1       1.066  11.936  20.356  0.00  0.00    +0.000 A 
ATOM     21  C   UNL     1       0.143  12.678  21.063  0.00  0.00    +0.000 A 
ATOM     22  C   UNL     1       0.311  13.950  21.819  0.00  0.00    +0.000 C 
BRANCH  17  29
ATOM     23  C   UNL     1      -4.226  12.510  24.771  0.00  0.00    +0.000 C 
ATOM     24  C   UNL     1      -3.905  12.624  23.311  0.00  0.00    +0.000 A 
ATOM     25  C   UNL     1      -4.792  13.229  22.419  0.00  0.00    +0.000 A 
ATOM     26  C   UNL     1      -4.464  13.387  21.067  0.00  0.00    +0.000 A 
ATOM     27  C   UNL     1      -5.449  13.986  20.110  0.00  0.00    +0.000 C 
ATOM     28  C   UNL     1      -3.207  12.961  20.604  0.00  0.00    +0.000 A 
ATOM     29  C   UNL     1      -2.317  12.346  21.488  0.00  0.00    +0.000 A 
ATOM     30  C   UNL     1      -2.680  12.164  22.829  0.00  0.00    +0.000 A 
ENDBRANCH  17  29
ENDBRANCH   1  19
TORSDOF 3
ENDMDL
MODEL 6
REMARK VINA RESULT:      -8.4      2.826     10.270
REMARK  Name = 
REMARK  7 active torsions:
REMARK  status: ('A' for Active; 'I' for Inactive)
REMARK    1  A    between atoms: C_1  and  C_2
REMARK    2  A    between atoms: C_4  and  C_5
REMARK    3  A    between atoms: C_7  and  N_8
REMARK    4  A    between atoms: C_10  and  C_11
REMARK    5  A    between atoms: N_13  and  C_14
REMARK    6  A    between atoms: N_20  and  C_21
REMARK    7  A    between atoms: C_27  and  C_28
REMARK                            x       y       z     vdW  Elec       q    Type
REMARK                         _______ _______ _______ _____ _____    ______ ____
ROOT
ATOM      1  C   UNL     1       0.091  10.234  22.205  0.00  0.00    +0.000 C 
ATOM      2  O   UNL     1       0.312   9.949  23.387  0.00  0.00    +0.000 OA
ATOM      3  N   UNL     1      -0.734  11.270  21.779  0.00  0.00    +0.000 N 
ATOM      4  H   UNL     1      -0.942  11.259  20.782  0.00  0.00    +0.000 HD
ENDROOT
BRANCH   3   5
ATOM      5  C   UNL     1      -1.418  12.201  22.601  0.00  0.00    +0.000 A 
ATOM      6  C   UNL     1      -2.649  11.922  23.191  0.00  0.00    +0.000 A 
ATOM      7  C   UNL     1      -3.307  12.894  23.946  0.00  0.00    +0.000 A 
ATOM      8  C   UNL     1      -2.743  14.158  24.108  0.00  0.00    +0.000 A 
ATOM      9  C   UNL     1      -1.497  14.469  23.539  0.00  0.00    +0.000 A 
ATOM     10  C   UNL     1      -0.833  13.463  22.806  0.00  0.00    +0.000 A 
ATOM     11  N   UNL     1      -1.002  15.801  23.652  0.00  0.00    +0.000 N 
ATOM     12  C   UNL     1       0.277  16.239  23.144  0.00  0.00    +0.000 C 
ATOM     13  C   UNL     1      -1.803  16.781  24.239  0.00  0.00    +0.000 C 
ATOM     14  O   UNL     1      -1.628  17.986  24.105  0.00  0.00    +0.000 OA
ATOM     15  C   UNL     1      -2.815  16.205  25.212  0.00  0.00    +0.000 C 
ATOM     16  O   UNL     1      -3.515  15.045  24.811  0.00  0.00    +0.000 OA
ENDBRANCH   3   5
BRANCH   1  19
ATOM     17  N   UNL     1       1.557   7.703  20.149  0.00  0.00    +0.000 N 
ATOM     18  N   UNL     1       0.892   8.078  21.282  0.00  0.00    +0.000 NA
ATOM     19  C   UNL     1       0.657   9.402  21.119  0.00  0.00    +0.000 A 
ATOM     20  C   UNL     1       1.023   9.815  19.810  0.00  0.00    +0.000 A 
ATOM     21  C   UNL     1       1.584   8.712  19.200  0.00  0.00    +0.000 A 
ATOM     22  C   UNL     1       2.051   8.524  17.799  0.00  0.00    +0.000 C 
BRANCH  17  29
ATOM     23  C   UNL     1       5.393   4.863  18.831  0.00  0.00    +0.000 C 
ATOM     24  C   UNL     1       4.019   4.998  19.416  0.00  0.00    +0.000 A 
ATOM     25  C   UNL     1       3.365   3.907  19.991  0.00  0.00    +0.000 A 
ATOM     26  C   UNL     1       2.107   4.049  20.589  0.00  0.00    +0.000 A 
ATOM     27  C   UNL     1       1.392   2.858  21.151  0.00  0.00    +0.000 C 
ATOM     28  C   UNL     1       1.506   5.318  20.644  0.00  0.00    +0.000 A 
ATOM     29  C   UNL     1       2.148   6.414  20.063  0.00  0.00    +0.000 A 
ATOM     30  C   UNL     1       3.390   6.242  19.436  0.00  0.00    +0.000 A 
ENDBRANCH  17  29
ENDBRANCH   1  19
TORSDOF 3
ENDMDL
MODEL 7
REMARK VINA RESULT:      -8.4      1.938      3.181
REMARK  Name = 
REMARK  7 active torsions:
REMARK  status: ('A' for Active; 'I' for Inactive)
REMARK    1  A    between atoms: C_1  and  C_2
REMARK    2  A    between atoms: C_4  and  C_5
REMARK    3  A    between atoms: C_7  and  N_8
REMARK    4  A    between atoms: C_10  and  C_11
REMARK    5  A    between atoms: N_13  and  C_14
REMARK    6  A    between atoms: N_20  and  C_21
REMARK    7  A    between atoms: C_27  and  C_28
REMARK                            x       y       z     vdW  Elec       q    Type
REMARK                         _______ _______ _______ _____ _____    ______ ____
ROOT
ATOM      1  C   UNL     1       1.406   8.653  19.876  0.00  0.00    +0.000 C 
ATOM      2  O   UNL     1       1.504   7.893  20.846  0.00  0.00    +0.000 OA
ATOM      3  N   UNL     1       1.889   8.376  18.600  0.00  0.00    +0.000 N 
ATOM      4  H   UNL     1       1.880   9.172  17.966  0.00  0.00    +0.000 HD
ENDROOT
BRANCH   3   5
ATOM      5  C   UNL     1       2.519   7.181  18.174  0.00  0.00    +0.000 A 
ATOM      6  C   UNL     1       1.855   5.957  18.118  0.00  0.00    +0.000 A 
ATOM      7  C   UNL     1       2.537   4.799  17.745  0.00  0.00    +0.000 A 
ATOM      8  C   UNL     1       3.894   4.853  17.433  0.00  0.00    +0.000 A 
ATOM      9  C   UNL     1       4.592   6.072  17.465  0.00  0.00    +0.000 A 
ATOM     10  C   UNL     1       3.878   7.237  17.815  0.00  0.00    +0.000 A 
ATOM     11  N   UNL     1       5.998   6.066  17.230  0.00  0.00    +0.000 N 
ATOM     12  C   UNL     1       6.823   7.251  17.199  0.00  0.00    +0.000 C 
ATOM     13  C   UNL     1       6.660   4.848  17.067  0.00  0.00    +0.000 C 
ATOM     14  O   UNL     1       7.871   4.700  17.181  0.00  0.00    +0.000 OA
ATOM     15  C   UNL     1       5.746   3.748  16.559  0.00  0.00    +0.000 C 
ATOM     16  O   UNL     1       4.467   3.641  17.149  0.00  0.00    +0.000 OA
ENDBRANCH   3   5
BRANCH   1  19
ATOM     17  N   UNL     1      -0.639  11.508  20.542  0.00  0.00    +0.000 N 
ATOM     18  N   UNL     1      -0.317  10.199  20.761  0.00  0.00    +0.000 NA
ATOM     19  C   UNL     1       0.812   9.999  20.039  0.00  0.00    +0.000 A 
ATOM     20  C   UNL     1       1.287  11.228  19.508  0.00  0.00    +0.000 A 
ATOM     21  C   UNL     1       0.354  12.183  19.852  0.00  0.00    +0.000 A 
ATOM     22  C   UNL     1       0.375  13.659  19.655  0.00  0.00    +0.000 C 
BRANCH  17  29
ATOM     23  C   UNL     1      -5.262  12.931  19.480  0.00  0.00    +0.000 C 
ATOM     24  C   UNL     1      -4.164  12.728  20.482  0.00  0.00    +0.000 A 
ATOM     25  C   UNL     1      -4.387  12.908  21.848  0.00  0.00    +0.000 A 
ATOM     26  C   UNL     1      -3.376  12.662  22.785  0.00  0.00    +0.000 A 
ATOM     27  C   UNL     1      -3.611  12.914  24.243  0.00  0.00    +0.000 C 
ATOM     28  C   UNL     1      -2.125  12.191  22.348  0.00  0.00    +0.000 A 
ATOM     29  C   UNL     1      -1.891  12.017  20.982  0.00  0.00    +0.000 A 
ATOM     30  C   UNL     1      -2.905  12.306  20.058  0.00  0.00    +0.000 A 
ENDBRANCH  17  29
ENDBRANCH   1  19
TORSDOF 3
ENDMDL
MODEL 8
REMARK VINA RESULT:      -8.4      0.121      1.606
REMARK  Name = 
REMARK  7 active torsions:
REMARK  status: ('A' for Active; 'I' for Inactive)
REMARK    1  A    between atoms: C_1  and  C_2
REMARK    2  A    between atoms: C_4  and  C_5
REMARK    3  A    between atoms: C_7  and  N_8
REMARK    4  A    between atoms: C_10  and  C_11
REMARK    5  A    between atoms: N_13  and  C_14
REMARK    6  A    between atoms: N_20  and  C_21
REMARK    7  A    between atoms: C_27  and  C_28
REMARK                            x       y       z     vdW  Elec       q    Type
REMARK                         _______ _______ _______ _____ _____    ______ ____
ROOT
ATOM      1  C   UNL     1       0.994   9.320  20.638  0.00  0.00    +0.000 C 
ATOM      2  O   UNL     1       1.546   8.908  21.664  0.00  0.00    +0.000 OA
ATOM      3  N   UNL     1       1.289   8.885  19.349  0.00  0.00    +0.000 N 
ATOM      4  H   UNL     1       0.868   9.445  18.610  0.00  0.00    +0.000 HD
ENDROOT
BRANCH   3   5
ATOM      5  C   UNL     1       2.217   7.877  18.987  0.00  0.00    +0.000 A 
ATOM      6  C   UNL     1       3.067   7.996  17.889  0.00  0.00    +0.000 A 
ATOM      7  C   UNL     1       3.923   6.950  17.542  0.00  0.00    +0.000 A 
ATOM      8  C   UNL     1       3.930   5.772  18.285  0.00  0.00    +0.000 A 
ATOM      9  C   UNL     1       3.097   5.623  19.407  0.00  0.00    +0.000 A 
ATOM     10  C   UNL     1       2.261   6.703  19.760  0.00  0.00    +0.000 A 
ATOM     11  N   UNL     1       3.069   4.368  20.081  0.00  0.00    +0.000 N 
ATOM     12  C   UNL     1       2.286   4.097  21.264  0.00  0.00    +0.000 C 
ATOM     13  C   UNL     1       3.793   3.295  19.561  0.00  0.00    +0.000 C 
ATOM     14  O   UNL     1       3.596   2.122  19.855  0.00  0.00    +0.000 OA
ATOM     15  C   UNL     1       4.976   3.739  18.719  0.00  0.00    +0.000 C 
ATOM     16  O   UNL     1       4.763   4.795  17.805  0.00  0.00    +0.000 OA
ENDBRANCH   3   5
BRANCH   1  19
ATOM     17  N   UNL     1      -1.286  11.905  21.586  0.00  0.00    +0.000 N 
ATOM     18  N   UNL     1      -0.189  11.133  21.844  0.00  0.00    +0.000 NA
ATOM     19  C   UNL     1      -0.007  10.408  20.715  0.00  0.00    +0.000 A 
ATOM     20  C   UNL     1      -0.886  10.851  19.691  0.00  0.00    +0.000 A 
ATOM     21  C   UNL     1      -1.687  11.818  20.263  0.00  0.00    +0.000 A 
ATOM     22  C   UNL     1      -2.714  12.702  19.645  0.00  0.00    +0.000 C 
BRANCH  17  29
ATOM     23  C   UNL     1      -4.956  12.405  24.872  0.00  0.00    +0.000 C 
ATOM     24  C   UNL     1      -3.693  12.920  24.249  0.00  0.00    +0.000 A 
ATOM     25  C   UNL     1      -3.039  14.043  24.758  0.00  0.00    +0.000 A 
ATOM     26  C   UNL     1      -1.829  14.487  24.210  0.00  0.00    +0.000 A 
ATOM     27  C   UNL     1      -1.168  15.727  24.730  0.00  0.00    +0.000 C 
ATOM     28  C   UNL     1      -1.242  13.770  23.153  0.00  0.00    +0.000 A 
ATOM     29  C   UNL     1      -1.895  12.650  22.631  0.00  0.00    +0.000 A 
ATOM     30  C   UNL     1      -3.124  12.246  23.169  0.00  0.00    +0.000 A 
ENDBRANCH  17  29
ENDBRANCH   1  19
TORSDOF 3
ENDMDL
MODEL 9
REMARK VINA RESULT:      -8.4      2.442      3.734
REMARK  Name = 
REMARK  7 active torsions:
REMARK  status: ('A' for Active; 'I' for Inactive)
REMARK    1  A    between atoms: C_1  and  C_2
REMARK    2  A    between atoms: C_4  and  C_5
REMARK    3  A    between atoms: C_7  and  N_8
REMARK    4  A    between atoms: C_10  and  C_11
REMARK    5  A    between atoms: N_13  and  C_14
REMARK    6  A    between atoms: N_20  and  C_21
REMARK    7  A    between atoms: C_27  and  C_28
REMARK                            x       y       z     vdW  Elec       q    Type
REMARK                         _______ _______ _______ _____ _____    ______ ____
ROOT
ATOM      1  C   UNL     1       1.806   8.428  18.983  0.00  0.00    +0.000 C 
ATOM      2  O   UNL     1       2.134   8.981  17.927  0.00  0.00    +0.000 OA
ATOM      3  N   UNL     1       2.037   7.089  19.283  0.00  0.00    +0.000 N 
ATOM      4  H   UNL     1       1.554   6.755  20.114  0.00  0.00    +0.000 HD
ENDROOT
BRANCH   3   5
ATOM      5  C   UNL     1       2.720   6.146  18.475  0.00  0.00    +0.000 A 
ATOM      6  C   UNL     1       2.102   5.009  17.958  0.00  0.00    +0.000 A 
ATOM      7  C   UNL     1       2.834   4.083  17.215  0.00  0.00    +0.000 A 
ATOM      8  C   UNL     1       4.195   4.280  16.991  0.00  0.00    +0.000 A 
ATOM      9  C   UNL     1       4.848   5.422  17.486  0.00  0.00    +0.000 A 
ATOM     10  C   UNL     1       4.084   6.362  18.208  0.00  0.00    +0.000 A 
ATOM     11  N   UNL     1       6.258   5.537  17.313  0.00  0.00    +0.000 N 
ATOM     12  C   UNL     1       7.040   6.673  17.741  0.00  0.00    +0.000 C 
ATOM     13  C   UNL     1       6.967   4.478  16.745  0.00  0.00    +0.000 C 
ATOM     14  O   UNL     1       8.179   4.329  16.839  0.00  0.00    +0.000 OA
ATOM     15  C   UNL     1       6.106   3.614  15.841  0.00  0.00    +0.000 C 
ATOM     16  O   UNL     1       4.817   3.268  16.308  0.00  0.00    +0.000 OA
ENDBRANCH   3   5
BRANCH   1  19
ATOM     17  N   UNL     1      -0.008  10.805  20.942  0.00  0.00    +0.000 N 
ATOM     18  N   UNL     1       0.439  10.355  19.732  0.00  0.00    +0.000 NA
ATOM     19  C   UNL     1       1.042   9.173  20.008  0.00  0.00    +0.000 A 
ATOM     20  C   UNL     1       0.821   8.807  21.363  0.00  0.00    +0.000 A 
ATOM     21  C   UNL     1       0.136   9.856  21.940  0.00  0.00    +0.000 A 
ATOM     22  C   UNL     1      -0.450   9.985  23.303  0.00  0.00    +0.000 C 
BRANCH  17  29
ATOM     23  C   UNL     1      -3.864  13.908  20.825  0.00  0.00    +0.000 C 
ATOM     24  C   UNL     1      -2.395  13.671  21.008  0.00  0.00    +0.000 A 
ATOM     25  C   UNL     1      -1.541  14.695  21.420  0.00  0.00    +0.000 A 
ATOM     26  C   UNL     1      -0.180  14.456  21.645  0.00  0.00    +0.000 A 
ATOM     27  C   UNL     1       0.736  15.577  22.032  0.00  0.00    +0.000 C 
ATOM     28  C   UNL     1       0.331  13.155  21.489  0.00  0.00    +0.000 A 
ATOM     29  C   UNL     1      -0.515  12.126  21.067  0.00  0.00    +0.000 A 
ATOM     30  C   UNL     1      -1.866  12.396  20.810  0.00  0.00    +0.000 A 
ENDBRANCH  17  29
ENDBRANCH   1  19
TORSDOF 3
ENDMDL
