MODEL 1
REMARK VINA RESULT:      -8.7      0.000      0.000
REMARK  Name = 
REMARK  6 active torsions:
REMARK  status: ('A' for Active; 'I' for Inactive)
REMARK    1  A    between atoms: C_1  and  C_2
REMARK    2  A    between atoms: C_5  and  C_6
REMARK    3  A    between atoms: C_9  and  C_10
REMARK    4  A    between atoms: C_10  and  N_11
REMARK    5  A    between atoms: N_11  and  S_12
REMARK    6  A    between atoms: S_12  and  C_15
REMARK                            x       y       z     vdW  Elec       q    Type
REMARK                         _______ _______ _______ _____ _____    ______ ____
ROOT
ATOM      1  S   UNL     1       2.624   3.078  18.069  0.00  0.00    +0.000 S 
ATOM      2  O   UNL     1       2.222   3.223  16.686  0.00  0.00    +0.000 OA
ATOM      3  O   UNL     1       2.190   1.956  18.865  0.00  0.00    +0.000 OA
ENDROOT
BRANCH   1   4
ATOM      4  C   UNL     1       2.198   4.583  18.914  0.00  0.00    +0.000 A 
ATOM      5  C   UNL     1       1.834   4.529  20.263  0.00  0.00    +0.000 A 
ATOM      6  C   UNL     1       1.566   5.712  20.957  0.00  0.00    +0.000 A 
ATOM      7  C   UNL     1       1.650   6.950  20.306  0.00  0.00    +0.000 A 
ATOM      8  C   UNL     1       2.021   6.995  18.948  0.00  0.00    +0.000 A 
ATOM      9  C   UNL     1       2.294   5.812  18.249  0.00  0.00    +0.000 A 
ATOM     10  C   UNL     1       2.154   8.312  18.257  0.00  0.00    +0.000 C 
ATOM     11  O   UNL     1       2.630   8.409  17.133  0.00  0.00    +0.000 OA
ATOM     12  N   UNL     1       1.719   9.422  18.944  0.00  0.00    +0.000 N 
ATOM     13  C   UNL     1       0.896   9.312  20.126  0.00  0.00    +0.000 C 
ATOM     14  C   UNL     1       1.428   8.235  21.065  0.00  0.00    +0.000 C 
ATOM     15  H   UNL     1       1.735  10.285  18.411  0.00  0.00    +0.000 HD
ENDBRANCH   1   4
BRANCH   1  16
ATOM     16  N   UNL     1       4.321   3.058  18.074  0.00  0.00    +0.000 NA
ATOM     17  H   UNL     1       4.649   2.106  17.910  0.00  0.00    +0.000 HD
BRANCH  16  18
ATOM     18  C   UNL     1       4.966   3.842  19.148  0.00  0.00    +0.000 C 
BRANCH  18  22
ATOM     19  C   UNL     1       6.859   5.454  16.613  0.00  0.00    +0.000 C 
ATOM     20  C   UNL     1       7.841   4.675  17.469  0.00  0.00    +0.000 C 
ATOM     21  C   UNL     1       7.310   4.923  18.860  0.00  0.00    +0.000 C 
ATOM     22  C   UNL     1       5.806   5.032  18.653  0.00  0.00    +0.000 C 
ATOM     23  O   UNL     1       5.579   5.287  17.255  0.00  0.00    +0.000 OA
BRANCH  19  28
ATOM     24  C   UNL     1       5.739   3.172  12.380  0.00  0.00    +0.000 C 
ATOM     25  C   UNL     1       6.374   4.043  13.385  0.00  0.00    +0.000 A 
ATOM     26  N   UNL     1       7.416   4.835  13.108  0.00  0.00    +0.000 NA
ATOM     27  O   UNL     1       7.679   5.452  14.333  0.00  0.00    +0.000 OA
ATOM     28  C   UNL     1       6.760   4.964  15.218  0.00  0.00    +0.000 A 
ATOM     29  N   UNL     1       5.941   4.083  14.684  0.00  0.00    +0.000 NA
ENDBRANCH  19  28
ENDBRANCH  18  22
ENDBRANCH  16  18
ENDBRANCH   1  16
TORSDOF 5
ENDMDL
MODEL 2
REMARK VINA RESULT:      -8.7      2.427      7.079
REMARK  Name = 
REMARK  6 active torsions:
REMARK  status: ('A' for Active; 'I' for Inactive)
REMARK    1  A    between atoms: C_1  and  C_2
REMARK    2  A    between atoms: C_5  and  C_6
REMARK    3  A    between atoms: C_9  and  C_10
REMARK    4  A    between atoms: C_10  and  N_11
REMARK    5  A    between atoms: N_11  and  S_12
REMARK    6  A    between atoms: S_12  and  C_15
REMARK                            x       y       z     vdW  Elec       q    Type
REMARK                         _______ _______ _______ _____ _____    ______ ____
ROOT
ATOM      1  S   UNL     1       2.480   3.262  20.610  0.00  0.00    +0.000 S 
ATOM      2  O   UNL     1       3.354   2.545  21.516  0.00  0.00    +0.000 OA
ATOM      3  O   UNL     1       1.170   2.762  20.275  0.00  0.00    +0.000 OA
ENDROOT
BRANCH   1   4
ATOM      4  C   UNL     1       3.386   3.555  19.108  0.00  0.00    +0.000 A 
ATOM      5  C   UNL     1       2.728   3.440  17.881  0.00  0.00    +0.000 A 
ATOM      6  C   UNL     1       3.409   3.738  16.697  0.00  0.00    +0.000 A 
ATOM      7  C   UNL     1       4.751   4.140  16.734  0.00  0.00    +0.000 A 
ATOM      8  C   UNL     1       5.405   4.257  17.976  0.00  0.00    +0.000 A 
ATOM      9  C   UNL     1       4.725   3.963  19.165  0.00  0.00    +0.000 A 
ATOM     10  C   UNL     1       6.822   4.725  18.028  0.00  0.00    +0.000 C 
ATOM     11  O   UNL     1       7.375   4.998  19.086  0.00  0.00    +0.000 OA
ATOM     12  N   UNL     1       7.484   4.841  16.828  0.00  0.00    +0.000 N 
ATOM     13  C   UNL     1       6.966   4.255  15.613  0.00  0.00    +0.000 C 
ATOM     14  C   UNL     1       5.473   4.526  15.467  0.00  0.00    +0.000 C 
ATOM     15  H   UNL     1       8.469   5.069  16.906  0.00  0.00    +0.000 HD
ENDBRANCH   1   4
BRANCH   1  16
ATOM     16  N   UNL     1       2.262   4.807  21.279  0.00  0.00    +0.000 NA
ATOM     17  H   UNL     1       1.994   4.716  22.259  0.00  0.00    +0.000 HD
BRANCH  16  18
ATOM     18  C   UNL     1       1.517   5.767  20.438  0.00  0.00    +0.000 C 
BRANCH  18  22
ATOM     19  C   UNL     1       1.661   9.068  19.137  0.00  0.00    +0.000 C 
ATOM     20  C   UNL     1       1.876   8.123  17.968  0.00  0.00    +0.000 C 
ATOM     21  C   UNL     1       2.773   7.072  18.575  0.00  0.00    +0.000 C 
ATOM     22  C   UNL     1       2.320   7.013  20.028  0.00  0.00    +0.000 C 
ATOM     23  O   UNL     1       1.588   8.221  20.301  0.00  0.00    +0.000 OA
BRANCH  19  28
ATOM     24  C   UNL     1      -2.498  11.357  17.782  0.00  0.00    +0.000 C 
ATOM     25  C   UNL     1      -1.342  10.884  18.563  0.00  0.00    +0.000 A 
ATOM     26  N   UNL     1      -1.103  11.275  19.821  0.00  0.00    +0.000 NA
ATOM     27  O   UNL     1       0.073  10.594  20.145  0.00  0.00    +0.000 OA
ATOM     28  C   UNL     1       0.413   9.861  19.044  0.00  0.00    +0.000 A 
ATOM     29  N   UNL     1      -0.421  10.016  18.038  0.00  0.00    +0.000 NA
ENDBRANCH  19  28
ENDBRANCH  18  22
ENDBRANCH  16  18
ENDBRANCH   1  16
TORSDOF 5
ENDMDL
MODEL 3
REMARK VINA RESULT:      -8.3      2.742      4.050
REMARK  Name = 
REMARK  6 active torsions:
REMARK  status: ('A' for Active; 'I' for Inactive)
REMARK    1  A    between atoms: C_1  and  C_2
REMARK    2  A    between atoms: C_5  and  C_6
REMARK    3  A    between atoms: C_9  and  C_10
REMARK    4  A    between atoms: C_10  and  N_11
REMARK    5  A    between atoms: N_11  and  S_12
REMARK    6  A    between atoms: S_12  and  C_15
REMARK                            x       y       z     vdW  Elec       q    Type
REMARK                         _______ _______ _______ _____ _____    ______ ____
ROOT
ATOM      1  S   UNL     1       3.069   5.622  19.238  0.00  0.00    +0.000 S 
ATOM      2  O   UNL     1       2.126   4.739  19.892  0.00  0.00    +0.000 OA
ATOM      3  O   UNL     1       4.433   5.736  19.693  0.00  0.00    +0.000 OA
ENDROOT
BRANCH   1   4
ATOM      4  C   UNL     1       2.342   7.243  19.184  0.00  0.00    +0.000 A 
ATOM      5  C   UNL     1       2.342   7.953  17.980  0.00  0.00    +0.000 A 
ATOM      6  C   UNL     1       1.710   9.197  17.907  0.00  0.00    +0.000 A 
ATOM      7  C   UNL     1       1.086   9.742  19.037  0.00  0.00    +0.000 A 
ATOM      8  C   UNL     1       1.087   9.018  20.245  0.00  0.00    +0.000 A 
ATOM      9  C   UNL     1       1.717   7.769  20.322  0.00  0.00    +0.000 A 
ATOM     10  C   UNL     1       0.389   9.572  21.444  0.00  0.00    +0.000 C 
ATOM     11  O   UNL     1       0.223   8.910  22.460  0.00  0.00    +0.000 OA
ATOM     12  N   UNL     1      -0.068  10.867  21.355  0.00  0.00    +0.000 N 
ATOM     13  C   UNL     1       0.364  11.757  20.302  0.00  0.00    +0.000 C 
ATOM     14  C   UNL     1       0.345  11.054  18.949  0.00  0.00    +0.000 C 
ATOM     15  H   UNL     1      -0.451  11.242  22.216  0.00  0.00    +0.000 HD
ENDBRANCH   1   4
BRANCH   1  16
ATOM     16  N   UNL     1       3.132   5.135  17.613  0.00  0.00    +0.000 NA
ATOM     17  H   UNL     1       2.268   5.411  17.144  0.00  0.00    +0.000 HD
BRANCH  16  18
ATOM     18  C   UNL     1       3.650   3.772  17.374  0.00  0.00    +0.000 C 
BRANCH  18  22
ATOM     19  C   UNL     1       6.747   5.195  16.376  0.00  0.00    +0.000 C 
ATOM     20  C   UNL     1       5.711   5.633  15.358  0.00  0.00    +0.000 C 
ATOM     21  C   UNL     1       4.897   4.375  15.176  0.00  0.00    +0.000 C 
ATOM     22  C   UNL     1       4.947   3.718  16.549  0.00  0.00    +0.000 C 
ATOM     23  O   UNL     1       6.049   4.301  17.267  0.00  0.00    +0.000 OA
BRANCH  19  28
ATOM     24  C   UNL     1       8.412   9.504  18.117  0.00  0.00    +0.000 C 
ATOM     25  C   UNL     1       8.065   8.079  17.987  0.00  0.00    +0.000 A 
ATOM     26  N   UNL     1       8.351   7.170  18.927  0.00  0.00    +0.000 NA
ATOM     27  O   UNL     1       7.854   5.984  18.382  0.00  0.00    +0.000 OA
ATOM     28  C   UNL     1       7.317   6.309  17.169  0.00  0.00    +0.000 A 
ATOM     29  N   UNL     1       7.433   7.587  16.875  0.00  0.00    +0.000 NA
ENDBRANCH  19  28
ENDBRANCH  18  22
ENDBRANCH  16  18
ENDBRANCH   1  16
TORSDOF 5
ENDMDL
MODEL 4
REMARK VINA RESULT:      -8.0      2.232      7.068
REMARK  Name = 
REMARK  6 active torsions:
REMARK  status: ('A' for Active; 'I' for Inactive)
REMARK    1  A    between atoms: C_1  and  C_2
REMARK    2  A    between atoms: C_5  and  C_6
REMARK    3  A    between atoms: C_9  and  C_10
REMARK    4  A    between atoms: C_10  and  N_11
REMARK    5  A    between atoms: N_11  and  S_12
REMARK    6  A    between atoms: S_12  and  C_15
REMARK                            x       y       z     vdW  Elec       q    Type
REMARK                         _______ _______ _______ _____ _____    ______ ____
ROOT
ATOM      1  S   UNL     1       2.775   3.069  20.494  0.00  0.00    +0.000 S 
ATOM      2  O   UNL     1       3.746   2.561  21.440  0.00  0.00    +0.000 OA
ATOM      3  O   UNL     1       1.576   2.334  20.180  0.00  0.00    +0.000 OA
ENDROOT
BRANCH   1   4
ATOM      4  C   UNL     1       3.638   3.436  18.983  0.00  0.00    +0.000 A 
ATOM      5  C   UNL     1       2.972   3.288  17.763  0.00  0.00    +0.000 A 
ATOM      6  C   UNL     1       3.615   3.641  16.574  0.00  0.00    +0.000 A 
ATOM      7  C   UNL     1       4.927   4.132  16.596  0.00  0.00    +0.000 A 
ATOM      8  C   UNL     1       5.589   4.281  17.830  0.00  0.00    +0.000 A 
ATOM      9  C   UNL     1       4.948   3.931  19.025  0.00  0.00    +0.000 A 
ATOM     10  C   UNL     1       6.973   4.842  17.868  0.00  0.00    +0.000 C 
ATOM     11  O   UNL     1       7.521   5.142  18.921  0.00  0.00    +0.000 OA
ATOM     12  N   UNL     1       7.608   5.013  16.660  0.00  0.00    +0.000 N 
ATOM     13  C   UNL     1       7.113   4.405  15.446  0.00  0.00    +0.000 C 
ATOM     14  C   UNL     1       5.604   4.577  15.323  0.00  0.00    +0.000 C 
ATOM     15  H   UNL     1       8.577   5.306  16.727  0.00  0.00    +0.000 HD
ENDBRANCH   1   4
BRANCH   1  16
ATOM     16  N   UNL     1       2.286   4.586  21.078  0.00  0.00    +0.000 NA
ATOM     17  H   UNL     1       1.799   4.464  21.966  0.00  0.00    +0.000 HD
BRANCH  16  18
ATOM     18  C   UNL     1       1.693   5.495  20.075  0.00  0.00    +0.000 C 
BRANCH  18  22
ATOM     19  C   UNL     1       2.046   8.904  19.145  0.00  0.00    +0.000 C 
ATOM     20  C   UNL     1       2.017   8.096  17.861  0.00  0.00    +0.000 C 
ATOM     21  C   UNL     1       2.858   6.897  18.225  0.00  0.00    +0.000 C 
ATOM     22  C   UNL     1       2.575   6.700  19.707  0.00  0.00    +0.000 C 
ATOM     23  O   UNL     1       2.017   7.929  20.207  0.00  0.00    +0.000 OA
BRANCH  19  28
ATOM     24  C   UNL     1      -1.612  11.804  20.753  0.00  0.00    +0.000 C 
ATOM     25  C   UNL     1      -0.694  11.047  19.885  0.00  0.00    +0.000 A 
ATOM     26  N   UNL     1      -0.817  11.009  18.552  0.00  0.00    +0.000 NA
ATOM     27  O   UNL     1       0.241  10.186  18.161  0.00  0.00    +0.000 OA
ATOM     28  C   UNL     1       0.891   9.818  19.305  0.00  0.00    +0.000 A 
ATOM     29  N   UNL     1       0.345  10.313  20.394  0.00  0.00    +0.000 NA
ENDBRANCH  19  28
ENDBRANCH  18  22
ENDBRANCH  16  18
ENDBRANCH   1  16
TORSDOF 5
ENDMDL
MODEL 5
REMARK VINA RESULT:      -8.0      2.620      4.468
REMARK  Name = 
REMARK  6 active torsions:
REMARK  status: ('A' for Active; 'I' for Inactive)
REMARK    1  A    between atoms: C_1  and  C_2
REMARK    2  A    between atoms: C_5  and  C_6
REMARK    3  A    between atoms: C_9  and  C_10
REMARK    4  A    between atoms: C_10  and  N_11
REMARK    5  A    between atoms: N_11  and  S_12
REMARK    6  A    between atoms: S_12  and  C_15
REMARK                            x       y       z     vdW  Elec       q    Type
REMARK                         _______ _______ _______ _____ _____    ______ ____
ROOT
ATOM      1  S   UNL     1       2.497   6.375  19.352  0.00  0.00    +0.000 S 
ATOM      2  O   UNL     1       3.938   6.495  19.433  0.00  0.00    +0.000 OA
ATOM      3  O   UNL     1       1.858   5.739  18.226  0.00  0.00    +0.000 OA
ENDROOT
BRANCH   1   4
ATOM      4  C   UNL     1       1.809   8.001  19.562  0.00  0.00    +0.000 A 
ATOM      5  C   UNL     1       1.772   8.872  18.470  0.00  0.00    +0.000 A 
ATOM      6  C   UNL     1       1.169  10.126  18.602  0.00  0.00    +0.000 A 
ATOM      7  C   UNL     1       0.612  10.519  19.827  0.00  0.00    +0.000 A 
ATOM      8  C   UNL     1       0.651   9.632  20.921  0.00  0.00    +0.000 A 
ATOM      9  C   UNL     1       1.251   8.373  20.791  0.00  0.00    +0.000 A 
ATOM     10  C   UNL     1       0.023  10.024  22.218  0.00  0.00    +0.000 C 
ATOM     11  O   UNL     1      -0.113   9.229  23.138  0.00  0.00    +0.000 OA
ATOM     12  N   UNL     1      -0.404  11.327  22.334  0.00  0.00    +0.000 N 
ATOM     13  C   UNL     1       0.001  12.348  21.395  0.00  0.00    +0.000 C 
ATOM     14  C   UNL     1      -0.099  11.843  19.960  0.00  0.00    +0.000 C 
ATOM     15  H   UNL     1      -0.738  11.585  23.256  0.00  0.00    +0.000 HD
ENDBRANCH   1   4
BRANCH   1  16
ATOM     16  N   UNL     1       2.008   5.528  20.740  0.00  0.00    +0.000 NA
ATOM     17  H   UNL     1       2.803   5.430  21.372  0.00  0.00    +0.000 HD
BRANCH  16  18
ATOM     18  C   UNL     1       1.158   4.344  20.498  0.00  0.00    +0.000 C 
BRANCH  18  22
ATOM     19  C   UNL     1       3.784   2.637  18.824  0.00  0.00    +0.000 C 
ATOM     20  C   UNL     1       2.548   2.509  17.953  0.00  0.00    +0.000 C 
ATOM     21  C   UNL     1       1.466   2.261  18.976  0.00  0.00    +0.000 C 
ATOM     22  C   UNL     1       1.936   3.053  20.189  0.00  0.00    +0.000 C 
ATOM     23  O   UNL     1       3.340   3.317  20.016  0.00  0.00    +0.000 OA
BRANCH  19  28
ATOM     24  C   UNL     1       6.889   5.025  15.819  0.00  0.00    +0.000 C 
ATOM     25  C   UNL     1       6.255   4.444  17.015  0.00  0.00    +0.000 A 
ATOM     26  N   UNL     1       6.792   4.531  18.239  0.00  0.00    +0.000 NA
ATOM     27  O   UNL     1       5.872   3.847  19.037  0.00  0.00    +0.000 OA
ATOM     28  C   UNL     1       4.875   3.424  18.204  0.00  0.00    +0.000 A 
ATOM     29  N   UNL     1       5.072   3.757  16.947  0.00  0.00    +0.000 NA
ENDBRANCH  19  28
ENDBRANCH  18  22
ENDBRANCH  16  18
ENDBRANCH   1  16
TORSDOF 5
ENDMDL
MODEL 6
REMARK VINA RESULT:      -8.0      1.891      2.502
REMARK  Name = 
REMARK  6 active torsions:
REMARK  status: ('A' for Active; 'I' for Inactive)
REMARK    1  A    between atoms: C_1  and  C_2
REMARK    2  A    between atoms: C_5  and  C_6
REMARK    3  A    between atoms: C_9  and  C_10
REMARK    4  A    between atoms: C_10  and  N_11
REMARK    5  A    between atoms: N_11  and  S_12
REMARK    6  A    between atoms: S_12  and  C_15
REMARK                            x       y       z     vdW  Elec       q    Type
REMARK                         _______ _______ _______ _____ _____    ______ ____
ROOT
ATOM      1  S   UNL     1       2.450   4.982  19.960  0.00  0.00    +0.000 S 
ATOM      2  O   UNL     1       1.941   4.215  18.842  0.00  0.00    +0.000 OA
ATOM      3  O   UNL     1       2.072   4.675  21.317  0.00  0.00    +0.000 OA
ENDROOT
BRANCH   1   4
ATOM      4  C   UNL     1       2.102   6.696  19.639  0.00  0.00    +0.000 A 
ATOM      5  C   UNL     1       2.328   7.211  18.359  0.00  0.00    +0.000 A 
ATOM      6  C   UNL     1       1.991   8.537  18.075  0.00  0.00    +0.000 A 
ATOM      7  C   UNL     1       1.438   9.356  19.068  0.00  0.00    +0.000 A 
ATOM      8  C   UNL     1       1.211   8.828  20.354  0.00  0.00    +0.000 A 
ATOM      9  C   UNL     1       1.544   7.498  20.643  0.00  0.00    +0.000 A 
ATOM     10  C   UNL     1       0.584   9.681  21.408  0.00  0.00    +0.000 C 
ATOM     11  O   UNL     1       0.218   9.220  22.481  0.00  0.00    +0.000 OA
ATOM     12  N   UNL     1       0.430  11.017  21.117  0.00  0.00    +0.000 N 
ATOM     13  C   UNL     1       1.107  11.636  20.001  0.00  0.00    +0.000 C 
ATOM     14  C   UNL     1       1.011  10.768  18.751  0.00  0.00    +0.000 C 
ATOM     15  H   UNL     1       0.090  11.583  21.887  0.00  0.00    +0.000 HD
ENDBRANCH   1   4
BRANCH   1  16
ATOM     16  N   UNL     1       4.142   4.875  19.882  0.00  0.00    +0.000 NA
ATOM     17  H   UNL     1       4.554   5.687  20.343  0.00  0.00    +0.000 HD
BRANCH  16  18
ATOM     18  C   UNL     1       4.696   4.458  18.577  0.00  0.00    +0.000 C 
BRANCH  18  22
ATOM     19  C   UNL     1       6.902   5.422  15.966  0.00  0.00    +0.000 C 
ATOM     20  C   UNL     1       7.701   4.556  16.923  0.00  0.00    +0.000 C 
ATOM     21  C   UNL     1       7.210   5.036  18.267  0.00  0.00    +0.000 C 
ATOM     22  C   UNL     1       5.758   5.410  18.002  0.00  0.00    +0.000 C 
ATOM     23  O   UNL     1       5.605   5.567  16.579  0.00  0.00    +0.000 OA
BRANCH  19  28
ATOM     24  C   UNL     1       5.625   2.765  12.005  0.00  0.00    +0.000 C 
ATOM     25  C   UNL     1       6.270   3.749  12.892  0.00  0.00    +0.000 A 
ATOM     26  N   UNL     1       7.222   4.592  12.475  0.00  0.00    +0.000 NA
ATOM     27  O   UNL     1       7.534   5.313  13.630  0.00  0.00    +0.000 OA
ATOM     28  C   UNL     1       6.730   4.826  14.621  0.00  0.00    +0.000 A 
ATOM     29  N   UNL     1       5.941   3.853  14.218  0.00  0.00    +0.000 NA
ENDBRANCH  19  28
ENDBRANCH  18  22
ENDBRANCH  16  18
ENDBRANCH   1  16
TORSDOF 5
ENDMDL
MODEL 7
REMARK VINA RESULT:      -8.0      2.114      3.172
REMARK  Name = 
REMARK  6 active torsions:
REMARK  status: ('A' for Active; 'I' for Inactive)
REMARK    1  A    between atoms: C_1  and  C_2
REMARK    2  A    between atoms: C_5  and  C_6
REMARK    3  A    between atoms: C_9  and  C_10
REMARK    4  A    between atoms: C_10  and  N_11
REMARK    5  A    between atoms: N_11  and  S_12
REMARK    6  A    between atoms: S_12  and  C_15
REMARK                            x       y       z     vdW  Elec       q    Type
REMARK                         _______ _______ _______ _____ _____    ______ ____
ROOT
ATOM      1  S   UNL     1       3.120   3.090  19.303  0.00  0.00    +0.000 S 
ATOM      2  O   UNL     1       2.114   2.390  18.532  0.00  0.00    +0.000 OA
ATOM      3  O   UNL     1       3.611   2.563  20.552  0.00  0.00    +0.000 OA
ENDROOT
BRANCH   1   4
ATOM      4  C   UNL     1       2.538   4.749  19.567  0.00  0.00    +0.000 A 
ATOM      5  C   UNL     1       1.889   5.062  20.765  0.00  0.00    +0.000 A 
ATOM      6  C   UNL     1       1.491   6.379  21.015  0.00  0.00    +0.000 A 
ATOM      7  C   UNL     1       1.730   7.383  20.068  0.00  0.00    +0.000 A 
ATOM      8  C   UNL     1       2.388   7.059  18.866  0.00  0.00    +0.000 A 
ATOM      9  C   UNL     1       2.792   5.742  18.612  0.00  0.00    +0.000 A 
ATOM     10  C   UNL     1       2.685   8.131  17.868  0.00  0.00    +0.000 C 
ATOM     11  O   UNL     1       3.395   7.928  16.892  0.00  0.00    +0.000 OA
ATOM     12  N   UNL     1       2.124   9.366  18.097  0.00  0.00    +0.000 N 
ATOM     13  C   UNL     1       1.062   9.554  19.058  0.00  0.00    +0.000 C 
ATOM     14  C   UNL     1       1.363   8.818  20.359  0.00  0.00    +0.000 C 
ATOM     15  H   UNL     1       2.266  10.041  17.354  0.00  0.00    +0.000 HD
ENDBRANCH   1   4
BRANCH   1  16
ATOM     16  N   UNL     1       4.464   3.272  18.282  0.00  0.00    +0.000 NA
ATOM     17  H   UNL     1       5.062   4.016  18.642  0.00  0.00    +0.000 HD
BRANCH  16  18
ATOM     18  C   UNL     1       4.173   3.249  16.834  0.00  0.00    +0.000 C 
BRANCH  18  22
ATOM     19  C   UNL     1       6.929   5.325  15.992  0.00  0.00    +0.000 C 
ATOM     20  C   UNL     1       5.746   5.805  15.171  0.00  0.00    +0.000 C 
ATOM     21  C   UNL     1       5.101   4.505  14.758  0.00  0.00    +0.000 C 
ATOM     22  C   UNL     1       5.377   3.581  15.936  0.00  0.00    +0.000 C 
ATOM     23  O   UNL     1       6.453   4.160  16.697  0.00  0.00    +0.000 OA
BRANCH  19  28
ATOM     24  C   UNL     1       8.480   9.325  18.435  0.00  0.00    +0.000 C 
ATOM     25  C   UNL     1       8.097   7.944  18.096  0.00  0.00    +0.000 A 
ATOM     26  N   UNL     1       8.191   6.928  18.962  0.00  0.00    +0.000 NA
ATOM     27  O   UNL     1       7.736   5.836  18.219  0.00  0.00    +0.000 OA
ATOM     28  C   UNL     1       7.413   6.316  16.982  0.00  0.00    +0.000 A 
ATOM     29  N   UNL     1       7.629   7.608  16.853  0.00  0.00    +0.000 NA
ENDBRANCH  19  28
ENDBRANCH  18  22
ENDBRANCH  16  18
ENDBRANCH   1  16
TORSDOF 5
ENDMDL
MODEL 8
REMARK VINA RESULT:      -7.8      1.997      2.722
REMARK  Name = 
REMARK  6 active torsions:
REMARK  status: ('A' for Active; 'I' for Inactive)
REMARK    1  A    between atoms: C_1  and  C_2
REMARK    2  A    between atoms: C_5  and  C_6
REMARK    3  A    between atoms: C_9  and  C_10
REMARK    4  A    between atoms: C_10  and  N_11
REMARK    5  A    between atoms: N_11  and  S_12
REMARK    6  A    between atoms: S_12  and  C_15
REMARK                            x       y       z     vdW  Elec       q    Type
REMARK                         _______ _______ _______ _____ _____    ______ ____
ROOT
ATOM      1  S   UNL     1       2.267   5.283  19.584  0.00  0.00    +0.000 S 
ATOM      2  O   UNL     1       2.402   4.704  18.264  0.00  0.00    +0.000 OA
ATOM      3  O   UNL     1       1.310   4.773  20.535  0.00  0.00    +0.000 OA
ENDROOT
BRANCH   1   4
ATOM      4  C   UNL     1       2.003   7.030  19.382  0.00  0.00    +0.000 A 
ATOM      5  C   UNL     1       2.270   7.621  18.144  0.00  0.00    +0.000 A 
ATOM      6  C   UNL     1       1.998   8.978  17.950  0.00  0.00    +0.000 A 
ATOM      7  C   UNL     1       1.471   9.752  18.993  0.00  0.00    +0.000 A 
ATOM      8  C   UNL     1       1.202   9.146  20.235  0.00  0.00    +0.000 A 
ATOM      9  C   UNL     1       1.469   7.785  20.433  0.00  0.00    +0.000 A 
ATOM     10  C   UNL     1       0.601   9.952  21.340  0.00  0.00    +0.000 C 
ATOM     11  O   UNL     1       0.200   9.435  22.375  0.00  0.00    +0.000 OA
ATOM     12  N   UNL     1       0.513  11.311  21.142  0.00  0.00    +0.000 N 
ATOM     13  C   UNL     1       1.233  11.974  20.080  0.00  0.00    +0.000 C 
ATOM     14  C   UNL     1       1.114  11.201  18.771  0.00  0.00    +0.000 C 
ATOM     15  H   UNL     1       0.189  11.837  21.946  0.00  0.00    +0.000 HD
ENDBRANCH   1   4
BRANCH   1  16
ATOM     16  N   UNL     1       3.795   5.170  20.315  0.00  0.00    +0.000 NA
ATOM     17  H   UNL     1       3.999   6.041  20.807  0.00  0.00    +0.000 HD
BRANCH  16  18
ATOM     18  C   UNL     1       4.859   4.575  19.480  0.00  0.00    +0.000 C 
BRANCH  18  22
ATOM     19  C   UNL     1       6.879   5.688  16.779  0.00  0.00    +0.000 C 
ATOM     20  C   UNL     1       7.774   4.870  17.692  0.00  0.00    +0.000 C 
ATOM     21  C   UNL     1       7.315   5.312  19.060  0.00  0.00    +0.000 C 
ATOM     22  C   UNL     1       5.832   5.595  18.864  0.00  0.00    +0.000 C 
ATOM     23  O   UNL     1       5.605   5.749  17.451  0.00  0.00    +0.000 OA
BRANCH  19  28
ATOM     24  C   UNL     1       7.176   4.203  12.080  0.00  0.00    +0.000 C 
ATOM     25  C   UNL     1       6.708   4.427  13.458  0.00  0.00    +0.000 A 
ATOM     26  N   UNL     1       5.532   3.975  13.910  0.00  0.00    +0.000 NA
ATOM     27  O   UNL     1       5.511   4.418  15.235  0.00  0.00    +0.000 OA
ATOM     28  C   UNL     1       6.683   5.090  15.438  0.00  0.00    +0.000 A 
ATOM     29  N   UNL     1       7.449   5.133  14.369  0.00  0.00    +0.000 NA
ENDBRANCH  19  28
ENDBRANCH  18  22
ENDBRANCH  16  18
ENDBRANCH   1  16
TORSDOF 5
ENDMDL
MODEL 9
REMARK VINA RESULT:      -7.8      5.869      7.394
REMARK  Name = 
REMARK  6 active torsions:
REMARK  status: ('A' for Active; 'I' for Inactive)
REMARK    1  A    between atoms: C_1  and  C_2
REMARK    2  A    between atoms: C_5  and  C_6
REMARK    3  A    between atoms: C_9  and  C_10
REMARK    4  A    between atoms: C_10  and  N_11
REMARK    5  A    between atoms: N_11  and  S_12
REMARK    6  A    between atoms: S_12  and  C_15
REMARK                            x       y       z     vdW  Elec       q    Type
REMARK                         _______ _______ _______ _____ _____    ______ ____
ROOT
ATOM      1  S   UNL     1       7.335   6.716  17.551  0.00  0.00    +0.000 S 
ATOM      2  O   UNL     1       7.723   6.175  16.265  0.00  0.00    +0.000 OA
ATOM      3  O   UNL     1       8.165   6.549  18.719  0.00  0.00    +0.000 OA
ENDROOT
BRANCH   1   4
ATOM      4  C   UNL     1       5.701   6.118  17.915  0.00  0.00    +0.000 A 
ATOM      5  C   UNL     1       4.595   6.786  17.383  0.00  0.00    +0.000 A 
ATOM      6  C   UNL     1       3.309   6.284  17.602  0.00  0.00    +0.000 A 
ATOM      7  C   UNL     1       3.122   5.122  18.362  0.00  0.00    +0.000 A 
ATOM      8  C   UNL     1       4.243   4.453  18.891  0.00  0.00    +0.000 A 
ATOM      9  C   UNL     1       5.534   4.951  18.672  0.00  0.00    +0.000 A 
ATOM     10  C   UNL     1       4.057   3.191  19.667  0.00  0.00    +0.000 C 
ATOM     11  O   UNL     1       5.004   2.492  20.004  0.00  0.00    +0.000 OA
ATOM     12  N   UNL     1       2.765   2.842  19.988  0.00  0.00    +0.000 N 
ATOM     13  C   UNL     1       1.670   3.777  19.867  0.00  0.00    +0.000 C 
ATOM     14  C   UNL     1       1.743   4.537  18.547  0.00  0.00    +0.000 C 
ATOM     15  H   UNL     1       2.681   2.033  20.594  0.00  0.00    +0.000 HD
ENDBRANCH   1   4
BRANCH   1  16
ATOM     16  N   UNL     1       7.131   8.386  17.326  0.00  0.00    +0.000 NA
ATOM     17  H   UNL     1       6.530   8.547  16.517  0.00  0.00    +0.000 HD
BRANCH  16  18
ATOM     18  C   UNL     1       8.356   9.202  17.458  0.00  0.00    +0.000 C 
BRANCH  18  22
ATOM     19  C   UNL     1       9.466  12.239  18.927  0.00  0.00    +0.000 C 
ATOM     20  C   UNL     1      10.327  11.129  19.502  0.00  0.00    +0.000 C 
ATOM     21  C   UNL     1       9.317  10.031  19.725  0.00  0.00    +0.000 C 
ATOM     22  C   UNL     1       8.315  10.235  18.597  0.00  0.00    +0.000 C 
ATOM     23  O   UNL     1       8.492  11.573  18.098  0.00  0.00    +0.000 OA
BRANCH  19  28
ATOM     24  C   UNL     1      11.407  16.222  16.748  0.00  0.00    +0.000 C 
ATOM     25  C   UNL     1      11.078  14.829  17.100  0.00  0.00    +0.000 A 
ATOM     26  N   UNL     1      11.572  13.775  16.440  0.00  0.00    +0.000 NA
ATOM     27  O   UNL     1      10.995  12.689  17.103  0.00  0.00    +0.000 OA
ATOM     28  C   UNL     1      10.216  13.210  18.096  0.00  0.00    +0.000 A 
ATOM     29  N   UNL     1      10.224  14.525  18.128  0.00  0.00    +0.000 NA
ENDBRANCH  19  28
ENDBRANCH  18  22
ENDBRANCH  16  18
ENDBRANCH   1  16
TORSDOF 5
ENDMDL
