MODEL 1
REMARK VINA RESULT:      -9.3      0.000      0.000
REMARK  Name = 
REMARK  4 active torsions:
REMARK  status: ('A' for Active; 'I' for Inactive)
REMARK    1  A    between atoms: C_2  and  C_3
REMARK    2  A    between atoms: C_3  and  S_4
REMARK    3  A    between atoms: S_4  and  C_5
REMARK    4  A    between atoms: C_8  and  C_9
REMARK                            x       y       z     vdW  Elec       q    Type
REMARK                         _______ _______ _______ _____ _____    ______ ____
ROOT
ATOM      1  C   UNL     1       2.024   6.626  20.015  0.00  0.00    +0.000 A 
ATOM      2  N   UNL     1       2.515   7.428  19.049  0.00  0.00    +0.000 NA
ATOM      3  N   UNL     1       3.462   6.948  18.157  0.00  0.00    +0.000 NA
ATOM      4  C   UNL     1       3.951   5.685  18.252  0.00  0.00    +0.000 A 
ATOM      5  C   UNL     1       3.491   4.823  19.281  0.00  0.00    +0.000 A 
ATOM      6  C   UNL     1       4.006   3.518  19.522  0.00  0.00    +0.000 A 
ATOM      7  C   UNL     1       3.449   2.648  20.457  0.00  0.00    +0.000 A 
ATOM      8  C   UNL     1       2.391   3.074  21.235  0.00  0.00    +0.000 A 
ATOM      9  C   UNL     1       1.926   4.381  21.101  0.00  0.00    +0.000 A 
ATOM     10  C   UNL     1       2.462   5.288  20.145  0.00  0.00    +0.000 A 
ENDROOT
BRANCH   4  11
ATOM     11  C   UNL     1       4.950   5.325  17.199  0.00  0.00    +0.000 A 
ATOM     12  C   UNL     1       6.236   5.903  17.183  0.00  0.00    +0.000 A 
ATOM     13  C   UNL     1       7.199   5.540  16.230  0.00  0.00    +0.000 A 
ATOM     14  C   UNL     1       6.910   4.575  15.270  0.00  0.00    +0.000 A 
ATOM     15  C   UNL     1       5.644   4.006  15.237  0.00  0.00    +0.000 A 
ATOM     16  C   UNL     1       4.674   4.405  16.165  0.00  0.00    +0.000 A 
ENDBRANCH   4  11
BRANCH   1  17
ATOM     17  S   UNL     1       0.919   7.367  21.233  0.00  0.00    +0.000 S 
BRANCH  17  18
ATOM     18  C   UNL     1       1.502   9.095  21.336  0.00  0.00    +0.000 C 
BRANCH  18  20
ATOM     19  O   UNL     1       0.175  10.251  23.029  0.00  0.00    +0.000 OA
ATOM     20  C   UNL     1       0.392  10.039  21.834  0.00  0.00    +0.000 C 
ATOM     21  N   UNL     1      -0.383  10.670  20.849  0.00  0.00    +0.000 N 
ATOM     22  C   UNL     1      -1.424  11.628  21.279  0.00  0.00    +0.000 C 
ATOM     23  C   UNL     1      -1.838  12.587  20.160  0.00  0.00    +0.000 C 
ATOM     24  C   UNL     1      -2.348  11.735  19.029  0.00  0.00    +0.000 A 
ATOM     25  C   UNL     1      -3.589  11.948  18.425  0.00  0.00    +0.000 A 
ATOM     26  C   UNL     1      -4.037  11.063  17.446  0.00  0.00    +0.000 A 
ATOM     27  C   UNL     1      -3.232   9.996  17.040  0.00  0.00    +0.000 A 
ATOM     28  C   UNL     1      -1.987   9.788  17.634  0.00  0.00    +0.000 A 
ATOM     29  C   UNL     1      -1.554  10.633  18.660  0.00  0.00    +0.000 A 
ATOM     30  C   UNL     1      -0.266  10.382  19.412  0.00  0.00    +0.000 C 
ENDBRANCH  18  20
ENDBRANCH  17  18
ENDBRANCH   1  17
TORSDOF 4
ENDMDL
MODEL 2
REMARK VINA RESULT:      -8.9      2.440      9.970
REMARK  Name = 
REMARK  4 active torsions:
REMARK  status: ('A' for Active; 'I' for Inactive)
REMARK    1  A    between atoms: C_2  and  C_3
REMARK    2  A    between atoms: C_3  and  S_4
REMARK    3  A    between atoms: S_4  and  C_5
REMARK    4  A    between atoms: C_8  and  C_9
REMARK                            x       y       z     vdW  Elec       q    Type
REMARK                         _______ _______ _______ _____ _____    ______ ____
ROOT
ATOM      1  C   UNL     1      -0.792  11.494  19.322  0.00  0.00    +0.000 A 
ATOM      2  N   UNL     1      -1.095  12.254  20.393  0.00  0.00    +0.000 NA
ATOM      3  N   UNL     1      -2.403  12.658  20.615  0.00  0.00    +0.000 NA
ATOM      4  C   UNL     1      -3.400  12.344  19.749  0.00  0.00    +0.000 A 
ATOM      5  C   UNL     1      -3.115  11.581  18.586  0.00  0.00    +0.000 A 
ATOM      6  C   UNL     1      -4.068  11.279  17.573  0.00  0.00    +0.000 A 
ATOM      7  C   UNL     1      -3.791  10.424  16.508  0.00  0.00    +0.000 A 
ATOM      8  C   UNL     1      -2.526   9.886  16.381  0.00  0.00    +0.000 A 
ATOM      9  C   UNL     1      -1.536  10.241  17.295  0.00  0.00    +0.000 A 
ATOM     10  C   UNL     1      -1.790  11.099  18.401  0.00  0.00    +0.000 A 
ENDROOT
BRANCH   4  11
ATOM     11  C   UNL     1      -4.752  12.843  20.150  0.00  0.00    +0.000 A 
ATOM     12  C   UNL     1      -4.993  14.218  20.348  0.00  0.00    +0.000 A 
ATOM     13  C   UNL     1      -6.267  14.706  20.677  0.00  0.00    +0.000 A 
ATOM     14  C   UNL     1      -7.343  13.833  20.806  0.00  0.00    +0.000 A 
ATOM     15  C   UNL     1      -7.135  12.469  20.648  0.00  0.00    +0.000 A 
ATOM     16  C   UNL     1      -5.852  11.985  20.361  0.00  0.00    +0.000 A 
ENDBRANCH   4  11
BRANCH   1  17
ATOM     17  S   UNL     1       0.950  11.143  19.013  0.00  0.00    +0.000 S 
BRANCH  17  18
ATOM     18  C   UNL     1       1.113   9.381  19.466  0.00  0.00    +0.000 C 
BRANCH  18  20
ATOM     19  O   UNL     1       2.235   9.049  17.323  0.00  0.00    +0.000 OA
ATOM     20  C   UNL     1       1.962   8.607  18.441  0.00  0.00    +0.000 C 
ATOM     21  N   UNL     1       2.429   7.345  18.839  0.00  0.00    +0.000 N 
ATOM     22  C   UNL     1       3.294   6.589  17.908  0.00  0.00    +0.000 C 
ATOM     23  C   UNL     1       4.117   5.510  18.616  0.00  0.00    +0.000 C 
ATOM     24  C   UNL     1       3.133   4.585  19.281  0.00  0.00    +0.000 A 
ATOM     25  C   UNL     1       3.162   3.200  19.105  0.00  0.00    +0.000 A 
ATOM     26  C   UNL     1       2.164   2.414  19.677  0.00  0.00    +0.000 A 
ATOM     27  C   UNL     1       1.167   3.002  20.458  0.00  0.00    +0.000 A 
ATOM     28  C   UNL     1       1.142   4.384  20.645  0.00  0.00    +0.000 A 
ATOM     29  C   UNL     1       2.102   5.188  20.026  0.00  0.00    +0.000 A 
ATOM     30  C   UNL     1       2.052   6.698  20.104  0.00  0.00    +0.000 C 
ENDBRANCH  18  20
ENDBRANCH  17  18
ENDBRANCH   1  17
TORSDOF 4
ENDMDL
MODEL 3
REMARK VINA RESULT:      -8.8      0.684      1.177
REMARK  Name = 
REMARK  4 active torsions:
REMARK  status: ('A' for Active; 'I' for Inactive)
REMARK    1  A    between atoms: C_2  and  C_3
REMARK    2  A    between atoms: C_3  and  S_4
REMARK    3  A    between atoms: S_4  and  C_5
REMARK    4  A    between atoms: C_8  and  C_9
REMARK                            x       y       z     vdW  Elec       q    Type
REMARK                         _______ _______ _______ _____ _____    ______ ____
ROOT
ATOM      1  C   UNL     1       2.265   6.864  19.724  0.00  0.00    +0.000 A 
ATOM      2  N   UNL     1       2.790   7.596  18.720  0.00  0.00    +0.000 NA
ATOM      3  N   UNL     1       3.691   7.023  17.836  0.00  0.00    +0.000 NA
ATOM      4  C   UNL     1       4.102   5.736  17.975  0.00  0.00    +0.000 A 
ATOM      5  C   UNL     1       3.605   4.945  19.043  0.00  0.00    +0.000 A 
ATOM      6  C   UNL     1       4.043   3.621  19.330  0.00  0.00    +0.000 A 
ATOM      7  C   UNL     1       3.447   2.825  20.306  0.00  0.00    +0.000 A 
ATOM      8  C   UNL     1       2.430   3.347  21.080  0.00  0.00    +0.000 A 
ATOM      9  C   UNL     1       2.045   4.674  20.900  0.00  0.00    +0.000 A 
ATOM     10  C   UNL     1       2.621   5.508  19.902  0.00  0.00    +0.000 A 
ENDROOT
BRANCH   4  11
ATOM     11  C   UNL     1       5.060   5.273  16.924  0.00  0.00    +0.000 A 
ATOM     12  C   UNL     1       4.623   4.510  15.822  0.00  0.00    +0.000 A 
ATOM     13  C   UNL     1       5.502   4.109  14.804  0.00  0.00    +0.000 A 
ATOM     14  C   UNL     1       6.845   4.472  14.850  0.00  0.00    +0.000 A 
ATOM     15  C   UNL     1       7.316   5.198  15.936  0.00  0.00    +0.000 A 
ATOM     16  C   UNL     1       6.442   5.558  16.970  0.00  0.00    +0.000 A 
ENDBRANCH   4  11
BRANCH   1  17
ATOM     17  S   UNL     1       1.228   7.720  20.926  0.00  0.00    +0.000 S 
BRANCH  17  18
ATOM     18  C   UNL     1       1.137   9.423  20.271  0.00  0.00    +0.000 C 
BRANCH  18  20
ATOM     19  O   UNL     1       0.408  10.432  22.371  0.00  0.00    +0.000 OA
ATOM     20  C   UNL     1       0.255  10.324  21.153  0.00  0.00    +0.000 C 
ATOM     21  N   UNL     1      -0.759  11.042  20.499  0.00  0.00    +0.000 N 
ATOM     22  C   UNL     1      -1.597  11.962  21.297  0.00  0.00    +0.000 C 
ATOM     23  C   UNL     1      -2.296  13.017  20.434  0.00  0.00    +0.000 C 
ATOM     24  C   UNL     1      -3.144  12.268  19.441  0.00  0.00    +0.000 A 
ATOM     25  C   UNL     1      -4.501  12.538  19.255  0.00  0.00    +0.000 A 
ATOM     26  C   UNL     1      -5.246  11.743  18.385  0.00  0.00    +0.000 A 
ATOM     27  C   UNL     1      -4.629  10.713  17.672  0.00  0.00    +0.000 A 
ATOM     28  C   UNL     1      -3.270  10.449  17.848  0.00  0.00    +0.000 A 
ATOM     29  C   UNL     1      -2.528  11.199  18.763  0.00  0.00    +0.000 A 
ATOM     30  C   UNL     1      -1.083  10.879  19.074  0.00  0.00    +0.000 C 
ENDBRANCH  18  20
ENDBRANCH  17  18
ENDBRANCH   1  17
TORSDOF 4
ENDMDL
MODEL 4
REMARK VINA RESULT:      -8.7      2.280      9.495
REMARK  Name = 
REMARK  4 active torsions:
REMARK  status: ('A' for Active; 'I' for Inactive)
REMARK    1  A    between atoms: C_2  and  C_3
REMARK    2  A    between atoms: C_3  and  S_4
REMARK    3  A    between atoms: S_4  and  C_5
REMARK    4  A    between atoms: C_8  and  C_9
REMARK                            x       y       z     vdW  Elec       q    Type
REMARK                         _______ _______ _______ _____ _____    ______ ____
ROOT
ATOM      1  C   UNL     1       0.821   9.118  21.491  0.00  0.00    +0.000 A 
ATOM      2  N   UNL     1       0.733   9.379  22.810  0.00  0.00    +0.000 NA
ATOM      3  N   UNL     1      -0.088  10.399  23.266  0.00  0.00    +0.000 NA
ATOM      4  C   UNL     1      -0.786  11.186  22.408  0.00  0.00    +0.000 A 
ATOM      5  C   UNL     1      -0.687  10.972  21.009  0.00  0.00    +0.000 A 
ATOM      6  C   UNL     1      -1.302  11.798  20.027  0.00  0.00    +0.000 A 
ATOM      7  C   UNL     1      -1.291  11.489  18.668  0.00  0.00    +0.000 A 
ATOM      8  C   UNL     1      -0.607  10.372  18.231  0.00  0.00    +0.000 A 
ATOM      9  C   UNL     1       0.096   9.596  19.151  0.00  0.00    +0.000 A 
ATOM     10  C   UNL     1       0.091   9.875  20.546  0.00  0.00    +0.000 A 
ENDROOT
BRANCH   4  11
ATOM     11  C   UNL     1      -1.635  12.225  23.070  0.00  0.00    +0.000 A 
ATOM     12  C   UNL     1      -2.956  11.941  23.471  0.00  0.00    +0.000 A 
ATOM     13  C   UNL     1      -3.748  12.891  24.135  0.00  0.00    +0.000 A 
ATOM     14  C   UNL     1      -3.237  14.151  24.430  0.00  0.00    +0.000 A 
ATOM     15  C   UNL     1      -1.950  14.475  24.023  0.00  0.00    +0.000 A 
ATOM     16  C   UNL     1      -1.180  13.537  23.323  0.00  0.00    +0.000 A 
ENDBRANCH   4  11
BRANCH   1  17
ATOM     17  S   UNL     1       2.028   7.886  20.962  0.00  0.00    +0.000 S 
BRANCH  17  18
ATOM     18  C   UNL     1       1.018   6.386  20.708  0.00  0.00    +0.000 C 
BRANCH  18  20
ATOM     19  O   UNL     1       2.030   4.363  21.627  0.00  0.00    +0.000 OA
ATOM     20  C   UNL     1       1.887   5.116  20.662  0.00  0.00    +0.000 C 
ATOM     21  N   UNL     1       2.527   4.839  19.444  0.00  0.00    +0.000 N 
ATOM     22  C   UNL     1       3.328   3.601  19.336  0.00  0.00    +0.000 C 
ATOM     23  C   UNL     1       3.547   3.168  17.883  0.00  0.00    +0.000 C 
ATOM     24  C   UNL     1       4.251   4.307  17.196  0.00  0.00    +0.000 A 
ATOM     25  C   UNL     1       5.429   4.135  16.464  0.00  0.00    +0.000 A 
ATOM     26  C   UNL     1       6.076   5.249  15.932  0.00  0.00    +0.000 A 
ATOM     27  C   UNL     1       5.528   6.523  16.091  0.00  0.00    +0.000 A 
ATOM     28  C   UNL     1       4.346   6.697  16.812  0.00  0.00    +0.000 A 
ATOM     29  C   UNL     1       3.721   5.595  17.402  0.00  0.00    +0.000 A 
ATOM     30  C   UNL     1       2.503   5.745  18.286  0.00  0.00    +0.000 C 
ENDBRANCH  18  20
ENDBRANCH  17  18
ENDBRANCH   1  17
TORSDOF 4
ENDMDL
MODEL 5
REMARK VINA RESULT:      -8.7      1.485      2.180
REMARK  Name = 
REMARK  4 active torsions:
REMARK  status: ('A' for Active; 'I' for Inactive)
REMARK    1  A    between atoms: C_2  and  C_3
REMARK    2  A    between atoms: C_3  and  S_4
REMARK    3  A    between atoms: S_4  and  C_5
REMARK    4  A    between atoms: C_8  and  C_9
REMARK                            x       y       z     vdW  Elec       q    Type
REMARK                         _______ _______ _______ _____ _____    ______ ____
ROOT
ATOM      1  C   UNL     1       3.287   6.282  18.276  0.00  0.00    +0.000 A 
ATOM      2  N   UNL     1       3.970   7.096  17.447  0.00  0.00    +0.000 NA
ATOM      3  N   UNL     1       4.709   6.567  16.400  0.00  0.00    +0.000 NA
ATOM      4  C   UNL     1       4.802   5.227  16.203  0.00  0.00    +0.000 A 
ATOM      5  C   UNL     1       4.133   4.334  17.079  0.00  0.00    +0.000 A 
ATOM      6  C   UNL     1       4.243   2.916  17.015  0.00  0.00    +0.000 A 
ATOM      7  C   UNL     1       3.476   2.063  17.806  0.00  0.00    +0.000 A 
ATOM      8  C   UNL     1       2.612   2.598  18.741  0.00  0.00    +0.000 A 
ATOM      9  C   UNL     1       2.553   3.981  18.906  0.00  0.00    +0.000 A 
ATOM     10  C   UNL     1       3.311   4.878  18.104  0.00  0.00    +0.000 A 
ENDROOT
BRANCH   4  11
ATOM     11  C   UNL     1       5.623   4.829  15.017  0.00  0.00    +0.000 A 
ATOM     12  C   UNL     1       5.103   3.977  14.023  0.00  0.00    +0.000 A 
ATOM     13  C   UNL     1       5.844   3.633  12.882  0.00  0.00    +0.000 A 
ATOM     14  C   UNL     1       7.125   4.144  12.693  0.00  0.00    +0.000 A 
ATOM     15  C   UNL     1       7.680   4.964  13.668  0.00  0.00    +0.000 A 
ATOM     16  C   UNL     1       6.951   5.268  14.825  0.00  0.00    +0.000 A 
ENDBRANCH   4  11
BRANCH   1  17
ATOM     17  S   UNL     1       2.483   7.030  19.707  0.00  0.00    +0.000 S 
BRANCH  17  18
ATOM     18  C   UNL     1       1.825   8.601  19.048  0.00  0.00    +0.000 C 
BRANCH  18  20
ATOM     19  O   UNL     1       1.118   9.213  21.304  0.00  0.00    +0.000 OA
ATOM     20  C   UNL     1       0.957   9.333  20.088  0.00  0.00    +0.000 C 
ATOM     21  N   UNL     1      -0.052  10.170  19.585  0.00  0.00    +0.000 N 
ATOM     22  C   UNL     1      -0.875  10.936  20.546  0.00  0.00    +0.000 C 
ATOM     23  C   UNL     1      -1.566  12.139  19.897  0.00  0.00    +0.000 C 
ATOM     24  C   UNL     1      -2.428  11.595  18.790  0.00  0.00    +0.000 A 
ATOM     25  C   UNL     1      -3.783  11.908  18.666  0.00  0.00    +0.000 A 
ATOM     26  C   UNL     1      -4.542  11.295  17.670  0.00  0.00    +0.000 A 
ATOM     27  C   UNL     1      -3.941  10.408  16.774  0.00  0.00    +0.000 A 
ATOM     28  C   UNL     1      -2.584  10.103  16.889  0.00  0.00    +0.000 A 
ATOM     29  C   UNL     1      -1.828  10.664  17.921  0.00  0.00    +0.000 A 
ATOM     30  C   UNL     1      -0.385  10.277  18.157  0.00  0.00    +0.000 C 
ENDBRANCH  18  20
ENDBRANCH  17  18
ENDBRANCH   1  17
TORSDOF 4
ENDMDL
MODEL 6
REMARK VINA RESULT:      -8.4      2.660     10.020
REMARK  Name = 
REMARK  4 active torsions:
REMARK  status: ('A' for Active; 'I' for Inactive)
REMARK    1  A    between atoms: C_2  and  C_3
REMARK    2  A    between atoms: C_3  and  S_4
REMARK    3  A    between atoms: S_4  and  C_5
REMARK    4  A    between atoms: C_8  and  C_9
REMARK                            x       y       z     vdW  Elec       q    Type
REMARK                         _______ _______ _______ _____ _____    ______ ____
ROOT
ATOM      1  C   UNL     1       0.099  11.432  20.003  0.00  0.00    +0.000 A 
ATOM      2  N   UNL     1       0.746  11.832  21.117  0.00  0.00    +0.000 NA
ATOM      3  N   UNL     1       0.065  12.515  22.112  0.00  0.00    +0.000 NA
ATOM      4  C   UNL     1      -1.247  12.838  21.982  0.00  0.00    +0.000 A 
ATOM      5  C   UNL     1      -1.954  12.473  20.807  0.00  0.00    +0.000 A 
ATOM      6  C   UNL     1      -3.301  12.845  20.534  0.00  0.00    +0.000 A 
ATOM      7  C   UNL     1      -4.007  12.366  19.432  0.00  0.00    +0.000 A 
ATOM      8  C   UNL     1      -3.370  11.545  18.523  0.00  0.00    +0.000 A 
ATOM      9  C   UNL     1      -2.021  11.243  18.700  0.00  0.00    +0.000 A 
ATOM     10  C   UNL     1      -1.277  11.703  19.822  0.00  0.00    +0.000 A 
ENDROOT
BRANCH   4  11
ATOM     11  C   UNL     1      -1.830  13.558  23.158  0.00  0.00    +0.000 A 
ATOM     12  C   UNL     1      -3.073  13.179  23.703  0.00  0.00    +0.000 A 
ATOM     13  C   UNL     1      -3.609  13.814  24.834  0.00  0.00    +0.000 A 
ATOM     14  C   UNL     1      -2.910  14.839  25.463  0.00  0.00    +0.000 A 
ATOM     15  C   UNL     1      -1.696  15.259  24.935  0.00  0.00    +0.000 A 
ATOM     16  C   UNL     1      -1.187  14.649  23.781  0.00  0.00    +0.000 A 
ENDBRANCH   4  11
BRANCH   1  17
ATOM     17  S   UNL     1       1.084  10.694  18.685  0.00  0.00    +0.000 S 
BRANCH  17  18
ATOM     18  C   UNL     1       1.484   9.034  19.336  0.00  0.00    +0.000 C 
BRANCH  18  20
ATOM     19  O   UNL     1       2.649   8.647  17.226  0.00  0.00    +0.000 OA
ATOM     20  C   UNL     1       2.305   8.211  18.326  0.00  0.00    +0.000 C 
ATOM     21  N   UNL     1       2.660   6.911  18.718  0.00  0.00    +0.000 N 
ATOM     22  C   UNL     1       3.494   6.104  17.803  0.00  0.00    +0.000 C 
ATOM     23  C   UNL     1       4.207   4.953  18.521  0.00  0.00    +0.000 C 
ATOM     24  C   UNL     1       3.132   4.099  19.138  0.00  0.00    +0.000 A 
ATOM     25  C   UNL     1       3.060   2.718  18.939  0.00  0.00    +0.000 A 
ATOM     26  C   UNL     1       1.985   2.004  19.466  0.00  0.00    +0.000 A 
ATOM     27  C   UNL     1       1.010   2.657  20.223  0.00  0.00    +0.000 A 
ATOM     28  C   UNL     1       1.087   4.035  20.432  0.00  0.00    +0.000 A 
ATOM     29  C   UNL     1       2.126   4.770  19.858  0.00  0.00    +0.000 A 
ATOM     30  C   UNL     1       2.190   6.278  19.959  0.00  0.00    +0.000 C 
ENDBRANCH  18  20
ENDBRANCH  17  18
ENDBRANCH   1  17
TORSDOF 4
ENDMDL
MODEL 7
REMARK VINA RESULT:      -8.3      5.626      8.920
REMARK  Name = 
REMARK  4 active torsions:
REMARK  status: ('A' for Active; 'I' for Inactive)
REMARK    1  A    between atoms: C_2  and  C_3
REMARK    2  A    between atoms: C_3  and  S_4
REMARK    3  A    between atoms: S_4  and  C_5
REMARK    4  A    between atoms: C_8  and  C_9
REMARK                            x       y       z     vdW  Elec       q    Type
REMARK                         _______ _______ _______ _____ _____    ______ ____
ROOT
ATOM      1  C   UNL     1      -1.329  11.254  19.460  0.00  0.00    +0.000 A 
ATOM      2  N   UNL     1      -1.988  12.429  19.493  0.00  0.00    +0.000 NA
ATOM      3  N   UNL     1      -2.196  13.080  20.699  0.00  0.00    +0.000 NA
ATOM      4  C   UNL     1      -1.787  12.541  21.876  0.00  0.00    +0.000 A 
ATOM      5  C   UNL     1      -1.128  11.285  21.890  0.00  0.00    +0.000 A 
ATOM      6  C   UNL     1      -0.744  10.594  23.074  0.00  0.00    +0.000 A 
ATOM      7  C   UNL     1       0.013   9.424  23.053  0.00  0.00    +0.000 A 
ATOM      8  C   UNL     1       0.363   8.864  21.840  0.00  0.00    +0.000 A 
ATOM      9  C   UNL     1      -0.083   9.454  20.659  0.00  0.00    +0.000 A 
ATOM     10  C   UNL     1      -0.843  10.656  20.646  0.00  0.00    +0.000 A 
ENDROOT
BRANCH   4  11
ATOM     11  C   UNL     1      -2.074  13.384  23.079  0.00  0.00    +0.000 A 
ATOM     12  C   UNL     1      -1.148  14.344  23.535  0.00  0.00    +0.000 A 
ATOM     13  C   UNL     1      -1.424  15.174  24.633  0.00  0.00    +0.000 A 
ATOM     14  C   UNL     1      -2.642  15.079  25.299  0.00  0.00    +0.000 A 
ATOM     15  C   UNL     1      -3.565  14.124  24.895  0.00  0.00    +0.000 A 
ATOM     16  C   UNL     1      -3.266  13.270  23.826  0.00  0.00    +0.000 A 
ENDBRANCH   4  11
BRANCH   1  17
ATOM     17  S   UNL     1      -1.239  10.391  17.879  0.00  0.00    +0.000 S 
BRANCH  17  18
ATOM     18  C   UNL     1      -2.963   9.858  17.590  0.00  0.00    +0.000 C 
BRANCH  18  20
ATOM     19  O   UNL     1      -3.520  11.413  15.792  0.00  0.00    +0.000 OA
ATOM     20  C   UNL     1      -3.791  10.961  16.906  0.00  0.00    +0.000 C 
ATOM     21  N   UNL     1      -4.900  11.445  17.617  0.00  0.00    +0.000 N 
ATOM     22  C   UNL     1      -5.756  12.465  16.977  0.00  0.00    +0.000 C 
ATOM     23  C   UNL     1      -7.151  12.539  17.605  0.00  0.00    +0.000 C 
ATOM     24  C   UNL     1      -6.951  12.865  19.061  0.00  0.00    +0.000 A 
ATOM     25  C   UNL     1      -7.609  13.921  19.695  0.00  0.00    +0.000 A 
ATOM     26  C   UNL     1      -7.306  14.222  21.022  0.00  0.00    +0.000 A 
ATOM     27  C   UNL     1      -6.383  13.446  21.726  0.00  0.00    +0.000 A 
ATOM     28  C   UNL     1      -5.733  12.383  21.098  0.00  0.00    +0.000 A 
ATOM     29  C   UNL     1      -5.983  12.110  19.751  0.00  0.00    +0.000 A 
ATOM     30  C   UNL     1      -5.221  11.044  18.995  0.00  0.00    +0.000 C 
ENDBRANCH  18  20
ENDBRANCH  17  18
ENDBRANCH   1  17
TORSDOF 4
ENDMDL
MODEL 8
REMARK VINA RESULT:      -8.3      2.422      9.289
REMARK  Name = 
REMARK  4 active torsions:
REMARK  status: ('A' for Active; 'I' for Inactive)
REMARK    1  A    between atoms: C_2  and  C_3
REMARK    2  A    between atoms: C_3  and  S_4
REMARK    3  A    between atoms: S_4  and  C_5
REMARK    4  A    between atoms: C_8  and  C_9
REMARK                            x       y       z     vdW  Elec       q    Type
REMARK                         _______ _______ _______ _____ _____    ______ ____
ROOT
ATOM      1  C   UNL     1       0.423  10.364  20.783  0.00  0.00    +0.000 A 
ATOM      2  N   UNL     1       1.117  11.288  21.476  0.00  0.00    +0.000 NA
ATOM      3  N   UNL     1       1.036  12.628  21.129  0.00  0.00    +0.000 NA
ATOM      4  C   UNL     1       0.300  13.044  20.068  0.00  0.00    +0.000 A 
ATOM      5  C   UNL     1      -0.413  12.098  19.286  0.00  0.00    +0.000 A 
ATOM      6  C   UNL     1      -1.136  12.419  18.102  0.00  0.00    +0.000 A 
ATOM      7  C   UNL     1      -1.928  11.493  17.428  0.00  0.00    +0.000 A 
ATOM      8  C   UNL     1      -1.977  10.187  17.876  0.00  0.00    +0.000 A 
ATOM      9  C   UNL     1      -1.201   9.810  18.970  0.00  0.00    +0.000 A 
ATOM     10  C   UNL     1      -0.394  10.734  19.689  0.00  0.00    +0.000 A 
ENDROOT
BRANCH   4  11
ATOM     11  C   UNL     1       0.308  14.523  19.847  0.00  0.00    +0.000 A 
ATOM     12  C   UNL     1       1.338  15.147  19.115  0.00  0.00    +0.000 A 
ATOM     13  C   UNL     1       1.334  16.527  18.859  0.00  0.00    +0.000 A 
ATOM     14  C   UNL     1       0.290  17.324  19.317  0.00  0.00    +0.000 A 
ATOM     15  C   UNL     1      -0.727  16.748  20.067  0.00  0.00    +0.000 A 
ATOM     16  C   UNL     1      -0.694  15.378  20.354  0.00  0.00    +0.000 A 
ENDBRANCH   4  11
BRANCH   1  17
ATOM     17  S   UNL     1       0.703   8.630  21.189  0.00  0.00    +0.000 S 
BRANCH  17  18
ATOM     18  C   UNL     1       1.938   8.100  19.951  0.00  0.00    +0.000 C 
BRANCH  18  20
ATOM     19  O   UNL     1       1.551   5.820  20.732  0.00  0.00    +0.000 OA
ATOM     20  C   UNL     1       2.070   6.567  19.901  0.00  0.00    +0.000 C 
ATOM     21  N   UNL     1       2.823   6.037  18.842  0.00  0.00    +0.000 N 
ATOM     22  C   UNL     1       2.931   4.567  18.722  0.00  0.00    +0.000 C 
ATOM     23  C   UNL     1       3.328   4.121  17.312  0.00  0.00    +0.000 C 
ATOM     24  C   UNL     1       4.653   4.768  17.012  0.00  0.00    +0.000 A 
ATOM     25  C   UNL     1       5.761   4.046  16.564  0.00  0.00    +0.000 A 
ATOM     26  C   UNL     1       6.983   4.696  16.395  0.00  0.00    +0.000 A 
ATOM     27  C   UNL     1       7.087   6.068  16.630  0.00  0.00    +0.000 A 
ATOM     28  C   UNL     1       5.979   6.794  17.067  0.00  0.00    +0.000 A 
ATOM     29  C   UNL     1       4.766   6.142  17.298  0.00  0.00    +0.000 A 
ATOM     30  C   UNL     1       3.569   6.861  17.880  0.00  0.00    +0.000 C 
ENDBRANCH  18  20
ENDBRANCH  17  18
ENDBRANCH   1  17
TORSDOF 4
ENDMDL
MODEL 9
REMARK VINA RESULT:      -8.3      1.086      1.719
REMARK  Name = 
REMARK  4 active torsions:
REMARK  status: ('A' for Active; 'I' for Inactive)
REMARK    1  A    between atoms: C_2  and  C_3
REMARK    2  A    between atoms: C_3  and  S_4
REMARK    3  A    between atoms: S_4  and  C_5
REMARK    4  A    between atoms: C_8  and  C_9
REMARK                            x       y       z     vdW  Elec       q    Type
REMARK                         _______ _______ _______ _____ _____    ______ ____
ROOT
ATOM      1  C   UNL     1       1.951   6.694  19.882  0.00  0.00    +0.000 A 
ATOM      2  N   UNL     1       2.709   7.449  19.062  0.00  0.00    +0.000 NA
ATOM      3  N   UNL     1       3.675   6.858  18.262  0.00  0.00    +0.000 NA
ATOM      4  C   UNL     1       3.916   5.523  18.310  0.00  0.00    +0.000 A 
ATOM      5  C   UNL     1       3.169   4.698  19.191  0.00  0.00    +0.000 A 
ATOM      6  C   UNL     1       3.408   3.308  19.383  0.00  0.00    +0.000 A 
ATOM      7  C   UNL     1       2.579   2.501  20.158  0.00  0.00    +0.000 A 
ATOM      8  C   UNL     1       1.511   3.067  20.827  0.00  0.00    +0.000 A 
ATOM      9  C   UNL     1       1.307   4.443  20.747  0.00  0.00    +0.000 A 
ATOM     10  C   UNL     1       2.125   5.292  19.952  0.00  0.00    +0.000 A 
ENDROOT
BRANCH   4  11
ATOM     11  C   UNL     1       4.977   5.049  17.367  0.00  0.00    +0.000 A 
ATOM     12  C   UNL     1       4.660   4.639  16.057  0.00  0.00    +0.000 A 
ATOM     13  C   UNL     1       5.650   4.238  15.147  0.00  0.00    +0.000 A 
ATOM     14  C   UNL     1       6.992   4.248  15.517  0.00  0.00    +0.000 A 
ATOM     15  C   UNL     1       7.338   4.617  16.810  0.00  0.00    +0.000 A 
ATOM     16  C   UNL     1       6.340   4.975  17.726  0.00  0.00    +0.000 A 
ENDBRANCH   4  11
BRANCH   1  17
ATOM     17  S   UNL     1       0.831   7.549  21.007  0.00  0.00    +0.000 S 
BRANCH  17  18
ATOM     18  C   UNL     1       0.848   9.270  20.393  0.00  0.00    +0.000 C 
BRANCH  18  20
ATOM     19  O   UNL     1       0.896  10.194  22.652  0.00  0.00    +0.000 OA
ATOM     20  C   UNL     1       0.468  10.271  21.499  0.00  0.00    +0.000 C 
ATOM     21  N   UNL     1      -0.406  11.307  21.134  0.00  0.00    +0.000 N 
ATOM     22  C   UNL     1      -0.755  12.324  22.149  0.00  0.00    +0.000 C 
ATOM     23  C   UNL     1      -1.280  13.620  21.525  0.00  0.00    +0.000 C 
ATOM     24  C   UNL     1      -2.496  13.248  20.720  0.00  0.00    +0.000 A 
ATOM     25  C   UNL     1      -3.725  13.896  20.866  0.00  0.00    +0.000 A 
ATOM     26  C   UNL     1      -4.832  13.438  20.154  0.00  0.00    +0.000 A 
ATOM     27  C   UNL     1      -4.704  12.367  19.267  0.00  0.00    +0.000 A 
ATOM     28  C   UNL     1      -3.474  11.725  19.110  0.00  0.00    +0.000 A 
ATOM     29  C   UNL     1      -2.373  12.136  19.865  0.00  0.00    +0.000 A 
ATOM     30  C   UNL     1      -1.052  11.402  19.817  0.00  0.00    +0.000 C 
ENDBRANCH  18  20
ENDBRANCH  17  18
ENDBRANCH   1  17
TORSDOF 4
ENDMDL
