MODEL 1
REMARK VINA RESULT:      -8.7      0.000      0.000
REMARK  Name = 
REMARK  7 active torsions:
REMARK  status: ('A' for Active; 'I' for Inactive)
REMARK    1  A    between atoms: C_1  and  C_2
REMARK    2  A    between atoms: C_4  and  C_5
REMARK    3  A    between atoms: C_9  and  N_10
REMARK    4  A    between atoms: N_10  and  S_11
REMARK    5  A    between atoms: S_11  and  C_14
REMARK    6  A    between atoms: C_17  and  C_18
REMARK    7  A    between atoms: C_26  and  C_27
REMARK                            x       y       z     vdW  Elec       q    Type
REMARK                         _______ _______ _______ _____ _____    ______ ____
ROOT
ATOM      1  N   UNL     1       4.844   3.146  19.493  0.00  0.00    +0.000 N 
ATOM      2  H   UNL     1       5.265   2.246  19.711  0.00  0.00    +0.000 HD
ENDROOT
BRANCH   1   7
ATOM      3  C   UNL     1       6.508   4.809  16.600  0.00  0.00    +0.000 A 
ATOM      4  C   UNL     1       7.091   5.900  17.266  0.00  0.00    +0.000 A 
ATOM      5  C   UNL     1       6.924   6.083  18.637  0.00  0.00    +0.000 A 
ATOM      6  C   UNL     1       6.163   5.173  19.363  0.00  0.00    +0.000 A 
ATOM      7  C   UNL     1       5.583   4.079  18.719  0.00  0.00    +0.000 A 
ATOM      8  C   UNL     1       5.746   3.894  17.341  0.00  0.00    +0.000 A 
BRANCH   3  12
ATOM      9  C   UNL     1       7.987   5.618  11.987  0.00  0.00    +0.000 C 
ATOM     10  C   UNL     1       7.316   4.977  13.135  0.00  0.00    +0.000 A 
ATOM     11  N   UNL     1       7.502   5.454  14.407  0.00  0.00    +0.000 NA
ATOM     12  C   UNL     1       6.736   4.689  15.162  0.00  0.00    +0.000 A 
ATOM     13  O   UNL     1       6.066   3.712  14.473  0.00  0.00    +0.000 OA
ATOM     14  C   UNL     1       6.437   3.915  13.169  0.00  0.00    +0.000 A 
ATOM     15  C   UNL     1       5.846   3.049  12.134  0.00  0.00    +0.000 C 
ENDBRANCH   3  12
ENDBRANCH   1   7
BRANCH   1  16
ATOM     16  S   UNL     1       3.161   3.123  19.431  0.00  0.00    +0.000 S 
ATOM     17  O   UNL     1       2.813   2.409  18.221  0.00  0.00    +0.000 OA
ATOM     18  O   UNL     1       2.632   2.728  20.717  0.00  0.00    +0.000 OA
BRANCH  16  19
ATOM     19  C   UNL     1       2.748   4.835  19.166  0.00  0.00    +0.000 A 
ATOM     20  C   UNL     1       2.511   5.667  20.264  0.00  0.00    +0.000 A 
ATOM     21  C   UNL     1       2.190   7.010  20.056  0.00  0.00    +0.000 A 
ATOM     22  C   UNL     1       2.111   7.531  18.754  0.00  0.00    +0.000 A 
ATOM     23  C   UNL     1       2.376   6.685  17.664  0.00  0.00    +0.000 A 
ATOM     24  C   UNL     1       2.707   5.344  17.866  0.00  0.00    +0.000 A 
BRANCH  22  25
ATOM     25  C   UNL     1       1.750   8.978  18.511  0.00  0.00    +0.000 C 
ATOM     26  F   UNL     1       2.752   9.701  17.936  0.00  0.00    +0.000 F 
ATOM     27  F   UNL     1       0.670   9.118  17.693  0.00  0.00    +0.000 F 
ATOM     28  F   UNL     1       1.436   9.635  19.664  0.00  0.00    +0.000 F 
ENDBRANCH  22  25
ENDBRANCH  16  19
ENDBRANCH   1  16
TORSDOF 5
ENDMDL
MODEL 2
REMARK VINA RESULT:      -8.4      4.064      5.847
REMARK  Name = 
REMARK  7 active torsions:
REMARK  status: ('A' for Active; 'I' for Inactive)
REMARK    1  A    between atoms: C_1  and  C_2
REMARK    2  A    between atoms: C_4  and  C_5
REMARK    3  A    between atoms: C_9  and  N_10
REMARK    4  A    between atoms: N_10  and  S_11
REMARK    5  A    between atoms: S_11  and  C_14
REMARK    6  A    between atoms: C_17  and  C_18
REMARK    7  A    between atoms: C_26  and  C_27
REMARK                            x       y       z     vdW  Elec       q    Type
REMARK                         _______ _______ _______ _____ _____    ______ ____
ROOT
ATOM      1  N   UNL     1       6.979   5.240  15.804  0.00  0.00    +0.000 N 
ATOM      2  H   UNL     1       7.655   5.136  15.051  0.00  0.00    +0.000 HD
ENDROOT
BRANCH   1   7
ATOM      3  C   UNL     1       8.152   7.776  18.274  0.00  0.00    +0.000 A 
ATOM      4  C   UNL     1       8.266   6.956  19.409  0.00  0.00    +0.000 A 
ATOM      5  C   UNL     1       7.948   5.601  19.357  0.00  0.00    +0.000 A 
ATOM      6  C   UNL     1       7.507   5.046  18.160  0.00  0.00    +0.000 A 
ATOM      7  C   UNL     1       7.396   5.843  17.021  0.00  0.00    +0.000 A 
ATOM      8  C   UNL     1       7.710   7.206  17.070  0.00  0.00    +0.000 A 
BRANCH   3  12
ATOM      9  C   UNL     1       8.654  12.600  17.505  0.00  0.00    +0.000 C 
ATOM     10  C   UNL     1       8.792  11.277  18.144  0.00  0.00    +0.000 A 
ATOM     11  N   UNL     1       8.133  10.187  17.640  0.00  0.00    +0.000 NA
ATOM     12  C   UNL     1       8.510   9.185  18.413  0.00  0.00    +0.000 A 
ATOM     13  O   UNL     1       9.365   9.547  19.421  0.00  0.00    +0.000 OA
ATOM     14  C   UNL     1       9.550  10.892  19.230  0.00  0.00    +0.000 A 
ATOM     15  C   UNL     1      10.474  11.602  20.131  0.00  0.00    +0.000 C 
ENDBRANCH   3  12
ENDBRANCH   1   7
BRANCH   1  16
ATOM     16  S   UNL     1       5.382   5.371  15.286  0.00  0.00    +0.000 S 
ATOM     17  O   UNL     1       5.163   6.773  15.008  0.00  0.00    +0.000 OA
ATOM     18  O   UNL     1       5.107   4.355  14.295  0.00  0.00    +0.000 OA
BRANCH  16  19
ATOM     19  C   UNL     1       4.452   4.975  16.753  0.00  0.00    +0.000 A 
ATOM     20  C   UNL     1       3.950   6.006  17.552  0.00  0.00    +0.000 A 
ATOM     21  C   UNL     1       3.220   5.696  18.701  0.00  0.00    +0.000 A 
ATOM     22  C   UNL     1       2.979   4.358  19.054  0.00  0.00    +0.000 A 
ATOM     23  C   UNL     1       3.471   3.335  18.224  0.00  0.00    +0.000 A 
ATOM     24  C   UNL     1       4.195   3.640  17.070  0.00  0.00    +0.000 A 
BRANCH  22  25
ATOM     25  C   UNL     1       2.203   4.004  20.301  0.00  0.00    +0.000 C 
ATOM     26  F   UNL     1       0.852   4.012  20.122  0.00  0.00    +0.000 F 
ATOM     27  F   UNL     1       2.511   2.766  20.776  0.00  0.00    +0.000 F 
ATOM     28  F   UNL     1       2.445   4.870  21.325  0.00  0.00    +0.000 F 
ENDBRANCH  22  25
ENDBRANCH  16  19
ENDBRANCH   1  16
TORSDOF 5
ENDMDL
MODEL 3
REMARK VINA RESULT:      -8.4      0.762      1.245
REMARK  Name = 
REMARK  7 active torsions:
REMARK  status: ('A' for Active; 'I' for Inactive)
REMARK    1  A    between atoms: C_1  and  C_2
REMARK    2  A    between atoms: C_4  and  C_5
REMARK    3  A    between atoms: C_9  and  N_10
REMARK    4  A    between atoms: N_10  and  S_11
REMARK    5  A    between atoms: S_11  and  C_14
REMARK    6  A    between atoms: C_17  and  C_18
REMARK    7  A    between atoms: C_26  and  C_27
REMARK                            x       y       z     vdW  Elec       q    Type
REMARK                         _______ _______ _______ _____ _____    ______ ____
ROOT
ATOM      1  N   UNL     1       4.867   3.775  19.762  0.00  0.00    +0.000 N 
ATOM      2  H   UNL     1       5.255   2.982  20.267  0.00  0.00    +0.000 HD
ENDROOT
BRANCH   1   7
ATOM      3  C   UNL     1       6.579   4.960  16.668  0.00  0.00    +0.000 A 
ATOM      4  C   UNL     1       7.425   5.931  17.231  0.00  0.00    +0.000 A 
ATOM      5  C   UNL     1       7.415   6.193  18.599  0.00  0.00    +0.000 A 
ATOM      6  C   UNL     1       6.551   5.483  19.427  0.00  0.00    +0.000 A 
ATOM      7  C   UNL     1       5.710   4.510  18.887  0.00  0.00    +0.000 A 
ATOM      8  C   UNL     1       5.714   4.246  17.512  0.00  0.00    +0.000 A 
BRANCH   3  12
ATOM      9  C   UNL     1       6.075   3.080  12.159  0.00  0.00    +0.000 C 
ATOM     10  C   UNL     1       6.503   3.986  13.243  0.00  0.00    +0.000 A 
ATOM     11  N   UNL     1       6.051   3.803  14.524  0.00  0.00    +0.000 NA
ATOM     12  C   UNL     1       6.655   4.745  15.225  0.00  0.00    +0.000 A 
ATOM     13  O   UNL     1       7.468   5.562  14.484  0.00  0.00    +0.000 OA
ATOM     14  C   UNL     1       7.372   5.056  13.213  0.00  0.00    +0.000 A 
ATOM     15  C   UNL     1       8.177   5.685  12.151  0.00  0.00    +0.000 C 
ENDBRANCH   3  12
ENDBRANCH   1   7
BRANCH   1  16
ATOM     16  S   UNL     1       3.214   3.661  19.464  0.00  0.00    +0.000 S 
ATOM     17  O   UNL     1       3.080   2.975  18.197  0.00  0.00    +0.000 OA
ATOM     18  O   UNL     1       2.536   3.190  20.651  0.00  0.00    +0.000 OA
BRANCH  16  19
ATOM     19  C   UNL     1       2.739   5.357  19.194  0.00  0.00    +0.000 A 
ATOM     20  C   UNL     1       2.271   6.123  20.266  0.00  0.00    +0.000 A 
ATOM     21  C   UNL     1       1.901   7.452  20.055  0.00  0.00    +0.000 A 
ATOM     22  C   UNL     1       2.002   8.026  18.777  0.00  0.00    +0.000 A 
ATOM     23  C   UNL     1       2.497   7.248  17.716  0.00  0.00    +0.000 A 
ATOM     24  C   UNL     1       2.877   5.921  17.924  0.00  0.00    +0.000 A 
BRANCH  22  25
ATOM     25  C   UNL     1       1.592   9.459  18.528  0.00  0.00    +0.000 C 
ATOM     26  F   UNL     1       2.519  10.179  17.836  0.00  0.00    +0.000 F 
ATOM     27  F   UNL     1       0.435   9.557  17.817  0.00  0.00    +0.000 F 
ATOM     28  F   UNL     1       1.380  10.146  19.686  0.00  0.00    +0.000 F 
ENDBRANCH  22  25
ENDBRANCH  16  19
ENDBRANCH   1  16
TORSDOF 5
ENDMDL
MODEL 4
REMARK VINA RESULT:      -8.3      0.369      1.241
REMARK  Name = 
REMARK  7 active torsions:
REMARK  status: ('A' for Active; 'I' for Inactive)
REMARK    1  A    between atoms: C_1  and  C_2
REMARK    2  A    between atoms: C_4  and  C_5
REMARK    3  A    between atoms: C_9  and  N_10
REMARK    4  A    between atoms: N_10  and  S_11
REMARK    5  A    between atoms: S_11  and  C_14
REMARK    6  A    between atoms: C_17  and  C_18
REMARK    7  A    between atoms: C_26  and  C_27
REMARK                            x       y       z     vdW  Elec       q    Type
REMARK                         _______ _______ _______ _____ _____    ______ ____
ROOT
ATOM      1  N   UNL     1       4.359   2.828  19.393  0.00  0.00    +0.000 N 
ATOM      2  H   UNL     1       4.712   1.879  19.493  0.00  0.00    +0.000 HD
ENDROOT
BRANCH   1   7
ATOM      3  C   UNL     1       6.259   4.624  16.734  0.00  0.00    +0.000 A 
ATOM      4  C   UNL     1       6.799   5.669  17.502  0.00  0.00    +0.000 A 
ATOM      5  C   UNL     1       6.527   5.779  18.864  0.00  0.00    +0.000 A 
ATOM      6  C   UNL     1       5.704   4.841  19.477  0.00  0.00    +0.000 A 
ATOM      7  C   UNL     1       5.165   3.792  18.732  0.00  0.00    +0.000 A 
ATOM      8  C   UNL     1       5.433   3.680  17.362  0.00  0.00    +0.000 A 
BRANCH   3  12
ATOM      9  C   UNL     1       8.117   5.652  12.306  0.00  0.00    +0.000 C 
ATOM     10  C   UNL     1       7.342   4.966  13.358  0.00  0.00    +0.000 A 
ATOM     11  N   UNL     1       7.438   5.364  14.666  0.00  0.00    +0.000 NA
ATOM     12  C   UNL     1       6.597   4.579  15.313  0.00  0.00    +0.000 A 
ATOM     13  O   UNL     1       5.961   3.662  14.518  0.00  0.00    +0.000 OA
ATOM     14  C   UNL     1       6.439   3.929  13.260  0.00  0.00    +0.000 A 
ATOM     15  C   UNL     1       5.911   3.140  12.134  0.00  0.00    +0.000 C 
ENDBRANCH   3  12
ENDBRANCH   1   7
BRANCH   1  16
ATOM     16  S   UNL     1       2.680   2.939  19.348  0.00  0.00    +0.000 S 
ATOM     17  O   UNL     1       2.266   2.293  18.122  0.00  0.00    +0.000 OA
ATOM     18  O   UNL     1       2.131   2.548  20.628  0.00  0.00    +0.000 OA
BRANCH  16  19
ATOM     19  C   UNL     1       2.401   4.686  19.139  0.00  0.00    +0.000 A 
ATOM     20  C   UNL     1       2.341   5.228  17.852  0.00  0.00    +0.000 A 
ATOM     21  C   UNL     1       2.120   6.597  17.689  0.00  0.00    +0.000 A 
ATOM     22  C   UNL     1       1.950   7.430  18.807  0.00  0.00    +0.000 A 
ATOM     23  C   UNL     1       1.988   6.863  20.092  0.00  0.00    +0.000 A 
ATOM     24  C   UNL     1       2.200   5.494  20.261  0.00  0.00    +0.000 A 
BRANCH  22  25
ATOM     25  C   UNL     1       1.724   8.916  18.648  0.00  0.00    +0.000 C 
ATOM     26  F   UNL     1       0.645   9.224  17.876  0.00  0.00    +0.000 F 
ATOM     27  F   UNL     1       1.524   9.545  19.839  0.00  0.00    +0.000 F 
ATOM     28  F   UNL     1       2.786   9.542  18.066  0.00  0.00    +0.000 F 
ENDBRANCH  22  25
ENDBRANCH  16  19
ENDBRANCH   1  16
TORSDOF 5
ENDMDL
MODEL 5
REMARK VINA RESULT:      -8.3      0.854      1.750
REMARK  Name = 
REMARK  7 active torsions:
REMARK  status: ('A' for Active; 'I' for Inactive)
REMARK    1  A    between atoms: C_1  and  C_2
REMARK    2  A    between atoms: C_4  and  C_5
REMARK    3  A    between atoms: C_9  and  N_10
REMARK    4  A    between atoms: N_10  and  S_11
REMARK    5  A    between atoms: S_11  and  C_14
REMARK    6  A    between atoms: C_17  and  C_18
REMARK    7  A    between atoms: C_26  and  C_27
REMARK                            x       y       z     vdW  Elec       q    Type
REMARK                         _______ _______ _______ _____ _____    ______ ____
ROOT
ATOM      1  N   UNL     1       4.662   3.924  19.789  0.00  0.00    +0.000 N 
ATOM      2  H   UNL     1       4.990   3.152  20.365  0.00  0.00    +0.000 HD
ENDROOT
BRANCH   1   7
ATOM      3  C   UNL     1       6.517   4.956  16.724  0.00  0.00    +0.000 A 
ATOM      4  C   UNL     1       7.448   5.836  17.303  0.00  0.00    +0.000 A 
ATOM      5  C   UNL     1       7.448   6.087  18.674  0.00  0.00    +0.000 A 
ATOM      6  C   UNL     1       6.509   5.460  19.486  0.00  0.00    +0.000 A 
ATOM      7  C   UNL     1       5.583   4.578  18.930  0.00  0.00    +0.000 A 
ATOM      8  C   UNL     1       5.577   4.325  17.552  0.00  0.00    +0.000 A 
BRANCH   3  12
ATOM      9  C   UNL     1       5.919   3.140  12.201  0.00  0.00    +0.000 C 
ATOM     10  C   UNL     1       6.400   4.009  13.293  0.00  0.00    +0.000 A 
ATOM     11  N   UNL     1       5.928   3.849  14.570  0.00  0.00    +0.000 NA
ATOM     12  C   UNL     1       6.588   4.745  15.280  0.00  0.00    +0.000 A 
ATOM     13  O   UNL     1       7.458   5.511  14.549  0.00  0.00    +0.000 OA
ATOM     14  C   UNL     1       7.337   5.020  13.274  0.00  0.00    +0.000 A 
ATOM     15  C   UNL     1       8.189   5.601  12.222  0.00  0.00    +0.000 C 
ENDBRANCH   3  12
ENDBRANCH   1   7
BRANCH   1  16
ATOM     16  S   UNL     1       3.028   3.840  19.390  0.00  0.00    +0.000 S 
ATOM     17  O   UNL     1       2.963   3.206  18.092  0.00  0.00    +0.000 OA
ATOM     18  O   UNL     1       2.277   3.331  20.516  0.00  0.00    +0.000 OA
BRANCH  16  19
ATOM     19  C   UNL     1       2.585   5.550  19.160  0.00  0.00    +0.000 A 
ATOM     20  C   UNL     1       2.610   6.105  17.877  0.00  0.00    +0.000 A 
ATOM     21  C   UNL     1       2.261   7.444  17.698  0.00  0.00    +0.000 A 
ATOM     22  C   UNL     1       1.877   8.235  18.793  0.00  0.00    +0.000 A 
ATOM     23  C   UNL     1       1.834   7.653  20.072  0.00  0.00    +0.000 A 
ATOM     24  C   UNL     1       2.174   6.312  20.256  0.00  0.00    +0.000 A 
BRANCH  22  25
ATOM     25  C   UNL     1       1.510   9.690  18.618  0.00  0.00    +0.000 C 
ATOM     26  F   UNL     1       1.314  10.349  19.794  0.00  0.00    +0.000 F 
ATOM     27  F   UNL     1       2.465  10.394  17.949  0.00  0.00    +0.000 F 
ATOM     28  F   UNL     1       0.358   9.852  17.908  0.00  0.00    +0.000 F 
ENDBRANCH  22  25
ENDBRANCH  16  19
ENDBRANCH   1  16
TORSDOF 5
ENDMDL
MODEL 6
REMARK VINA RESULT:      -8.2      4.002      7.374
REMARK  Name = 
REMARK  7 active torsions:
REMARK  status: ('A' for Active; 'I' for Inactive)
REMARK    1  A    between atoms: C_1  and  C_2
REMARK    2  A    between atoms: C_4  and  C_5
REMARK    3  A    between atoms: C_9  and  N_10
REMARK    4  A    between atoms: N_10  and  S_11
REMARK    5  A    between atoms: S_11  and  C_14
REMARK    6  A    between atoms: C_17  and  C_18
REMARK    7  A    between atoms: C_26  and  C_27
REMARK                            x       y       z     vdW  Elec       q    Type
REMARK                         _______ _______ _______ _____ _____    ______ ____
ROOT
ATOM      1  N   UNL     1       5.586   3.720  18.912  0.00  0.00    +0.000 N 
ATOM      2  H   UNL     1       6.096   2.949  19.335  0.00  0.00    +0.000 HD
ENDROOT
BRANCH   1   7
ATOM      3  C   UNL     1       2.617   5.724  19.950  0.00  0.00    +0.000 A 
ATOM      4  C   UNL     1       1.841   4.704  20.526  0.00  0.00    +0.000 A 
ATOM      5  C   UNL     1       2.288   3.385  20.555  0.00  0.00    +0.000 A 
ATOM      6  C   UNL     1       3.525   3.067  20.002  0.00  0.00    +0.000 A 
ATOM      7  C   UNL     1       4.312   4.068  19.434  0.00  0.00    +0.000 A 
ATOM      8  C   UNL     1       3.865   5.395  19.399  0.00  0.00    +0.000 A 
BRANCH   3  12
ATOM      9  C   UNL     1       0.290   9.847  21.255  0.00  0.00    +0.000 C 
ATOM     10  C   UNL     1       1.075   8.896  20.444  0.00  0.00    +0.000 A 
ATOM     11  N   UNL     1       1.435   7.676  20.953  0.00  0.00    +0.000 NA
ATOM     12  C   UNL     1       2.077   7.081  19.964  0.00  0.00    +0.000 A 
ATOM     13  O   UNL     1       2.187   7.842  18.830  0.00  0.00    +0.000 OA
ATOM     14  C   UNL     1       1.528   9.002  19.146  0.00  0.00    +0.000 A 
ATOM     15  C   UNL     1       1.414  10.041  18.108  0.00  0.00    +0.000 C 
ENDBRANCH   3  12
ENDBRANCH   1   7
BRANCH   1  16
ATOM     16  S   UNL     1       6.568   4.887  18.199  0.00  0.00    +0.000 S 
ATOM     17  O   UNL     1       5.905   6.155  18.411  0.00  0.00    +0.000 OA
ATOM     18  O   UNL     1       7.942   4.679  18.601  0.00  0.00    +0.000 OA
BRANCH  16  19
ATOM     19  C   UNL     1       6.439   4.512  16.462  0.00  0.00    +0.000 A 
ATOM     20  C   UNL     1       5.381   3.723  16.003  0.00  0.00    +0.000 A 
ATOM     21  C   UNL     1       5.279   3.431  14.641  0.00  0.00    +0.000 A 
ATOM     22  C   UNL     1       6.225   3.930  13.731  0.00  0.00    +0.000 A 
ATOM     23  C   UNL     1       7.268   4.742  14.209  0.00  0.00    +0.000 A 
ATOM     24  C   UNL     1       7.370   5.044  15.568  0.00  0.00    +0.000 A 
BRANCH  22  25
ATOM     25  C   UNL     1       6.137   3.611  12.257  0.00  0.00    +0.000 C 
ATOM     26  F   UNL     1       6.963   4.372  11.484  0.00  0.00    +0.000 F 
ATOM     27  F   UNL     1       6.455   2.316  11.981  0.00  0.00    +0.000 F 
ATOM     28  F   UNL     1       4.883   3.804  11.759  0.00  0.00    +0.000 F 
ENDBRANCH  22  25
ENDBRANCH  16  19
ENDBRANCH   1  16
TORSDOF 5
ENDMDL
MODEL 7
REMARK VINA RESULT:      -8.2      0.935      1.515
REMARK  Name = 
REMARK  7 active torsions:
REMARK  status: ('A' for Active; 'I' for Inactive)
REMARK    1  A    between atoms: C_1  and  C_2
REMARK    2  A    between atoms: C_4  and  C_5
REMARK    3  A    between atoms: C_9  and  N_10
REMARK    4  A    between atoms: N_10  and  S_11
REMARK    5  A    between atoms: S_11  and  C_14
REMARK    6  A    between atoms: C_17  and  C_18
REMARK    7  A    between atoms: C_26  and  C_27
REMARK                            x       y       z     vdW  Elec       q    Type
REMARK                         _______ _______ _______ _____ _____    ______ ____
ROOT
ATOM      1  N   UNL     1       4.903   3.431  19.257  0.00  0.00    +0.000 N 
ATOM      2  H   UNL     1       5.320   2.605  19.681  0.00  0.00    +0.000 HD
ENDROOT
BRANCH   1   7
ATOM      3  C   UNL     1       6.645   4.874  16.292  0.00  0.00    +0.000 A 
ATOM      4  C   UNL     1       7.369   5.898  16.927  0.00  0.00    +0.000 A 
ATOM      5  C   UNL     1       7.269   6.110  18.300  0.00  0.00    +0.000 A 
ATOM      6  C   UNL     1       6.436   5.296  19.060  0.00  0.00    +0.000 A 
ATOM      7  C   UNL     1       5.716   4.269  18.449  0.00  0.00    +0.000 A 
ATOM      8  C   UNL     1       5.811   4.056  17.068  0.00  0.00    +0.000 A 
BRANCH   3  12
ATOM      9  C   UNL     1       7.870   5.596  11.591  0.00  0.00    +0.000 C 
ATOM     10  C   UNL     1       7.282   4.965  12.789  0.00  0.00    +0.000 A 
ATOM     11  N   UNL     1       7.507   5.489  14.035  0.00  0.00    +0.000 NA
ATOM     12  C   UNL     1       6.811   4.717  14.849  0.00  0.00    +0.000 A 
ATOM     13  O   UNL     1       6.151   3.693  14.223  0.00  0.00    +0.000 OA
ATOM     14  C   UNL     1       6.451   3.870  12.896  0.00  0.00    +0.000 A 
ATOM     15  C   UNL     1       5.850   2.947  11.918  0.00  0.00    +0.000 C 
ENDBRANCH   3  12
ENDBRANCH   1   7
BRANCH   1  16
ATOM     16  S   UNL     1       3.251   3.297  18.961  0.00  0.00    +0.000 S 
ATOM     17  O   UNL     1       3.105   3.204  17.525  0.00  0.00    +0.000 OA
ATOM     18  O   UNL     1       2.678   2.303  19.842  0.00  0.00    +0.000 OA
BRANCH  16  19
ATOM     19  C   UNL     1       2.627   4.892  19.450  0.00  0.00    +0.000 A 
ATOM     20  C   UNL     1       2.877   6.008  18.646  0.00  0.00    +0.000 A 
ATOM     21  C   UNL     1       2.385   7.258  19.028  0.00  0.00    +0.000 A 
ATOM     22  C   UNL     1       1.637   7.400  20.208  0.00  0.00    +0.000 A 
ATOM     23  C   UNL     1       1.376   6.262  20.991  0.00  0.00    +0.000 A 
ATOM     24  C   UNL     1       1.857   5.009  20.609  0.00  0.00    +0.000 A 
BRANCH  22  25
ATOM     25  C   UNL     1       1.111   8.747  20.643  0.00  0.00    +0.000 C 
ATOM     26  F   UNL     1       1.733   9.246  21.748  0.00  0.00    +0.000 F 
ATOM     27  F   UNL     1       1.245   9.698  19.678  0.00  0.00    +0.000 F 
ATOM     28  F   UNL     1      -0.216   8.710  20.952  0.00  0.00    +0.000 F 
ENDBRANCH  22  25
ENDBRANCH  16  19
ENDBRANCH   1  16
TORSDOF 5
ENDMDL
MODEL 8
REMARK VINA RESULT:      -8.1      4.007      7.421
REMARK  Name = 
REMARK  7 active torsions:
REMARK  status: ('A' for Active; 'I' for Inactive)
REMARK    1  A    between atoms: C_1  and  C_2
REMARK    2  A    between atoms: C_4  and  C_5
REMARK    3  A    between atoms: C_9  and  N_10
REMARK    4  A    between atoms: N_10  and  S_11
REMARK    5  A    between atoms: S_11  and  C_14
REMARK    6  A    between atoms: C_17  and  C_18
REMARK    7  A    between atoms: C_26  and  C_27
REMARK                            x       y       z     vdW  Elec       q    Type
REMARK                         _______ _______ _______ _____ _____    ______ ____
ROOT
ATOM      1  N   UNL     1       5.510   3.743  18.897  0.00  0.00    +0.000 N 
ATOM      2  H   UNL     1       6.014   2.955  19.296  0.00  0.00    +0.000 HD
ENDROOT
BRANCH   1   7
ATOM      3  C   UNL     1       2.570   5.763  19.985  0.00  0.00    +0.000 A 
ATOM      4  C   UNL     1       1.808   4.752  20.594  0.00  0.00    +0.000 A 
ATOM      5  C   UNL     1       2.255   3.433  20.629  0.00  0.00    +0.000 A 
ATOM      6  C   UNL     1       3.477   3.107  20.049  0.00  0.00    +0.000 A 
ATOM      7  C   UNL     1       4.250   4.099  19.447  0.00  0.00    +0.000 A 
ATOM      8  C   UNL     1       3.803   5.426  19.406  0.00  0.00    +0.000 A 
BRANCH   3  12
ATOM      9  C   UNL     1       0.281   9.906  21.295  0.00  0.00    +0.000 C 
ATOM     10  C   UNL     1       1.044   8.944  20.476  0.00  0.00    +0.000 A 
ATOM     11  N   UNL     1       1.416   7.730  20.992  0.00  0.00    +0.000 NA
ATOM     12  C   UNL     1       2.031   7.121  19.995  0.00  0.00    +0.000 A 
ATOM     13  O   UNL     1       2.112   7.866  18.848  0.00  0.00    +0.000 OA
ATOM     14  C   UNL     1       1.463   9.031  19.165  0.00  0.00    +0.000 A 
ATOM     15  C   UNL     1       1.322  10.057  18.116  0.00  0.00    +0.000 C 
ENDBRANCH   3  12
ENDBRANCH   1   7
BRANCH   1  16
ATOM     16  S   UNL     1       6.497   4.909  18.191  0.00  0.00    +0.000 S 
ATOM     17  O   UNL     1       5.831   6.177  18.393  0.00  0.00    +0.000 OA
ATOM     18  O   UNL     1       7.867   4.703  18.606  0.00  0.00    +0.000 OA
BRANCH  16  19
ATOM     19  C   UNL     1       6.385   4.530  16.454  0.00  0.00    +0.000 A 
ATOM     20  C   UNL     1       7.427   4.896  15.597  0.00  0.00    +0.000 A 
ATOM     21  C   UNL     1       7.339   4.596  14.236  0.00  0.00    +0.000 A 
ATOM     22  C   UNL     1       6.216   3.924  13.725  0.00  0.00    +0.000 A 
ATOM     23  C   UNL     1       5.190   3.543  14.606  0.00  0.00    +0.000 A 
ATOM     24  C   UNL     1       5.276   3.832  15.968  0.00  0.00    +0.000 A 
BRANCH  22  25
ATOM     25  C   UNL     1       6.099   3.605  12.252  0.00  0.00    +0.000 C 
ATOM     26  F   UNL     1       4.824   3.685  11.777  0.00  0.00    +0.000 F 
ATOM     27  F   UNL     1       6.841   4.441  11.475  0.00  0.00    +0.000 F 
ATOM     28  F   UNL     1       6.525   2.344  11.960  0.00  0.00    +0.000 F 
ENDBRANCH  22  25
ENDBRANCH  16  19
ENDBRANCH   1  16
TORSDOF 5
ENDMDL
MODEL 9
REMARK VINA RESULT:      -8.1      1.089      1.768
REMARK  Name = 
REMARK  7 active torsions:
REMARK  status: ('A' for Active; 'I' for Inactive)
REMARK    1  A    between atoms: C_1  and  C_2
REMARK    2  A    between atoms: C_4  and  C_5
REMARK    3  A    between atoms: C_9  and  N_10
REMARK    4  A    between atoms: N_10  and  S_11
REMARK    5  A    between atoms: S_11  and  C_14
REMARK    6  A    between atoms: C_17  and  C_18
REMARK    7  A    between atoms: C_26  and  C_27
REMARK                            x       y       z     vdW  Elec       q    Type
REMARK                         _______ _______ _______ _____ _____    ______ ____
ROOT
ATOM      1  N   UNL     1       3.952   2.957  18.974  0.00  0.00    +0.000 N 
ATOM      2  H   UNL     1       4.190   1.989  19.177  0.00  0.00    +0.000 HD
ENDROOT
BRANCH   1   7
ATOM      3  C   UNL     1       6.308   4.604  16.598  0.00  0.00    +0.000 A 
ATOM      4  C   UNL     1       6.972   5.463  17.491  0.00  0.00    +0.000 A 
ATOM      5  C   UNL     1       6.635   5.502  18.842  0.00  0.00    +0.000 A 
ATOM      6  C   UNL     1       5.621   4.678  19.319  0.00  0.00    +0.000 A 
ATOM      7  C   UNL     1       4.956   3.813  18.450  0.00  0.00    +0.000 A 
ATOM      8  C   UNL     1       5.289   3.774  17.090  0.00  0.00    +0.000 A 
BRANCH   3  12
ATOM      9  C   UNL     1       8.371   5.854  12.321  0.00  0.00    +0.000 C 
ATOM     10  C   UNL     1       7.564   5.105  13.303  0.00  0.00    +0.000 A 
ATOM     11  N   UNL     1       7.573   5.458  14.627  0.00  0.00    +0.000 NA
ATOM     12  C   UNL     1       6.726   4.622  15.199  0.00  0.00    +0.000 A 
ATOM     13  O   UNL     1       6.166   3.716  14.337  0.00  0.00    +0.000 OA
ATOM     14  C   UNL     1       6.703   4.044  13.119  0.00  0.00    +0.000 A 
ATOM     15  C   UNL     1       6.266   3.280  11.937  0.00  0.00    +0.000 C 
ENDBRANCH   3  12
ENDBRANCH   1   7
BRANCH   1  16
ATOM     16  S   UNL     1       2.331   3.204  18.592  0.00  0.00    +0.000 S 
ATOM     17  O   UNL     1       2.266   3.293  17.150  0.00  0.00    +0.000 OA
ATOM     18  O   UNL     1       1.509   2.268  19.327  0.00  0.00    +0.000 OA
BRANCH  16  19
ATOM     19  C   UNL     1       2.014   4.836  19.232  0.00  0.00    +0.000 A 
ATOM     20  C   UNL     1       2.239   5.952  18.421  0.00  0.00    +0.000 A 
ATOM     21  C   UNL     1       1.989   7.231  18.923  0.00  0.00    +0.000 A 
ATOM     22  C   UNL     1       1.506   7.403  20.231  0.00  0.00    +0.000 A 
ATOM     23  C   UNL     1       1.263   6.267  21.022  0.00  0.00    +0.000 A 
ATOM     24  C   UNL     1       1.503   4.986  20.523  0.00  0.00    +0.000 A 
BRANCH  22  25
ATOM     25  C   UNL     1       1.244   8.780  20.793  0.00  0.00    +0.000 C 
ATOM     26  F   UNL     1      -0.048   8.974  21.181  0.00  0.00    +0.000 F 
ATOM     27  F   UNL     1       2.008   9.053  21.887  0.00  0.00    +0.000 F 
ATOM     28  F   UNL     1       1.511   9.768  19.893  0.00  0.00    +0.000 F 
ENDBRANCH  22  25
ENDBRANCH  16  19
ENDBRANCH   1  16
TORSDOF 5
ENDMDL
