MODEL 1
REMARK VINA RESULT:      -8.9      0.000      0.000
REMARK  Name = 
REMARK  4 active torsions:
REMARK  status: ('A' for Active; 'I' for Inactive)
REMARK    1  A    between atoms: C_1  and  C_2
REMARK    2  A    between atoms: C_6  and  C_7
REMARK    3  A    between atoms: C_13  and  C_14
REMARK    4  A    between atoms: N_23  and  C_24
REMARK                            x       y       z     vdW  Elec       q    Type
REMARK                         _______ _______ _______ _____ _____    ______ ____
ROOT
ATOM      1  C   UNL     1       4.127   2.907  19.919  0.00  0.00    +0.000 C 
ATOM      2  C   UNL     1       3.589   4.236  19.520  0.00  0.00    +0.000 A 
ATOM      3  N   UNL     1       2.666   4.863  20.223  0.00  0.00    +0.000 NA
ATOM      4  C   UNL     1       2.548   6.103  19.669  0.00  0.00    +0.000 A 
ATOM      5  C   UNL     1       1.718   7.158  20.075  0.00  0.00    +0.000 A 
ATOM      6  C   UNL     1       1.668   8.327  19.310  0.00  0.00    +0.000 A 
ATOM      7  C   UNL     1       2.510   8.452  18.193  0.00  0.00    +0.000 A 
ATOM      8  C   UNL     1       3.367   7.420  17.796  0.00  0.00    +0.000 A 
ATOM      9  C   UNL     1       3.385   6.247  18.569  0.00  0.00    +0.000 A 
ATOM     10  N   UNL     1       4.079   5.036  18.481  0.00  0.00    +0.000 N 
ENDROOT
BRANCH   6  11
ATOM     11  C   UNL     1       0.768   9.478  19.610  0.00  0.00    +0.000 C 
ATOM     12  O   UNL     1       0.112   9.932  18.674  0.00  0.00    +0.000 OA
ATOM     13  N   UNL     1       0.611   9.958  20.907  0.00  0.00    +0.000 N 
ATOM     14  C   UNL     1       1.150   9.433  22.149  0.00  0.00    +0.000 C 
ATOM     15  C   UNL     1      -0.004   9.518  23.126  0.00  0.00    +0.000 C 
ATOM     16  C   UNL     1      -0.770  10.757  22.690  0.00  0.00    +0.000 C 
ATOM     17  C   UNL     1      -0.470  10.907  21.185  0.00  0.00    +0.000 C 
BRANCH  17  18
ATOM     18  C   UNL     1      -0.117  12.338  20.827  0.00  0.00    +0.000 A 
ATOM     19  C   UNL     1       1.192  12.825  20.909  0.00  0.00    +0.000 A 
ATOM     20  C   UNL     1       1.430  14.162  20.633  0.00  0.00    +0.000 A 
ATOM     21  N   UNL     1       0.470  15.037  20.273  0.00  0.00    +0.000 NA
ATOM     22  C   UNL     1      -0.783  14.547  20.168  0.00  0.00    +0.000 A 
ATOM     23  C   UNL     1      -1.122  13.228  20.431  0.00  0.00    +0.000 A 
ENDBRANCH  17  18
ENDBRANCH   6  11
BRANCH  10  24
ATOM     24  C   UNL     1       5.074   4.710  17.514  0.00  0.00    +0.000 A 
ATOM     25  C   UNL     1       6.433   4.855  17.829  0.00  0.00    +0.000 A 
ATOM     26  C   UNL     1       7.413   4.640  16.858  0.00  0.00    +0.000 A 
ATOM     27  C   UNL     1       7.048   4.238  15.576  0.00  0.00    +0.000 A 
ATOM     28  C   UNL     1       5.705   4.049  15.266  0.00  0.00    +0.000 A 
ATOM     29  C   UNL     1       4.720   4.291  16.227  0.00  0.00    +0.000 A 
ENDBRANCH  10  24
TORSDOF 3
ENDMDL
MODEL 2
REMARK VINA RESULT:      -8.8      0.155      1.258
REMARK  Name = 
REMARK  4 active torsions:
REMARK  status: ('A' for Active; 'I' for Inactive)
REMARK    1  A    between atoms: C_1  and  C_2
REMARK    2  A    between atoms: C_6  and  C_7
REMARK    3  A    between atoms: C_13  and  C_14
REMARK    4  A    between atoms: N_23  and  C_24
REMARK                            x       y       z     vdW  Elec       q    Type
REMARK                         _______ _______ _______ _____ _____    ______ ____
ROOT
ATOM      1  C   UNL     1       4.270   3.027  19.774  0.00  0.00    +0.000 C 
ATOM      2  C   UNL     1       3.682   4.347  19.415  0.00  0.00    +0.000 A 
ATOM      3  N   UNL     1       2.753   4.928  20.151  0.00  0.00    +0.000 NA
ATOM      4  C   UNL     1       2.585   6.175  19.628  0.00  0.00    +0.000 A 
ATOM      5  C   UNL     1       1.730   7.194  20.074  0.00  0.00    +0.000 A 
ATOM      6  C   UNL     1       1.627   8.377  19.337  0.00  0.00    +0.000 A 
ATOM      7  C   UNL     1       2.441   8.554  18.207  0.00  0.00    +0.000 A 
ATOM      8  C   UNL     1       3.322   7.559  17.769  0.00  0.00    +0.000 A 
ATOM      9  C   UNL     1       3.394   6.370  18.514  0.00  0.00    +0.000 A 
ATOM     10  N   UNL     1       4.124   5.185  18.385  0.00  0.00    +0.000 N 
ENDROOT
BRANCH   6  11
ATOM     11  C   UNL     1       0.697   9.492  19.681  0.00  0.00    +0.000 C 
ATOM     12  O   UNL     1      -0.007   9.931  18.774  0.00  0.00    +0.000 OA
ATOM     13  N   UNL     1       0.568   9.953  20.988  0.00  0.00    +0.000 N 
ATOM     14  C   UNL     1       1.169   9.435  22.205  0.00  0.00    +0.000 C 
ATOM     15  C   UNL     1       0.048   9.468  23.222  0.00  0.00    +0.000 C 
ATOM     16  C   UNL     1      -0.777  10.682  22.826  0.00  0.00    +0.000 C 
ATOM     17  C   UNL     1      -0.536  10.859  21.314  0.00  0.00    +0.000 C 
BRANCH  17  18
ATOM     18  C   UNL     1      -0.248  12.305  20.960  0.00  0.00    +0.000 A 
ATOM     19  C   UNL     1      -1.260  13.194  20.581  0.00  0.00    +0.000 A 
ATOM     20  C   UNL     1      -0.915  14.483  20.203  0.00  0.00    +0.000 A 
ATOM     21  N   UNL     1       0.351  14.948  20.189  0.00  0.00    +0.000 NA
ATOM     22  C   UNL     1       1.313  14.088  20.586  0.00  0.00    +0.000 A 
ATOM     23  C   UNL     1       1.069  12.779  20.973  0.00  0.00    +0.000 A 
ENDBRANCH  17  18
ENDBRANCH   6  11
BRANCH  10  24
ATOM     24  C   UNL     1       5.108   4.912  17.391  0.00  0.00    +0.000 A 
ATOM     25  C   UNL     1       4.718   4.461  16.122  0.00  0.00    +0.000 A 
ATOM     26  C   UNL     1       5.676   4.091  15.175  0.00  0.00    +0.000 A 
ATOM     27  C   UNL     1       7.030   4.207  15.472  0.00  0.00    +0.000 A 
ATOM     28  C   UNL     1       7.428   4.695  16.713  0.00  0.00    +0.000 A 
ATOM     29  C   UNL     1       6.473   5.039  17.673  0.00  0.00    +0.000 A 
ENDBRANCH  10  24
TORSDOF 3
ENDMDL
MODEL 3
REMARK VINA RESULT:      -8.5      1.786      2.605
REMARK  Name = 
REMARK  4 active torsions:
REMARK  status: ('A' for Active; 'I' for Inactive)
REMARK    1  A    between atoms: C_1  and  C_2
REMARK    2  A    between atoms: C_6  and  C_7
REMARK    3  A    between atoms: C_13  and  C_14
REMARK    4  A    between atoms: N_23  and  C_24
REMARK                            x       y       z     vdW  Elec       q    Type
REMARK                         _______ _______ _______ _____ _____    ______ ____
ROOT
ATOM      1  C   UNL     1       4.302   2.857  19.815  0.00  0.00    +0.000 C 
ATOM      2  C   UNL     1       3.733   4.185  19.458  0.00  0.00    +0.000 A 
ATOM      3  N   UNL     1       2.849   4.802  20.219  0.00  0.00    +0.000 NA
ATOM      4  C   UNL     1       2.691   6.044  19.682  0.00  0.00    +0.000 A 
ATOM      5  C   UNL     1       1.880   7.091  20.144  0.00  0.00    +0.000 A 
ATOM      6  C   UNL     1       1.778   8.265  19.392  0.00  0.00    +0.000 A 
ATOM      7  C   UNL     1       2.551   8.403  18.228  0.00  0.00    +0.000 A 
ATOM      8  C   UNL     1       3.390   7.380  17.773  0.00  0.00    +0.000 A 
ATOM      9  C   UNL     1       3.461   6.201  18.535  0.00  0.00    +0.000 A 
ATOM     10  N   UNL     1       4.156   4.996  18.398  0.00  0.00    +0.000 N 
ENDROOT
BRANCH   6  11
ATOM     11  C   UNL     1       0.890   9.409  19.753  0.00  0.00    +0.000 C 
ATOM     12  O   UNL     1       0.134   9.247  20.709  0.00  0.00    +0.000 OA
ATOM     13  N   UNL     1       0.978  10.632  19.094  0.00  0.00    +0.000 N 
ATOM     14  C   UNL     1       1.928  11.061  18.083  0.00  0.00    +0.000 C 
ATOM     15  C   UNL     1       2.300  12.471  18.490  0.00  0.00    +0.000 C 
ATOM     16  C   UNL     1       1.031  13.023  19.121  0.00  0.00    +0.000 C 
ATOM     17  C   UNL     1       0.276  11.789  19.655  0.00  0.00    +0.000 C 
BRANCH  17  18
ATOM     18  C   UNL     1      -1.194  11.833  19.287  0.00  0.00    +0.000 A 
ATOM     19  C   UNL     1      -2.151  12.433  20.114  0.00  0.00    +0.000 A 
ATOM     20  C   UNL     1      -3.487  12.375  19.748  0.00  0.00    +0.000 A 
ATOM     21  N   UNL     1      -3.932  11.778  18.624  0.00  0.00    +0.000 NA
ATOM     22  C   UNL     1      -2.996  11.230  17.822  0.00  0.00    +0.000 A 
ATOM     23  C   UNL     1      -1.638  11.230  18.105  0.00  0.00    +0.000 A 
ENDBRANCH  17  18
ENDBRANCH   6  11
BRANCH  10  24
ATOM     24  C   UNL     1       5.093   4.683  17.371  0.00  0.00    +0.000 A 
ATOM     25  C   UNL     1       6.465   4.881  17.589  0.00  0.00    +0.000 A 
ATOM     26  C   UNL     1       7.384   4.678  16.557  0.00  0.00    +0.000 A 
ATOM     27  C   UNL     1       6.947   4.236  15.312  0.00  0.00    +0.000 A 
ATOM     28  C   UNL     1       5.594   3.995  15.098  0.00  0.00    +0.000 A 
ATOM     29  C   UNL     1       4.668   4.224  16.120  0.00  0.00    +0.000 A 
ENDBRANCH  10  24
TORSDOF 3
ENDMDL
MODEL 4
REMARK VINA RESULT:      -8.3      2.007      8.902
REMARK  Name = 
REMARK  4 active torsions:
REMARK  status: ('A' for Active; 'I' for Inactive)
REMARK    1  A    between atoms: C_1  and  C_2
REMARK    2  A    between atoms: C_6  and  C_7
REMARK    3  A    between atoms: C_13  and  C_14
REMARK    4  A    between atoms: N_23  and  C_24
REMARK                            x       y       z     vdW  Elec       q    Type
REMARK                         _______ _______ _______ _____ _____    ______ ____
ROOT
ATOM      1  C   UNL     1      -0.729   9.774  22.913  0.00  0.00    +0.000 C 
ATOM      2  C   UNL     1       0.188   9.316  21.834  0.00  0.00    +0.000 A 
ATOM      3  N   UNL     1       0.917   8.222  21.944  0.00  0.00    +0.000 NA
ATOM      4  C   UNL     1       1.486   8.023  20.723  0.00  0.00    +0.000 A 
ATOM      5  C   UNL     1       2.327   6.975  20.318  0.00  0.00    +0.000 A 
ATOM      6  C   UNL     1       2.894   7.003  19.041  0.00  0.00    +0.000 A 
ATOM      7  C   UNL     1       2.547   8.039  18.159  0.00  0.00    +0.000 A 
ATOM      8  C   UNL     1       1.684   9.073  18.538  0.00  0.00    +0.000 A 
ATOM      9  C   UNL     1       1.142   9.035  19.834  0.00  0.00    +0.000 A 
ATOM     10  N   UNL     1       0.280   9.870  20.552  0.00  0.00    +0.000 N 
ENDROOT
BRANCH   6  11
ATOM     11  C   UNL     1       3.856   5.980  18.537  0.00  0.00    +0.000 C 
ATOM     12  O   UNL     1       5.042   6.145  18.816  0.00  0.00    +0.000 OA
ATOM     13  N   UNL     1       3.420   4.845  17.858  0.00  0.00    +0.000 N 
ATOM     14  C   UNL     1       2.063   4.394  17.608  0.00  0.00    +0.000 C 
ATOM     15  C   UNL     1       2.106   2.905  17.876  0.00  0.00    +0.000 C 
ATOM     16  C   UNL     1       3.506   2.490  17.451  0.00  0.00    +0.000 C 
ATOM     17  C   UNL     1       4.369   3.756  17.619  0.00  0.00    +0.000 C 
BRANCH  17  18
ATOM     18  C   UNL     1       5.257   3.990  16.411  0.00  0.00    +0.000 A 
ATOM     19  C   UNL     1       6.590   4.399  16.535  0.00  0.00    +0.000 A 
ATOM     20  C   UNL     1       7.321   4.662  15.387  0.00  0.00    +0.000 A 
ATOM     21  N   UNL     1       6.829   4.536  14.138  0.00  0.00    +0.000 NA
ATOM     22  C   UNL     1       5.552   4.112  14.033  0.00  0.00    +0.000 A 
ATOM     23  C   UNL     1       4.739   3.832  15.121  0.00  0.00    +0.000 A 
ENDBRANCH  17  18
ENDBRANCH   6  11
BRANCH  10  24
ATOM     24  C   UNL     1      -0.356  11.044  20.053  0.00  0.00    +0.000 A 
ATOM     25  C   UNL     1      -1.430  10.934  19.158  0.00  0.00    +0.000 A 
ATOM     26  C   UNL     1      -1.993  12.074  18.581  0.00  0.00    +0.000 A 
ATOM     27  C   UNL     1      -1.516  13.336  18.924  0.00  0.00    +0.000 A 
ATOM     28  C   UNL     1      -0.480  13.458  19.843  0.00  0.00    +0.000 A 
ATOM     29  C   UNL     1       0.105  12.318  20.401  0.00  0.00    +0.000 A 
ENDBRANCH  10  24
TORSDOF 3
ENDMDL
MODEL 5
REMARK VINA RESULT:      -8.3      1.761      2.670
REMARK  Name = 
REMARK  4 active torsions:
REMARK  status: ('A' for Active; 'I' for Inactive)
REMARK    1  A    between atoms: C_1  and  C_2
REMARK    2  A    between atoms: C_6  and  C_7
REMARK    3  A    between atoms: C_13  and  C_14
REMARK    4  A    between atoms: N_23  and  C_24
REMARK                            x       y       z     vdW  Elec       q    Type
REMARK                         _______ _______ _______ _____ _____    ______ ____
ROOT
ATOM      1  C   UNL     1       4.539   3.159  19.424  0.00  0.00    +0.000 C 
ATOM      2  C   UNL     1       3.869   4.462  19.162  0.00  0.00    +0.000 A 
ATOM      3  N   UNL     1       3.010   4.996  20.010  0.00  0.00    +0.000 NA
ATOM      4  C   UNL     1       2.740   6.244  19.536  0.00  0.00    +0.000 A 
ATOM      5  C   UNL     1       1.906   7.223  20.098  0.00  0.00    +0.000 A 
ATOM      6  C   UNL     1       1.679   8.414  19.402  0.00  0.00    +0.000 A 
ATOM      7  C   UNL     1       2.352   8.640  18.191  0.00  0.00    +0.000 A 
ATOM      8  C   UNL     1       3.212   7.686  17.635  0.00  0.00    +0.000 A 
ATOM      9  C   UNL     1       3.410   6.488  18.342  0.00  0.00    +0.000 A 
ATOM     10  N   UNL     1       4.161   5.333  18.107  0.00  0.00    +0.000 N 
ENDROOT
BRANCH   6  11
ATOM     11  C   UNL     1       0.756   9.488  19.873  0.00  0.00    +0.000 C 
ATOM     12  O   UNL     1      -0.003   9.205  20.798  0.00  0.00    +0.000 OA
ATOM     13  N   UNL     1       0.814  10.776  19.349  0.00  0.00    +0.000 N 
ATOM     14  C   UNL     1       1.760  11.336  18.400  0.00  0.00    +0.000 C 
ATOM     15  C   UNL     1       2.088  12.705  18.959  0.00  0.00    +0.000 C 
ATOM     16  C   UNL     1       0.798  13.151  19.630  0.00  0.00    +0.000 C 
ATOM     17  C   UNL     1       0.075  11.847  20.021  0.00  0.00    +0.000 C 
BRANCH  17  18
ATOM     18  C   UNL     1      -1.393  11.889  19.643  0.00  0.00    +0.000 A 
ATOM     19  C   UNL     1      -1.866  11.371  18.433  0.00  0.00    +0.000 A 
ATOM     20  C   UNL     1      -3.210  11.506  18.123  0.00  0.00    +0.000 A 
ATOM     21  N   UNL     1      -4.110  12.104  18.929  0.00  0.00    +0.000 NA
ATOM     22  C   UNL     1      -3.646  12.573  20.107  0.00  0.00    +0.000 A 
ATOM     23  C   UNL     1      -2.319  12.492  20.502  0.00  0.00    +0.000 A 
ENDBRANCH  17  18
ENDBRANCH   6  11
BRANCH  10  24
ATOM     24  C   UNL     1       5.035   5.115  17.002  0.00  0.00    +0.000 A 
ATOM     25  C   UNL     1       4.606   4.349  15.908  0.00  0.00    +0.000 A 
ATOM     26  C   UNL     1       5.487   4.040  14.870  0.00  0.00    +0.000 A 
ATOM     27  C   UNL     1       6.790   4.527  14.893  0.00  0.00    +0.000 A 
ATOM     28  C   UNL     1       7.213   5.323  15.952  0.00  0.00    +0.000 A 
ATOM     29  C   UNL     1       6.343   5.611  17.008  0.00  0.00    +0.000 A 
ENDBRANCH  10  24
TORSDOF 3
ENDMDL
MODEL 6
REMARK VINA RESULT:      -8.2      1.959      8.933
REMARK  Name = 
REMARK  4 active torsions:
REMARK  status: ('A' for Active; 'I' for Inactive)
REMARK    1  A    between atoms: C_1  and  C_2
REMARK    2  A    between atoms: C_6  and  C_7
REMARK    3  A    between atoms: C_13  and  C_14
REMARK    4  A    between atoms: N_23  and  C_24
REMARK                            x       y       z     vdW  Elec       q    Type
REMARK                         _______ _______ _______ _____ _____    ______ ____
ROOT
ATOM      1  C   UNL     1      -0.771   9.947  23.040  0.00  0.00    +0.000 C 
ATOM      2  C   UNL     1       0.128   9.474  21.952  0.00  0.00    +0.000 A 
ATOM      3  N   UNL     1       0.843   8.370  22.058  0.00  0.00    +0.000 NA
ATOM      4  C   UNL     1       1.397   8.160  20.831  0.00  0.00    +0.000 A 
ATOM      5  C   UNL     1       2.218   7.100  20.420  0.00  0.00    +0.000 A 
ATOM      6  C   UNL     1       2.772   7.117  19.137  0.00  0.00    +0.000 A 
ATOM      7  C   UNL     1       2.431   8.156  18.257  0.00  0.00    +0.000 A 
ATOM      8  C   UNL     1       1.586   9.202  18.642  0.00  0.00    +0.000 A 
ATOM      9  C   UNL     1       1.058   9.175  19.943  0.00  0.00    +0.000 A 
ATOM     10  N   UNL     1       0.215  10.023  20.668  0.00  0.00    +0.000 N 
ENDROOT
BRANCH   6  11
ATOM     11  C   UNL     1       3.715   6.079  18.626  0.00  0.00    +0.000 C 
ATOM     12  O   UNL     1       4.901   6.209  18.922  0.00  0.00    +0.000 OA
ATOM     13  N   UNL     1       3.260   4.969  17.921  0.00  0.00    +0.000 N 
ATOM     14  C   UNL     1       1.895   4.556  17.646  0.00  0.00    +0.000 C 
ATOM     15  C   UNL     1       1.897   3.062  17.886  0.00  0.00    +0.000 C 
ATOM     16  C   UNL     1       3.291   2.620  17.470  0.00  0.00    +0.000 C 
ATOM     17  C   UNL     1       4.184   3.860  17.672  0.00  0.00    +0.000 C 
BRANCH  17  18
ATOM     18  C   UNL     1       5.092   4.094  16.480  0.00  0.00    +0.000 A 
ATOM     19  C   UNL     1       4.639   3.963  15.162  0.00  0.00    +0.000 A 
ATOM     20  C   UNL     1       5.542   4.123  14.123  0.00  0.00    +0.000 A 
ATOM     21  N   UNL     1       6.846   4.415  14.299  0.00  0.00    +0.000 NA
ATOM     22  C   UNL     1       7.262   4.569  15.574  0.00  0.00    +0.000 A 
ATOM     23  C   UNL     1       6.438   4.420  16.679  0.00  0.00    +0.000 A 
ENDBRANCH  17  18
ENDBRANCH   6  11
BRANCH  10  24
ATOM     24  C   UNL     1      -0.410  11.205  20.173  0.00  0.00    +0.000 A 
ATOM     25  C   UNL     1       0.106  12.465  20.508  0.00  0.00    +0.000 A 
ATOM     26  C   UNL     1      -0.557  13.630  20.117  0.00  0.00    +0.000 A 
ATOM     27  C   UNL     1      -1.717  13.548  19.353  0.00  0.00    +0.000 A 
ATOM     28  C   UNL     1      -2.214  12.304  18.978  0.00  0.00    +0.000 A 
ATOM     29  C   UNL     1      -1.569  11.136  19.392  0.00  0.00    +0.000 A 
ENDBRANCH  10  24
TORSDOF 3
ENDMDL
MODEL 7
REMARK VINA RESULT:      -8.1      1.913      2.636
REMARK  Name = 
REMARK  4 active torsions:
REMARK  status: ('A' for Active; 'I' for Inactive)
REMARK    1  A    between atoms: C_1  and  C_2
REMARK    2  A    between atoms: C_6  and  C_7
REMARK    3  A    between atoms: C_13  and  C_14
REMARK    4  A    between atoms: N_23  and  C_24
REMARK                            x       y       z     vdW  Elec       q    Type
REMARK                         _______ _______ _______ _____ _____    ______ ____
ROOT
ATOM      1  C   UNL     1       3.601   3.660  20.067  0.00  0.00    +0.000 C 
ATOM      2  C   UNL     1       3.129   4.993  19.601  0.00  0.00    +0.000 A 
ATOM      3  N   UNL     1       2.259   5.712  20.285  0.00  0.00    +0.000 NA
ATOM      4  C   UNL     1       2.198   6.922  19.662  0.00  0.00    +0.000 A 
ATOM      5  C   UNL     1       1.438   8.045  20.023  0.00  0.00    +0.000 A 
ATOM      6  C   UNL     1       1.435   9.168  19.192  0.00  0.00    +0.000 A 
ATOM      7  C   UNL     1       2.255   9.181  18.052  0.00  0.00    +0.000 A 
ATOM      8  C   UNL     1       3.044   8.080  17.699  0.00  0.00    +0.000 A 
ATOM      9  C   UNL     1       3.015   6.954  18.538  0.00  0.00    +0.000 A 
ATOM     10  N   UNL     1       3.638   5.702  18.507  0.00  0.00    +0.000 N 
ENDROOT
BRANCH   6  11
ATOM     11  C   UNL     1       0.608  10.385  19.442  0.00  0.00    +0.000 C 
ATOM     12  O   UNL     1       1.142  11.304  20.061  0.00  0.00    +0.000 OA
ATOM     13  N   UNL     1      -0.677  10.509  18.922  0.00  0.00    +0.000 N 
ATOM     14  C   UNL     1      -1.389   9.620  18.021  0.00  0.00    +0.000 C 
ATOM     15  C   UNL     1      -2.056  10.547  17.027  0.00  0.00    +0.000 C 
ATOM     16  C   UNL     1      -2.380  11.792  17.837  0.00  0.00    +0.000 C 
ATOM     17  C   UNL     1      -1.338  11.815  18.974  0.00  0.00    +0.000 C 
BRANCH  17  18
ATOM     18  C   UNL     1      -1.983  12.106  20.316  0.00  0.00    +0.000 A 
ATOM     19  C   UNL     1      -1.367  11.770  21.527  0.00  0.00    +0.000 A 
ATOM     20  C   UNL     1      -2.045  12.002  22.713  0.00  0.00    +0.000 A 
ATOM     21  N   UNL     1      -3.275  12.550  22.780  0.00  0.00    +0.000 NA
ATOM     22  C   UNL     1      -3.845  12.897  21.606  0.00  0.00    +0.000 A 
ATOM     23  C   UNL     1      -3.250  12.697  20.369  0.00  0.00    +0.000 A 
ENDBRANCH  17  18
ENDBRANCH   6  11
BRANCH  10  24
ATOM     24  C   UNL     1       4.589   5.265  17.541  0.00  0.00    +0.000 A 
ATOM     25  C   UNL     1       5.868   5.841  17.504  0.00  0.00    +0.000 A 
ATOM     26  C   UNL     1       6.772   5.496  16.497  0.00  0.00    +0.000 A 
ATOM     27  C   UNL     1       6.424   4.545  15.544  0.00  0.00    +0.000 A 
ATOM     28  C   UNL     1       5.174   3.936  15.597  0.00  0.00    +0.000 A 
ATOM     29  C   UNL     1       4.256   4.299  16.585  0.00  0.00    +0.000 A 
ENDBRANCH  10  24
TORSDOF 3
ENDMDL
MODEL 8
REMARK VINA RESULT:      -8.0      1.872      2.604
REMARK  Name = 
REMARK  4 active torsions:
REMARK  status: ('A' for Active; 'I' for Inactive)
REMARK    1  A    between atoms: C_1  and  C_2
REMARK    2  A    between atoms: C_6  and  C_7
REMARK    3  A    between atoms: C_13  and  C_14
REMARK    4  A    between atoms: N_23  and  C_24
REMARK                            x       y       z     vdW  Elec       q    Type
REMARK                         _______ _______ _______ _____ _____    ______ ____
ROOT
ATOM      1  C   UNL     1       2.986   3.984  20.770  0.00  0.00    +0.000 C 
ATOM      2  C   UNL     1       2.656   5.266  20.090  0.00  0.00    +0.000 A 
ATOM      3  N   UNL     1       1.791   6.128  20.591  0.00  0.00    +0.000 NA
ATOM      4  C   UNL     1       1.872   7.241  19.809  0.00  0.00    +0.000 A 
ATOM      5  C   UNL     1       1.174   8.449  19.947  0.00  0.00    +0.000 A 
ATOM      6  C   UNL     1       1.323   9.444  18.976  0.00  0.00    +0.000 A 
ATOM      7  C   UNL     1       2.230   9.244  17.923  0.00  0.00    +0.000 A 
ATOM      8  C   UNL     1       2.959   8.056  17.792  0.00  0.00    +0.000 A 
ATOM      9  C   UNL     1       2.777   7.063  18.768  0.00  0.00    +0.000 A 
ATOM     10  N   UNL     1       3.303   5.781  18.961  0.00  0.00    +0.000 N 
ENDROOT
BRANCH   6  11
ATOM     11  C   UNL     1       0.575  10.734  18.987  0.00  0.00    +0.000 C 
ATOM     12  O   UNL     1       1.221  11.752  19.226  0.00  0.00    +0.000 OA
ATOM     13  N   UNL     1      -0.776  10.793  18.653  0.00  0.00    +0.000 N 
ATOM     14  C   UNL     1      -1.645   9.737  18.166  0.00  0.00    +0.000 C 
ATOM     15  C   UNL     1      -2.446  10.388  17.059  0.00  0.00    +0.000 C 
ATOM     16  C   UNL     1      -2.606  11.830  17.515  0.00  0.00    +0.000 C 
ATOM     17  C   UNL     1      -1.392  12.102  18.426  0.00  0.00    +0.000 C 
BRANCH  17  18
ATOM     18  C   UNL     1      -1.802  12.801  19.708  0.00  0.00    +0.000 A 
ATOM     19  C   UNL     1      -1.100  13.902  20.213  0.00  0.00    +0.000 A 
ATOM     20  C   UNL     1      -1.489  14.448  21.426  0.00  0.00    +0.000 A 
ATOM     21  N   UNL     1      -2.524  13.989  22.158  0.00  0.00    +0.000 NA
ATOM     22  C   UNL     1      -3.211  12.947  21.644  0.00  0.00    +0.000 A 
ATOM     23  C   UNL     1      -2.894  12.328  20.444  0.00  0.00    +0.000 A 
ENDBRANCH  17  18
ENDBRANCH   6  11
BRANCH  10  24
ATOM     24  C   UNL     1       4.292   5.153  18.151  0.00  0.00    +0.000 A 
ATOM     25  C   UNL     1       5.653   5.367  18.412  0.00  0.00    +0.000 A 
ATOM     26  C   UNL     1       6.630   4.842  17.563  0.00  0.00    +0.000 A 
ATOM     27  C   UNL     1       6.259   4.065  16.470  0.00  0.00    +0.000 A 
ATOM     28  C   UNL     1       4.913   3.811  16.226  0.00  0.00    +0.000 A 
ATOM     29  C   UNL     1       3.931   4.358  17.057  0.00  0.00    +0.000 A 
ENDBRANCH  10  24
TORSDOF 3
ENDMDL
MODEL 9
REMARK VINA RESULT:      -8.0      2.097      2.957
REMARK  Name = 
REMARK  4 active torsions:
REMARK  status: ('A' for Active; 'I' for Inactive)
REMARK    1  A    between atoms: C_1  and  C_2
REMARK    2  A    between atoms: C_6  and  C_7
REMARK    3  A    between atoms: C_13  and  C_14
REMARK    4  A    between atoms: N_23  and  C_24
REMARK                            x       y       z     vdW  Elec       q    Type
REMARK                         _______ _______ _______ _____ _____    ______ ____
ROOT
ATOM      1  C   UNL     1       3.408   3.969  20.362  0.00  0.00    +0.000 C 
ATOM      2  C   UNL     1       2.944   5.262  19.790  0.00  0.00    +0.000 A 
ATOM      3  N   UNL     1       2.007   5.992  20.364  0.00  0.00    +0.000 NA
ATOM      4  C   UNL     1       1.968   7.166  19.674  0.00  0.00    +0.000 A 
ATOM      5  C   UNL     1       1.157   8.286  19.913  0.00  0.00    +0.000 A 
ATOM      6  C   UNL     1       1.194   9.364  19.025  0.00  0.00    +0.000 A 
ATOM      7  C   UNL     1       2.101   9.339  17.953  0.00  0.00    +0.000 A 
ATOM      8  C   UNL     1       2.940   8.243  17.721  0.00  0.00    +0.000 A 
ATOM      9  C   UNL     1       2.870   7.162  18.616  0.00  0.00    +0.000 A 
ATOM     10  N   UNL     1       3.521   5.927  18.701  0.00  0.00    +0.000 N 
ENDROOT
BRANCH   6  11
ATOM     11  C   UNL     1       0.323  10.570  19.144  0.00  0.00    +0.000 C 
ATOM     12  O   UNL     1       0.815  11.563  19.676  0.00  0.00    +0.000 OA
ATOM     13  N   UNL     1      -0.957  10.597  18.598  0.00  0.00    +0.000 N 
ATOM     14  C   UNL     1      -1.625   9.600  17.781  0.00  0.00    +0.000 C 
ATOM     15  C   UNL     1      -2.307  10.401  16.692  0.00  0.00    +0.000 C 
ATOM     16  C   UNL     1      -2.685  11.707  17.372  0.00  0.00    +0.000 C 
ATOM     17  C   UNL     1      -1.663  11.877  18.514  0.00  0.00    +0.000 C 
BRANCH  17  18
ATOM     18  C   UNL     1      -2.338  12.275  19.812  0.00  0.00    +0.000 A 
ATOM     19  C   UNL     1      -1.630  12.394  21.014  0.00  0.00    +0.000 A 
ATOM     20  C   UNL     1      -2.324  12.693  22.176  0.00  0.00    +0.000 A 
ATOM     21  N   UNL     1      -3.657  12.893  22.224  0.00  0.00    +0.000 NA
ATOM     22  C   UNL     1      -4.322  12.806  21.053  0.00  0.00    +0.000 A 
ATOM     23  C   UNL     1      -3.719  12.504  19.841  0.00  0.00    +0.000 A 
ENDBRANCH  17  18
ENDBRANCH   6  11
BRANCH  10  24
ATOM     24  C   UNL     1       4.556   5.465  17.837  0.00  0.00    +0.000 A 
ATOM     25  C   UNL     1       4.250   4.599  16.777  0.00  0.00    +0.000 A 
ATOM     26  C   UNL     1       5.267   4.057  15.988  0.00  0.00    +0.000 A 
ATOM     27  C   UNL     1       6.593   4.407  16.223  0.00  0.00    +0.000 A 
ATOM     28  C   UNL     1       6.903   5.300  17.244  0.00  0.00    +0.000 A 
ATOM     29  C   UNL     1       5.891   5.822  18.054  0.00  0.00    +0.000 A 
ENDBRANCH  10  24
TORSDOF 3
ENDMDL
