MODEL 1
REMARK VINA RESULT:      -8.5      0.000      0.000
REMARK  Name = 
REMARK  3 active torsions:
REMARK  status: ('A' for Active; 'I' for Inactive)
REMARK    1  A    between atoms: C_2  and  C_16
REMARK    2  A    between atoms: C_6  and  C_7
REMARK    3  A    between atoms: N_19  and  C_20
REMARK                            x       y       z     vdW  Elec       q    Type
REMARK                         _______ _______ _______ _____ _____    ______ ____
ROOT
ATOM      1  O   UNL     1       1.594   8.863  19.322  0.00  0.00    +0.000 OA
ATOM      2  C   UNL     1       1.273   8.449  20.434  0.00  0.00    +0.000 C 
ATOM      3  N   UNL     1       1.537   7.207  20.956  0.00  0.00    +0.000 N 
ATOM      4  C   UNL     1       2.212   6.275  20.226  0.00  0.00    +0.000 A 
ATOM      5  N   UNL     1       2.897   6.461  19.130  0.00  0.00    +0.000 NA
ATOM      6  C   UNL     1       3.397   5.260  18.661  0.00  0.00    +0.000 A 
ATOM      7  C   UNL     1       3.026   4.164  19.421  0.00  0.00    +0.000 A 
ATOM      8  S   UNL     1       2.130   4.677  20.802  0.00  0.00    +0.000 S 
ATOM      9  H   UNL     1       1.122   6.955  21.844  0.00  0.00    +0.000 HD
ENDROOT
BRANCH   6  10
ATOM     10  C   UNL     1       4.243   5.231  17.469  0.00  0.00    +0.000 A 
ATOM     11  C   UNL     1       4.731   3.993  17.006  0.00  0.00    +0.000 A 
ATOM     12  C   UNL     1       5.518   3.915  15.854  0.00  0.00    +0.000 A 
ATOM     13  C   UNL     1       5.827   5.076  15.159  0.00  0.00    +0.000 A 
ATOM     14  F   UNL     1       6.576   5.007  14.052  0.00  0.00    +0.000 F 
ATOM     15  C   UNL     1       5.362   6.310  15.596  0.00  0.00    +0.000 A 
ATOM     16  C   UNL     1       4.573   6.389  16.749  0.00  0.00    +0.000 A 
ENDBRANCH   6  10
BRANCH   2  17
ATOM     17  C   UNL     1       0.471   9.294  21.327  0.00  0.00    +0.000 A 
ATOM     18  C   UNL     1       0.405   9.145  22.731  0.00  0.00    +0.000 A 
ATOM     19  C   UNL     1      -0.441  10.131  23.162  0.00  0.00    +0.000 A 
ATOM     20  N   UNL     1      -0.874  10.810  22.046  0.00  0.00    +0.000 N 
ATOM     21  N   UNL     1      -0.287  10.330  20.908  0.00  0.00    +0.000 NA
BRANCH  20  22
ATOM     22  C   UNL     1      -1.808  11.885  22.007  0.00  0.00    +0.000 A 
ATOM     23  C   UNL     1      -2.575  12.210  23.140  0.00  0.00    +0.000 A 
ATOM     24  C   UNL     1      -3.486  13.267  23.093  0.00  0.00    +0.000 A 
ATOM     25  C   UNL     1      -3.636  13.993  21.919  0.00  0.00    +0.000 A 
ATOM     26  F   UNL     1      -4.513  15.004  21.878  0.00  0.00    +0.000 F 
ATOM     27  C   UNL     1      -2.892  13.681  20.785  0.00  0.00    +0.000 A 
ATOM     28  C   UNL     1      -1.972  12.628  20.827  0.00  0.00    +0.000 A 
ENDBRANCH  20  22
ENDBRANCH   2  17
TORSDOF 3
ENDMDL
MODEL 2
REMARK VINA RESULT:      -8.4      0.573      1.346
REMARK  Name = 
REMARK  3 active torsions:
REMARK  status: ('A' for Active; 'I' for Inactive)
REMARK    1  A    between atoms: C_2  and  C_16
REMARK    2  A    between atoms: C_6  and  C_7
REMARK    3  A    between atoms: N_19  and  C_20
REMARK                            x       y       z     vdW  Elec       q    Type
REMARK                         _______ _______ _______ _____ _____    ______ ____
ROOT
ATOM      1  O   UNL     1       1.573   8.877  19.316  0.00  0.00    +0.000 OA
ATOM      2  C   UNL     1       1.271   8.489  20.442  0.00  0.00    +0.000 C 
ATOM      3  N   UNL     1       1.539   7.256  20.986  0.00  0.00    +0.000 N 
ATOM      4  C   UNL     1       2.197   6.307  20.264  0.00  0.00    +0.000 A 
ATOM      5  N   UNL     1       2.863   6.466  19.152  0.00  0.00    +0.000 NA
ATOM      6  C   UNL     1       3.350   5.254  18.700  0.00  0.00    +0.000 A 
ATOM      7  C   UNL     1       2.988   4.175  19.489  0.00  0.00    +0.000 A 
ATOM      8  S   UNL     1       2.119   4.721  20.875  0.00  0.00    +0.000 S 
ATOM      9  H   UNL     1       1.139   7.026  21.886  0.00  0.00    +0.000 HD
ENDROOT
BRANCH   6  10
ATOM     10  C   UNL     1       4.174   5.196  17.494  0.00  0.00    +0.000 A 
ATOM     11  C   UNL     1       4.522   6.398  16.845  0.00  0.00    +0.000 A 
ATOM     12  C   UNL     1       5.332   6.393  15.707  0.00  0.00    +0.000 A 
ATOM     13  C   UNL     1       5.797   5.185  15.206  0.00  0.00    +0.000 A 
ATOM     14  F   UNL     1       6.578   5.174  14.119  0.00  0.00    +0.000 F 
ATOM     15  C   UNL     1       5.465   3.985  15.823  0.00  0.00    +0.000 A 
ATOM     16  C   UNL     1       4.655   3.989  16.963  0.00  0.00    +0.000 A 
ENDBRANCH   6  10
BRANCH   2  17
ATOM     17  C   UNL     1       0.488   9.356  21.331  0.00  0.00    +0.000 A 
ATOM     18  C   UNL     1       0.190   9.064  22.682  0.00  0.00    +0.000 A 
ATOM     19  C   UNL     1      -0.544  10.129  23.130  0.00  0.00    +0.000 A 
ATOM     20  N   UNL     1      -0.693  10.994  22.071  0.00  0.00    +0.000 N 
ATOM     21  N   UNL     1      -0.026  10.549  20.963  0.00  0.00    +0.000 NA
BRANCH  20  22
ATOM     22  C   UNL     1      -1.429  12.213  22.058  0.00  0.00    +0.000 A 
ATOM     23  C   UNL     1      -2.261  12.539  20.972  0.00  0.00    +0.000 A 
ATOM     24  C   UNL     1      -2.980  13.735  20.970  0.00  0.00    +0.000 A 
ATOM     25  C   UNL     1      -2.865  14.608  22.044  0.00  0.00    +0.000 A 
ATOM     26  F   UNL     1      -3.554  15.755  22.036  0.00  0.00    +0.000 F 
ATOM     27  C   UNL     1      -2.040  14.308  23.124  0.00  0.00    +0.000 A 
ATOM     28  C   UNL     1      -1.322  13.107  23.136  0.00  0.00    +0.000 A 
ENDBRANCH  20  22
ENDBRANCH   2  17
TORSDOF 3
ENDMDL
MODEL 3
REMARK VINA RESULT:      -8.3      1.278      1.801
REMARK  Name = 
REMARK  3 active torsions:
REMARK  status: ('A' for Active; 'I' for Inactive)
REMARK    1  A    between atoms: C_2  and  C_16
REMARK    2  A    between atoms: C_6  and  C_7
REMARK    3  A    between atoms: N_19  and  C_20
REMARK                            x       y       z     vdW  Elec       q    Type
REMARK                         _______ _______ _______ _____ _____    ______ ____
ROOT
ATOM      1  O   UNL     1       1.668   8.822  19.269  0.00  0.00    +0.000 OA
ATOM      2  C   UNL     1       1.356   8.442  20.394  0.00  0.00    +0.000 C 
ATOM      3  N   UNL     1       1.600   7.206  20.941  0.00  0.00    +0.000 N 
ATOM      4  C   UNL     1       2.242   6.243  20.222  0.00  0.00    +0.000 A 
ATOM      5  N   UNL     1       2.914   6.388  19.113  0.00  0.00    +0.000 NA
ATOM      6  C   UNL     1       3.379   5.165  18.664  0.00  0.00    +0.000 A 
ATOM      7  C   UNL     1       2.996   4.095  19.454  0.00  0.00    +0.000 A 
ATOM      8  S   UNL     1       2.134   4.660  20.836  0.00  0.00    +0.000 S 
ATOM      9  H   UNL     1       1.194   6.984  21.841  0.00  0.00    +0.000 HD
ENDROOT
BRANCH   6  10
ATOM     10  C   UNL     1       4.205   5.090  17.459  0.00  0.00    +0.000 A 
ATOM     11  C   UNL     1       4.536   6.281  16.782  0.00  0.00    +0.000 A 
ATOM     12  C   UNL     1       5.347   6.260  15.645  0.00  0.00    +0.000 A 
ATOM     13  C   UNL     1       5.830   5.047  15.174  0.00  0.00    +0.000 A 
ATOM     14  F   UNL     1       6.612   5.021  14.087  0.00  0.00    +0.000 F 
ATOM     15  C   UNL     1       5.515   3.858  15.820  0.00  0.00    +0.000 A 
ATOM     16  C   UNL     1       4.704   3.878  16.959  0.00  0.00    +0.000 A 
ENDBRANCH   6  10
BRANCH   2  17
ATOM     17  C   UNL     1       0.587   9.325  21.280  0.00  0.00    +0.000 A 
ATOM     18  C   UNL     1      -0.232   8.882  22.344  0.00  0.00    +0.000 A 
ATOM     19  C   UNL     1      -0.749  10.020  22.902  0.00  0.00    +0.000 A 
ATOM     20  N   UNL     1      -0.271  11.083  22.171  0.00  0.00    +0.000 N 
ATOM     21  N   UNL     1       0.589  10.671  21.190  0.00  0.00    +0.000 NA
BRANCH  20  22
ATOM     22  C   UNL     1      -0.584  12.460  22.359  0.00  0.00    +0.000 A 
ATOM     23  C   UNL     1       0.149  13.460  21.694  0.00  0.00    +0.000 A 
ATOM     24  C   UNL     1      -0.168  14.807  21.882  0.00  0.00    +0.000 A 
ATOM     25  C   UNL     1      -1.207  15.156  22.734  0.00  0.00    +0.000 A 
ATOM     26  F   UNL     1      -1.505  16.448  22.913  0.00  0.00    +0.000 F 
ATOM     27  C   UNL     1      -1.938  14.181  23.408  0.00  0.00    +0.000 A 
ATOM     28  C   UNL     1      -1.631  12.830  23.219  0.00  0.00    +0.000 A 
ENDBRANCH  20  22
ENDBRANCH   2  17
TORSDOF 3
ENDMDL
MODEL 4
REMARK VINA RESULT:      -8.3      1.185      1.189
REMARK  Name = 
REMARK  3 active torsions:
REMARK  status: ('A' for Active; 'I' for Inactive)
REMARK    1  A    between atoms: C_2  and  C_16
REMARK    2  A    between atoms: C_6  and  C_7
REMARK    3  A    between atoms: N_19  and  C_20
REMARK                            x       y       z     vdW  Elec       q    Type
REMARK                         _______ _______ _______ _____ _____    ______ ____
ROOT
ATOM      1  O   UNL     1       1.649   8.958  19.399  0.00  0.00    +0.000 OA
ATOM      2  C   UNL     1       1.308   8.544  20.504  0.00  0.00    +0.000 C 
ATOM      3  N   UNL     1       1.523   7.287  21.014  0.00  0.00    +0.000 N 
ATOM      4  C   UNL     1       2.168   6.340  20.277  0.00  0.00    +0.000 A 
ATOM      5  N   UNL     1       2.865   6.512  19.187  0.00  0.00    +0.000 NA
ATOM      6  C   UNL     1       3.323   5.299  18.707  0.00  0.00    +0.000 A 
ATOM      7  C   UNL     1       2.908   4.209  19.453  0.00  0.00    +0.000 A 
ATOM      8  S   UNL     1       2.024   4.739  20.835  0.00  0.00    +0.000 S 
ATOM      9  H   UNL     1       1.095   7.042  21.897  0.00  0.00    +0.000 HD
ENDROOT
BRANCH   6  10
ATOM     10  C   UNL     1       4.174   5.252  17.519  0.00  0.00    +0.000 A 
ATOM     11  C   UNL     1       4.679   4.010  17.087  0.00  0.00    +0.000 A 
ATOM     12  C   UNL     1       5.471   3.914  15.940  0.00  0.00    +0.000 A 
ATOM     13  C   UNL     1       5.768   5.062  15.220  0.00  0.00    +0.000 A 
ATOM     14  F   UNL     1       6.523   4.975  14.117  0.00  0.00    +0.000 F 
ATOM     15  C   UNL     1       5.288   6.300  15.626  0.00  0.00    +0.000 A 
ATOM     16  C   UNL     1       4.494   6.397  16.773  0.00  0.00    +0.000 A 
ENDBRANCH   6  10
BRANCH   2  17
ATOM     17  C   UNL     1       0.532   9.409  21.402  0.00  0.00    +0.000 A 
ATOM     18  C   UNL     1      -0.199   8.953  22.524  0.00  0.00    +0.000 A 
ATOM     19  C   UNL     1      -0.757  10.076  23.073  0.00  0.00    +0.000 A 
ATOM     20  N   UNL     1      -0.388  11.140  22.283  0.00  0.00    +0.000 N 
ATOM     21  N   UNL     1       0.442  10.749  21.270  0.00  0.00    +0.000 NA
BRANCH  20  22
ATOM     22  C   UNL     1      -0.780  12.501  22.444  0.00  0.00    +0.000 A 
ATOM     23  C   UNL     1      -1.957  12.831  23.139  0.00  0.00    +0.000 A 
ATOM     24  C   UNL     1      -2.331  14.168  23.294  0.00  0.00    +0.000 A 
ATOM     25  C   UNL     1      -1.539  15.170  22.749  0.00  0.00    +0.000 A 
ATOM     26  F   UNL     1      -1.903  16.450  22.897  0.00  0.00    +0.000 F 
ATOM     27  C   UNL     1      -0.376  14.862  22.050  0.00  0.00    +0.000 A 
ATOM     28  C   UNL     1       0.010  13.526  21.898  0.00  0.00    +0.000 A 
ENDBRANCH  20  22
ENDBRANCH   2  17
TORSDOF 3
ENDMDL
MODEL 5
REMARK VINA RESULT:      -8.2      1.506      2.216
REMARK  Name = 
REMARK  3 active torsions:
REMARK  status: ('A' for Active; 'I' for Inactive)
REMARK    1  A    between atoms: C_2  and  C_16
REMARK    2  A    between atoms: C_6  and  C_7
REMARK    3  A    between atoms: N_19  and  C_20
REMARK                            x       y       z     vdW  Elec       q    Type
REMARK                         _______ _______ _______ _____ _____    ______ ____
ROOT
ATOM      1  O   UNL     1       1.913   9.495  17.489  0.00  0.00    +0.000 OA
ATOM      2  C   UNL     1       1.525   9.494  18.655  0.00  0.00    +0.000 C 
ATOM      3  N   UNL     1       1.678   8.482  19.571  0.00  0.00    +0.000 N 
ATOM      4  C   UNL     1       2.306   7.323  19.226  0.00  0.00    +0.000 A 
ATOM      5  N   UNL     1       3.040   7.094  18.171  0.00  0.00    +0.000 NA
ATOM      6  C   UNL     1       3.464   5.778  18.152  0.00  0.00    +0.000 A 
ATOM      7  C   UNL     1       2.988   5.020  19.207  0.00  0.00    +0.000 A 
ATOM      8  S   UNL     1       2.086   6.014  20.290  0.00  0.00    +0.000 S 
ATOM      9  H   UNL     1       1.216   8.564  20.466  0.00  0.00    +0.000 HD
ENDROOT
BRANCH   6  10
ATOM     10  C   UNL     1       4.346   5.306  17.085  0.00  0.00    +0.000 A 
ATOM     11  C   UNL     1       4.955   6.249  16.234  0.00  0.00    +0.000 A 
ATOM     12  C   UNL     1       5.828   5.845  15.221  0.00  0.00    +0.000 A 
ATOM     13  C   UNL     1       6.094   4.494  15.048  0.00  0.00    +0.000 A 
ATOM     14  F   UNL     1       6.934   4.102  14.081  0.00  0.00    +0.000 F 
ATOM     15  C   UNL     1       5.503   3.543  15.870  0.00  0.00    +0.000 A 
ATOM     16  C   UNL     1       4.630   3.946  16.886  0.00  0.00    +0.000 A 
ENDBRANCH   6  10
BRANCH   2  17
ATOM     17  C   UNL     1       0.757  10.633  19.174  0.00  0.00    +0.000 A 
ATOM     18  C   UNL     1       1.000  11.985  18.840  0.00  0.00    +0.000 A 
ATOM     19  C   UNL     1       0.062  12.703  19.532  0.00  0.00    +0.000 A 
ATOM     20  N   UNL     1      -0.679  11.804  20.263  0.00  0.00    +0.000 N 
ATOM     21  N   UNL     1      -0.287  10.517  20.021  0.00  0.00    +0.000 NA
BRANCH  20  22
ATOM     22  C   UNL     1      -1.734  12.104  21.172  0.00  0.00    +0.000 A 
ATOM     23  C   UNL     1      -2.886  12.784  20.735  0.00  0.00    +0.000 A 
ATOM     24  C   UNL     1      -3.916  13.071  21.633  0.00  0.00    +0.000 A 
ATOM     25  C   UNL     1      -3.795  12.689  22.963  0.00  0.00    +0.000 A 
ATOM     26  F   UNL     1      -4.784  12.969  23.820  0.00  0.00    +0.000 F 
ATOM     27  C   UNL     1      -2.660  12.024  23.415  0.00  0.00    +0.000 A 
ATOM     28  C   UNL     1      -1.627  11.726  22.520  0.00  0.00    +0.000 A 
ENDBRANCH  20  22
ENDBRANCH   2  17
TORSDOF 3
ENDMDL
MODEL 6
REMARK VINA RESULT:      -8.2      1.537      1.899
REMARK  Name = 
REMARK  3 active torsions:
REMARK  status: ('A' for Active; 'I' for Inactive)
REMARK    1  A    between atoms: C_2  and  C_16
REMARK    2  A    between atoms: C_6  and  C_7
REMARK    3  A    between atoms: N_19  and  C_20
REMARK                            x       y       z     vdW  Elec       q    Type
REMARK                         _______ _______ _______ _____ _____    ______ ____
ROOT
ATOM      1  O   UNL     1       1.951   9.548  17.455  0.00  0.00    +0.000 OA
ATOM      2  C   UNL     1       1.549   9.538  18.616  0.00  0.00    +0.000 C 
ATOM      3  N   UNL     1       1.692   8.519  19.526  0.00  0.00    +0.000 N 
ATOM      4  C   UNL     1       2.324   7.362  19.180  0.00  0.00    +0.000 A 
ATOM      5  N   UNL     1       3.070   7.141  18.132  0.00  0.00    +0.000 NA
ATOM      6  C   UNL     1       3.495   5.826  18.107  0.00  0.00    +0.000 A 
ATOM      7  C   UNL     1       3.006   5.059  19.151  0.00  0.00    +0.000 A 
ATOM      8  S   UNL     1       2.092   6.045  20.232  0.00  0.00    +0.000 S 
ATOM      9  H   UNL     1       1.220   8.594  20.417  0.00  0.00    +0.000 HD
ENDROOT
BRANCH   6  10
ATOM     10  C   UNL     1       4.389   5.362  17.047  0.00  0.00    +0.000 A 
ATOM     11  C   UNL     1       4.597   3.978  16.885  0.00  0.00    +0.000 A 
ATOM     12  C   UNL     1       5.419   3.487  15.867  0.00  0.00    +0.000 A 
ATOM     13  C   UNL     1       6.043   4.380  15.006  0.00  0.00    +0.000 A 
ATOM     14  F   UNL     1       6.828   3.916  14.025  0.00  0.00    +0.000 F 
ATOM     15  C   UNL     1       5.858   5.749  15.146  0.00  0.00    +0.000 A 
ATOM     16  C   UNL     1       5.035   6.241  16.165  0.00  0.00    +0.000 A 
ENDBRANCH   6  10
BRANCH   2  17
ATOM     17  C   UNL     1       0.776  10.673  19.135  0.00  0.00    +0.000 A 
ATOM     18  C   UNL     1       1.043  12.030  18.842  0.00  0.00    +0.000 A 
ATOM     19  C   UNL     1       0.090  12.742  19.518  0.00  0.00    +0.000 A 
ATOM     20  N   UNL     1      -0.685  11.834  20.202  0.00  0.00    +0.000 N 
ATOM     21  N   UNL     1      -0.298  10.548  19.943  0.00  0.00    +0.000 NA
BRANCH  20  22
ATOM     22  C   UNL     1      -1.768  12.124  21.081  0.00  0.00    +0.000 A 
ATOM     23  C   UNL     1      -1.661  11.867  22.460  0.00  0.00    +0.000 A 
ATOM     24  C   UNL     1      -2.727  12.157  23.314  0.00  0.00    +0.000 A 
ATOM     25  C   UNL     1      -3.897  12.695  22.794  0.00  0.00    +0.000 A 
ATOM     26  F   UNL     1      -4.917  12.969  23.617  0.00  0.00    +0.000 F 
ATOM     27  C   UNL     1      -4.024  12.949  21.432  0.00  0.00    +0.000 A 
ATOM     28  C   UNL     1      -2.958  12.668  20.571  0.00  0.00    +0.000 A 
ENDBRANCH  20  22
ENDBRANCH   2  17
TORSDOF 3
ENDMDL
MODEL 7
REMARK VINA RESULT:      -8.0      0.937      1.406
REMARK  Name = 
REMARK  3 active torsions:
REMARK  status: ('A' for Active; 'I' for Inactive)
REMARK    1  A    between atoms: C_2  and  C_16
REMARK    2  A    between atoms: C_6  and  C_7
REMARK    3  A    between atoms: N_19  and  C_20
REMARK                            x       y       z     vdW  Elec       q    Type
REMARK                         _______ _______ _______ _____ _____    ______ ____
ROOT
ATOM      1  O   UNL     1       2.082   8.433  19.404  0.00  0.00    +0.000 OA
ATOM      2  C   UNL     1       1.558   8.052  20.448  0.00  0.00    +0.000 C 
ATOM      3  N   UNL     1       1.650   6.799  21.004  0.00  0.00    +0.000 N 
ATOM      4  C   UNL     1       2.371   5.819  20.391  0.00  0.00    +0.000 A 
ATOM      5  N   UNL     1       3.236   5.948  19.423  0.00  0.00    +0.000 NA
ATOM      6  C   UNL     1       3.724   4.713  19.038  0.00  0.00    +0.000 A 
ATOM      7  C   UNL     1       3.162   3.651  19.725  0.00  0.00    +0.000 A 
ATOM      8  S   UNL     1       2.090   4.234  20.944  0.00  0.00    +0.000 S 
ATOM      9  H   UNL     1       1.081   6.584  21.812  0.00  0.00    +0.000 HD
ENDROOT
BRANCH   6  10
ATOM     10  C   UNL     1       4.748   4.618  18.000  0.00  0.00    +0.000 A 
ATOM     11  C   UNL     1       4.358   4.318  16.679  0.00  0.00    +0.000 A 
ATOM     12  C   UNL     1       5.299   4.247  15.649  0.00  0.00    +0.000 A 
ATOM     13  C   UNL     1       6.639   4.470  15.933  0.00  0.00    +0.000 A 
ATOM     14  F   UNL     1       7.545   4.408  14.949  0.00  0.00    +0.000 F 
ATOM     15  C   UNL     1       7.051   4.763  17.227  0.00  0.00    +0.000 A 
ATOM     16  C   UNL     1       6.110   4.836  18.259  0.00  0.00    +0.000 A 
ENDBRANCH   6  10
BRANCH   2  17
ATOM     17  C   UNL     1       0.680   8.956  21.201  0.00  0.00    +0.000 A 
ATOM     18  C   UNL     1       0.265   8.748  22.536  0.00  0.00    +0.000 A 
ATOM     19  C   UNL     1      -0.528   9.821  22.841  0.00  0.00    +0.000 A 
ATOM     20  N   UNL     1      -0.596  10.608  21.715  0.00  0.00    +0.000 N 
ATOM     21  N   UNL     1       0.179  10.107  20.705  0.00  0.00    +0.000 NA
BRANCH  20  22
ATOM     22  C   UNL     1      -1.352  11.805  21.552  0.00  0.00    +0.000 A 
ATOM     23  C   UNL     1      -1.213  12.588  20.392  0.00  0.00    +0.000 A 
ATOM     24  C   UNL     1      -1.961  13.758  20.240  0.00  0.00    +0.000 A 
ATOM     25  C   UNL     1      -2.837  14.149  21.243  0.00  0.00    +0.000 A 
ATOM     26  F   UNL     1      -3.549  15.272  21.094  0.00  0.00    +0.000 F 
ATOM     27  C   UNL     1      -2.980  13.392  22.402  0.00  0.00    +0.000 A 
ATOM     28  C   UNL     1      -2.241  12.215  22.558  0.00  0.00    +0.000 A 
ENDBRANCH  20  22
ENDBRANCH   2  17
TORSDOF 3
ENDMDL
MODEL 8
REMARK VINA RESULT:      -8.0      2.182      2.598
REMARK  Name = 
REMARK  3 active torsions:
REMARK  status: ('A' for Active; 'I' for Inactive)
REMARK    1  A    between atoms: C_2  and  C_16
REMARK    2  A    between atoms: C_6  and  C_7
REMARK    3  A    between atoms: N_19  and  C_20
REMARK                            x       y       z     vdW  Elec       q    Type
REMARK                         _______ _______ _______ _____ _____    ______ ____
ROOT
ATOM      1  O   UNL     1       1.787   9.426  17.435  0.00  0.00    +0.000 OA
ATOM      2  C   UNL     1       1.309   9.421  18.567  0.00  0.00    +0.000 C 
ATOM      3  N   UNL     1       1.502   8.469  19.537  0.00  0.00    +0.000 N 
ATOM      4  C   UNL     1       2.285   7.380  19.295  0.00  0.00    +0.000 A 
ATOM      5  N   UNL     1       3.122   7.200  18.310  0.00  0.00    +0.000 NA
ATOM      6  C   UNL     1       3.695   5.943  18.384  0.00  0.00    +0.000 A 
ATOM      7  C   UNL     1       3.225   5.174  19.434  0.00  0.00    +0.000 A 
ATOM      8  S   UNL     1       2.131   6.094  20.398  0.00  0.00    +0.000 S 
ATOM      9  H   UNL     1       0.963   8.529  20.391  0.00  0.00    +0.000 HD
ENDROOT
BRANCH   6  10
ATOM     10  C   UNL     1       4.708   5.539  17.410  0.00  0.00    +0.000 A 
ATOM     11  C   UNL     1       5.892   6.295  17.301  0.00  0.00    +0.000 A 
ATOM     12  C   UNL     1       6.900   5.928  16.405  0.00  0.00    +0.000 A 
ATOM     13  C   UNL     1       6.728   4.806  15.608  0.00  0.00    +0.000 A 
ATOM     14  F   UNL     1       7.693   4.447  14.751  0.00  0.00    +0.000 F 
ATOM     15  C   UNL     1       5.568   4.045  15.692  0.00  0.00    +0.000 A 
ATOM     16  C   UNL     1       4.559   4.411  16.589  0.00  0.00    +0.000 A 
ENDBRANCH   6  10
BRANCH   2  17
ATOM     17  C   UNL     1       0.377  10.481  18.973  0.00  0.00    +0.000 A 
ATOM     18  C   UNL     1       0.739  11.631  19.711  0.00  0.00    +0.000 A 
ATOM     19  C   UNL     1      -0.419  12.345  19.862  0.00  0.00    +0.000 A 
ATOM     20  N   UNL     1      -1.422  11.621  19.260  0.00  0.00    +0.000 N 
ATOM     21  N   UNL     1      -0.938  10.486  18.671  0.00  0.00    +0.000 NA
BRANCH  20  22
ATOM     22  C   UNL     1      -2.807  11.952  19.215  0.00  0.00    +0.000 A 
ATOM     23  C   UNL     1      -3.400  12.702  20.248  0.00  0.00    +0.000 A 
ATOM     24  C   UNL     1      -4.757  13.024  20.193  0.00  0.00    +0.000 A 
ATOM     25  C   UNL     1      -5.523  12.594  19.118  0.00  0.00    +0.000 A 
ATOM     26  F   UNL     1      -6.824  12.903  19.071  0.00  0.00    +0.000 F 
ATOM     27  C   UNL     1      -4.956  11.844  18.091  0.00  0.00    +0.000 A 
ATOM     28  C   UNL     1      -3.596  11.524  18.135  0.00  0.00    +0.000 A 
ENDBRANCH  20  22
ENDBRANCH   2  17
TORSDOF 3
ENDMDL
MODEL 9
REMARK VINA RESULT:      -7.9      1.951      2.182
REMARK  Name = 
REMARK  3 active torsions:
REMARK  status: ('A' for Active; 'I' for Inactive)
REMARK    1  A    between atoms: C_2  and  C_16
REMARK    2  A    between atoms: C_6  and  C_7
REMARK    3  A    between atoms: N_19  and  C_20
REMARK                            x       y       z     vdW  Elec       q    Type
REMARK                         _______ _______ _______ _____ _____    ______ ____
ROOT
ATOM      1  O   UNL     1       1.850   9.385  17.320  0.00  0.00    +0.000 OA
ATOM      2  C   UNL     1       1.465   9.397  18.487  0.00  0.00    +0.000 C 
ATOM      3  N   UNL     1       1.670   8.419  19.430  0.00  0.00    +0.000 N 
ATOM      4  C   UNL     1       2.353   7.283  19.115  0.00  0.00    +0.000 A 
ATOM      5  N   UNL     1       3.094   7.061  18.064  0.00  0.00    +0.000 NA
ATOM      6  C   UNL     1       3.582   5.767  18.079  0.00  0.00    +0.000 A 
ATOM      7  C   UNL     1       3.146   5.016  19.156  0.00  0.00    +0.000 A 
ATOM      8  S   UNL     1       2.200   5.994  20.215  0.00  0.00    +0.000 S 
ATOM      9  H   UNL     1       1.207   8.503  20.325  0.00  0.00    +0.000 HD
ENDROOT
BRANCH   6  10
ATOM     10  C   UNL     1       4.483   5.309  17.021  0.00  0.00    +0.000 A 
ATOM     11  C   UNL     1       4.760   3.932  16.908  0.00  0.00    +0.000 A 
ATOM     12  C   UNL     1       5.590   3.446  15.895  0.00  0.00    +0.000 A 
ATOM     13  C   UNL     1       6.155   4.336  14.991  0.00  0.00    +0.000 A 
ATOM     14  F   UNL     1       6.948   3.875  14.015  0.00  0.00    +0.000 F 
ATOM     15  C   UNL     1       5.902   5.699  15.083  0.00  0.00    +0.000 A 
ATOM     16  C   UNL     1       5.070   6.186  16.096  0.00  0.00    +0.000 A 
ENDBRANCH   6  10
BRANCH   2  17
ATOM     17  C   UNL     1       0.645  10.511  18.978  0.00  0.00    +0.000 A 
ATOM     18  C   UNL     1       1.156  11.679  19.589  0.00  0.00    +0.000 A 
ATOM     19  C   UNL     1       0.060  12.445  19.881  0.00  0.00    +0.000 A 
ATOM     20  N   UNL     1      -1.048  11.736  19.481  0.00  0.00    +0.000 N 
ATOM     21  N   UNL     1      -0.701  10.556  18.884  0.00  0.00    +0.000 NA
BRANCH  20  22
ATOM     22  C   UNL     1      -2.411  12.122  19.635  0.00  0.00    +0.000 A 
ATOM     23  C   UNL     1      -2.813  12.923  20.720  0.00  0.00    +0.000 A 
ATOM     24  C   UNL     1      -4.150  13.297  20.860  0.00  0.00    +0.000 A 
ATOM     25  C   UNL     1      -5.085  12.869  19.927  0.00  0.00    +0.000 A 
ATOM     26  F   UNL     1      -6.367  13.229  20.068  0.00  0.00    +0.000 F 
ATOM     27  C   UNL     1      -4.709  12.069  18.852  0.00  0.00    +0.000 A 
ATOM     28  C   UNL     1      -3.370  11.696  18.701  0.00  0.00    +0.000 A 
ENDBRANCH  20  22
ENDBRANCH   2  17
TORSDOF 3
ENDMDL
