MODEL 1
REMARK VINA RESULT:      -7.9      0.000      0.000
REMARK  Name = 
REMARK  8 active torsions:
REMARK  status: ('A' for Active; 'I' for Inactive)
REMARK    1  A    between atoms: C_2  and  C_4
REMARK    2  A    between atoms: C_4  and  C_5
REMARK    3  A    between atoms: C_5  and  N_6
REMARK    4  A    between atoms: N_6  and  C_7
REMARK    5  A    between atoms: C_7  and  C_8
REMARK    6  A    between atoms: C_14  and  C_16
REMARK    7  A    between atoms: N_18  and  C_19
REMARK    8  A    between atoms: C_19  and  C_20
REMARK                            x       y       z     vdW  Elec       q    Type
REMARK                         _______ _______ _______ _____ _____    ______ ____
ROOT
ATOM      1  C   UNL     1       3.365   5.406  17.665  0.00  0.00    +0.000 A 
ATOM      2  N   UNL     1       3.388   6.698  17.747  0.00  0.00    +0.000 NA
ATOM      3  N   UNL     1       2.552   7.285  18.668  0.00  0.00    +0.000 N 
ATOM      4  C   UNL     1       2.153   6.606  19.834  0.00  0.00    +0.000 A 
ATOM      5  O   UNL     1       1.671   7.154  20.821  0.00  0.00    +0.000 OA
ATOM      6  C   UNL     1       2.084   5.131  19.693  0.00  0.00    +0.000 A 
ATOM      7  C   UNL     1       1.387   4.355  20.629  0.00  0.00    +0.000 A 
ATOM      8  C   UNL     1       0.900   3.104  20.248  0.00  0.00    +0.000 A 
ATOM      9  C   UNL     1       1.064   2.667  18.932  0.00  0.00    +0.000 A 
ATOM     10  C   UNL     1       1.855   3.398  18.042  0.00  0.00    +0.000 A 
ATOM     11  C   UNL     1       2.433   4.596  18.462  0.00  0.00    +0.000 A 
ENDROOT
BRANCH   1  13
ATOM     12  N   UNL     1       5.716   4.639  17.203  0.00  0.00    +0.000 N 
ATOM     13  C   UNL     1       4.389   4.753  16.754  0.00  0.00    +0.000 C 
ATOM     14  O   UNL     1       3.983   4.304  15.688  0.00  0.00    +0.000 OA
BRANCH  12  15
ATOM     15  C   UNL     1       6.661   3.913  16.351  0.00  0.00    +0.000 C 
BRANCH  15  16
ATOM     16  C   UNL     1       7.423   4.868  15.442  0.00  0.00    +0.000 C 
BRANCH  16  18
ATOM     17  N   UNL     1       6.279   3.593  13.763  0.00  0.00    +0.000 N 
ATOM     18  C   UNL     1       7.099   4.653  13.986  0.00  0.00    +0.000 C 
ATOM     19  O   UNL     1       7.512   5.333  13.057  0.00  0.00    +0.000 OA
ATOM     20  H   UNL     1       6.001   3.385  12.815  0.00  0.00    +0.000 HD
ATOM     21  H   UNL     1       5.944   2.971  14.509  0.00  0.00    +0.000 HD
ENDBRANCH  16  18
ENDBRANCH  15  16
ENDBRANCH  12  15
BRANCH  12  22
ATOM     22  C   UNL     1       6.244   5.240  18.443  0.00  0.00    +0.000 C 
BRANCH  22  23
ATOM     23  C   UNL     1       7.024   6.532  18.271  0.00  0.00    +0.000 A 
ATOM     24  C   UNL     1       8.191   6.809  19.003  0.00  0.00    +0.000 A 
ATOM     25  C   UNL     1       8.811   8.054  18.925  0.00  0.00    +0.000 A 
ATOM     26  C   UNL     1       8.297   9.034  18.082  0.00  0.00    +0.000 A 
ATOM     27  C   UNL     1       7.181   8.752  17.297  0.00  0.00    +0.000 A 
ATOM     28  C   UNL     1       6.546   7.516  17.391  0.00  0.00    +0.000 A 
ENDBRANCH  22  23
ENDBRANCH  12  22
ENDBRANCH   1  13
BRANCH   3  29
ATOM     29  C   UNL     1       1.532   8.098  18.021  0.00  0.00    +0.000 C 
BRANCH  29  30
ATOM     30  C   UNL     1       1.449   9.521  18.488  0.00  0.00    +0.000 A 
ATOM     31  C   UNL     1       2.348  10.469  17.972  0.00  0.00    +0.000 A 
ATOM     32  C   UNL     1       2.150  11.827  18.205  0.00  0.00    +0.000 A 
ATOM     33  C   UNL     1       1.066  12.246  18.973  0.00  0.00    +0.000 A 
ATOM     34  C   UNL     1       0.210  11.306  19.547  0.00  0.00    +0.000 A 
ATOM     35  C   UNL     1       0.401   9.947  19.310  0.00  0.00    +0.000 A 
ENDBRANCH  29  30
ENDBRANCH   3  29
TORSDOF 8
ENDMDL
MODEL 2
REMARK VINA RESULT:      -7.7      0.929      1.452
REMARK  Name = 
REMARK  8 active torsions:
REMARK  status: ('A' for Active; 'I' for Inactive)
REMARK    1  A    between atoms: C_2  and  C_4
REMARK    2  A    between atoms: C_4  and  C_5
REMARK    3  A    between atoms: C_5  and  N_6
REMARK    4  A    between atoms: N_6  and  C_7
REMARK    5  A    between atoms: C_7  and  C_8
REMARK    6  A    between atoms: C_14  and  C_16
REMARK    7  A    between atoms: N_18  and  C_19
REMARK    8  A    between atoms: C_19  and  C_20
REMARK                            x       y       z     vdW  Elec       q    Type
REMARK                         _______ _______ _______ _____ _____    ______ ____
ROOT
ATOM      1  C   UNL     1       3.183   5.104  17.710  0.00  0.00    +0.000 A 
ATOM      2  N   UNL     1       3.205   6.384  17.516  0.00  0.00    +0.000 NA
ATOM      3  N   UNL     1       2.539   7.169  18.427  0.00  0.00    +0.000 N 
ATOM      4  C   UNL     1       2.361   6.756  19.760  0.00  0.00    +0.000 A 
ATOM      5  O   UNL     1       2.054   7.508  20.681  0.00  0.00    +0.000 OA
ATOM      6  C   UNL     1       2.285   5.287  19.944  0.00  0.00    +0.000 A 
ATOM      7  C   UNL     1       1.774   4.739  21.128  0.00  0.00    +0.000 A 
ATOM      8  C   UNL     1       1.242   3.448  21.106  0.00  0.00    +0.000 A 
ATOM      9  C   UNL     1       1.175   2.745  19.902  0.00  0.00    +0.000 A 
ATOM     10  C   UNL     1       1.787   3.256  18.754  0.00  0.00    +0.000 A 
ATOM     11  C   UNL     1       2.416   4.500  18.809  0.00  0.00    +0.000 A 
ENDROOT
BRANCH   1  13
ATOM     12  N   UNL     1       5.158   4.835  16.175  0.00  0.00    +0.000 N 
ATOM     13  C   UNL     1       4.037   4.251  16.789  0.00  0.00    +0.000 C 
ATOM     14  O   UNL     1       3.730   3.069  16.677  0.00  0.00    +0.000 OA
BRANCH  12  15
ATOM     15  C   UNL     1       6.025   3.966  15.374  0.00  0.00    +0.000 C 
BRANCH  15  16
ATOM     16  C   UNL     1       5.732   4.121  13.888  0.00  0.00    +0.000 C 
BRANCH  16  18
ATOM     17  N   UNL     1       7.770   5.379  13.760  0.00  0.00    +0.000 N 
ATOM     18  C   UNL     1       6.956   4.512  13.102  0.00  0.00    +0.000 C 
ATOM     19  O   UNL     1       7.235   4.122  11.976  0.00  0.00    +0.000 OA
ATOM     20  H   UNL     1       8.620   5.684  13.309  0.00  0.00    +0.000 HD
ATOM     21  H   UNL     1       7.553   5.765  14.687  0.00  0.00    +0.000 HD
ENDBRANCH  16  18
ENDBRANCH  15  16
ENDBRANCH  12  15
BRANCH  12  22
ATOM     22  C   UNL     1       5.502   6.270  16.231  0.00  0.00    +0.000 C 
BRANCH  22  23
ATOM     23  C   UNL     1       6.622   6.644  17.185  0.00  0.00    +0.000 A 
ATOM     24  C   UNL     1       7.074   5.773  18.193  0.00  0.00    +0.000 A 
ATOM     25  C   UNL     1       8.008   6.190  19.137  0.00  0.00    +0.000 A 
ATOM     26  C   UNL     1       8.539   7.474  19.070  0.00  0.00    +0.000 A 
ATOM     27  C   UNL     1       8.154   8.326  18.038  0.00  0.00    +0.000 A 
ATOM     28  C   UNL     1       7.203   7.919  17.105  0.00  0.00    +0.000 A 
ENDBRANCH  22  23
ENDBRANCH  12  22
ENDBRANCH   1  13
BRANCH   3  29
ATOM     29  C   UNL     1       1.411   7.857  17.816  0.00  0.00    +0.000 C 
BRANCH  29  30
ATOM     30  C   UNL     1       1.299   9.320  18.129  0.00  0.00    +0.000 A 
ATOM     31  C   UNL     1       0.237   9.775  18.926  0.00  0.00    +0.000 A 
ATOM     32  C   UNL     1       0.234  11.075  19.422  0.00  0.00    +0.000 A 
ATOM     33  C   UNL     1       1.282  11.937  19.107  0.00  0.00    +0.000 A 
ATOM     34  C   UNL     1       2.305  11.514  18.259  0.00  0.00    +0.000 A 
ATOM     35  C   UNL     1       2.314  10.211  17.766  0.00  0.00    +0.000 A 
ENDBRANCH  29  30
ENDBRANCH   3  29
TORSDOF 8
ENDMDL
MODEL 3
REMARK VINA RESULT:      -7.7      1.838      3.271
REMARK  Name = 
REMARK  8 active torsions:
REMARK  status: ('A' for Active; 'I' for Inactive)
REMARK    1  A    between atoms: C_2  and  C_4
REMARK    2  A    between atoms: C_4  and  C_5
REMARK    3  A    between atoms: C_5  and  N_6
REMARK    4  A    between atoms: N_6  and  C_7
REMARK    5  A    between atoms: C_7  and  C_8
REMARK    6  A    between atoms: C_14  and  C_16
REMARK    7  A    between atoms: N_18  and  C_19
REMARK    8  A    between atoms: C_19  and  C_20
REMARK                            x       y       z     vdW  Elec       q    Type
REMARK                         _______ _______ _______ _____ _____    ______ ____
ROOT
ATOM      1  C   UNL     1       3.126   7.103  18.012  0.00  0.00    +0.000 A 
ATOM      2  N   UNL     1       2.980   8.304  18.470  0.00  0.00    +0.000 NA
ATOM      3  N   UNL     1       2.064   8.485  19.480  0.00  0.00    +0.000 N 
ATOM      4  C   UNL     1       1.743   7.446  20.374  0.00  0.00    +0.000 A 
ATOM      5  O   UNL     1       1.182   7.612  21.452  0.00  0.00    +0.000 OA
ATOM      6  C   UNL     1       1.869   6.083  19.803  0.00  0.00    +0.000 A 
ATOM      7  C   UNL     1       1.268   4.985  20.433  0.00  0.00    +0.000 A 
ATOM      8  C   UNL     1       0.952   3.855  19.677  0.00  0.00    +0.000 A 
ATOM      9  C   UNL     1       1.188   3.853  18.301  0.00  0.00    +0.000 A 
ATOM     10  C   UNL     1       1.887   4.906  17.705  0.00  0.00    +0.000 A 
ATOM     11  C   UNL     1       2.299   5.985  18.487  0.00  0.00    +0.000 A 
ENDROOT
BRANCH   1  13
ATOM     12  N   UNL     1       5.275   5.989  17.326  0.00  0.00    +0.000 N 
ATOM     13  C   UNL     1       4.238   6.879  17.001  0.00  0.00    +0.000 C 
ATOM     14  O   UNL     1       4.135   7.452  15.922  0.00  0.00    +0.000 OA
BRANCH  12  15
ATOM     15  C   UNL     1       6.280   5.711  16.295  0.00  0.00    +0.000 C 
BRANCH  15  16
ATOM     16  C   UNL     1       5.692   4.869  15.171  0.00  0.00    +0.000 C 
BRANCH  16  18
ATOM     17  N   UNL     1       6.393   3.511  13.323  0.00  0.00    +0.000 N 
ATOM     18  C   UNL     1       6.689   4.604  14.073  0.00  0.00    +0.000 C 
ATOM     19  O   UNL     1       7.687   5.273  13.841  0.00  0.00    +0.000 OA
ATOM     20  H   UNL     1       7.004   3.267  12.557  0.00  0.00    +0.000 HD
ATOM     21  H   UNL     1       5.591   2.897  13.510  0.00  0.00    +0.000 HD
ENDBRANCH  16  18
ENDBRANCH  15  16
ENDBRANCH  12  15
BRANCH  12  22
ATOM     22  C   UNL     1       5.463   5.351  18.643  0.00  0.00    +0.000 C 
BRANCH  22  23
ATOM     23  C   UNL     1       4.935   3.933  18.772  0.00  0.00    +0.000 A 
ATOM     24  C   UNL     1       4.639   3.136  17.652  0.00  0.00    +0.000 A 
ATOM     25  C   UNL     1       4.032   1.891  17.795  0.00  0.00    +0.000 A 
ATOM     26  C   UNL     1       3.744   1.401  19.064  0.00  0.00    +0.000 A 
ATOM     27  C   UNL     1       4.093   2.147  20.187  0.00  0.00    +0.000 A 
ATOM     28  C   UNL     1       4.680   3.402  20.046  0.00  0.00    +0.000 A 
ENDBRANCH  22  23
ENDBRANCH  12  22
ENDBRANCH   1  13
BRANCH   3  29
ATOM     29  C   UNL     1       0.954   9.323  19.051  0.00  0.00    +0.000 C 
BRANCH  29  30
ATOM     30  C   UNL     1       1.148  10.799  19.242  0.00  0.00    +0.000 A 
ATOM     31  C   UNL     1       0.762  11.393  20.454  0.00  0.00    +0.000 A 
ATOM     32  C   UNL     1       1.137  12.701  20.750  0.00  0.00    +0.000 A 
ATOM     33  C   UNL     1       1.881  13.431  19.826  0.00  0.00    +0.000 A 
ATOM     34  C   UNL     1       2.208  12.871  18.591  0.00  0.00    +0.000 A 
ATOM     35  C   UNL     1       1.840  11.560  18.296  0.00  0.00    +0.000 A 
ENDBRANCH  29  30
ENDBRANCH   3  29
TORSDOF 8
ENDMDL
MODEL 4
REMARK VINA RESULT:      -7.7      2.887      5.814
REMARK  Name = 
REMARK  8 active torsions:
REMARK  status: ('A' for Active; 'I' for Inactive)
REMARK    1  A    between atoms: C_2  and  C_4
REMARK    2  A    between atoms: C_4  and  C_5
REMARK    3  A    between atoms: C_5  and  N_6
REMARK    4  A    between atoms: N_6  and  C_7
REMARK    5  A    between atoms: C_7  and  C_8
REMARK    6  A    between atoms: C_14  and  C_16
REMARK    7  A    between atoms: N_18  and  C_19
REMARK    8  A    between atoms: C_19  and  C_20
REMARK                            x       y       z     vdW  Elec       q    Type
REMARK                         _______ _______ _______ _____ _____    ______ ____
ROOT
ATOM      1  C   UNL     1       5.286   4.844  18.570  0.00  0.00    +0.000 A 
ATOM      2  N   UNL     1       5.417   3.636  18.123  0.00  0.00    +0.000 NA
ATOM      3  N   UNL     1       4.277   2.997  17.696  0.00  0.00    +0.000 N 
ATOM      4  C   UNL     1       3.176   3.717  17.197  0.00  0.00    +0.000 A 
ATOM      5  O   UNL     1       2.269   3.222  16.534  0.00  0.00    +0.000 OA
ATOM      6  C   UNL     1       3.021   5.078  17.768  0.00  0.00    +0.000 A 
ATOM      7  C   UNL     1       1.811   5.773  17.642  0.00  0.00    +0.000 A 
ATOM      8  C   UNL     1       1.500   6.770  18.568  0.00  0.00    +0.000 A 
ATOM      9  C   UNL     1       2.367   7.024  19.633  0.00  0.00    +0.000 A 
ATOM     10  C   UNL     1       3.619   6.403  19.684  0.00  0.00    +0.000 A 
ATOM     11  C   UNL     1       3.971   5.487  18.693  0.00  0.00    +0.000 A 
ENDROOT
BRANCH   1  13
ATOM     12  N   UNL     1       6.934   6.686  18.096  0.00  0.00    +0.000 N 
ATOM     13  C   UNL     1       6.561   5.599  18.905  0.00  0.00    +0.000 C 
ATOM     14  O   UNL     1       7.171   5.248  19.910  0.00  0.00    +0.000 OA
BRANCH  12  15
ATOM     15  C   UNL     1       8.110   7.461  18.500  0.00  0.00    +0.000 C 
BRANCH  15  16
ATOM     16  C   UNL     1       8.180   8.782  17.746  0.00  0.00    +0.000 C 
BRANCH  16  18
ATOM     17  N   UNL     1       9.104   9.555  19.820  0.00  0.00    +0.000 N 
ATOM     18  C   UNL     1       8.963   9.828  18.496  0.00  0.00    +0.000 C 
ATOM     19  O   UNL     1       9.440  10.845  18.011  0.00  0.00    +0.000 OA
ATOM     20  H   UNL     1       9.626  10.200  20.395  0.00  0.00    +0.000 HD
ATOM     21  H   UNL     1       8.683   8.737  20.276  0.00  0.00    +0.000 HD
ENDBRANCH  16  18
ENDBRANCH  15  16
ENDBRANCH  12  15
BRANCH  12  22
ATOM     22  C   UNL     1       6.263   7.076  16.840  0.00  0.00    +0.000 C 
BRANCH  22  23
ATOM     23  C   UNL     1       6.232   6.017  15.752  0.00  0.00    +0.000 A 
ATOM     24  C   UNL     1       5.064   5.717  15.029  0.00  0.00    +0.000 A 
ATOM     25  C   UNL     1       5.028   4.653  14.131  0.00  0.00    +0.000 A 
ATOM     26  C   UNL     1       6.171   3.892  13.909  0.00  0.00    +0.000 A 
ATOM     27  C   UNL     1       7.355   4.219  14.566  0.00  0.00    +0.000 A 
ATOM     28  C   UNL     1       7.388   5.268  15.481  0.00  0.00    +0.000 A 
ENDBRANCH  22  23
ENDBRANCH  12  22
ENDBRANCH   1  13
BRANCH   3  29
ATOM     29  C   UNL     1       3.963   1.848  18.532  0.00  0.00    +0.000 C 
BRANCH  29  30
ATOM     30  C   UNL     1       2.959   2.095  19.619  0.00  0.00    +0.000 A 
ATOM     31  C   UNL     1       3.400   2.518  20.883  0.00  0.00    +0.000 A 
ATOM     32  C   UNL     1       2.490   2.974  21.831  0.00  0.00    +0.000 A 
ATOM     33  C   UNL     1       1.129   2.990  21.532  0.00  0.00    +0.000 A 
ATOM     34  C   UNL     1       0.677   2.506  20.305  0.00  0.00    +0.000 A 
ATOM     35  C   UNL     1       1.587   2.055  19.350  0.00  0.00    +0.000 A 
ENDBRANCH  29  30
ENDBRANCH   3  29
TORSDOF 8
ENDMDL
MODEL 5
REMARK VINA RESULT:      -7.7      2.899      5.804
REMARK  Name = 
REMARK  8 active torsions:
REMARK  status: ('A' for Active; 'I' for Inactive)
REMARK    1  A    between atoms: C_2  and  C_4
REMARK    2  A    between atoms: C_4  and  C_5
REMARK    3  A    between atoms: C_5  and  N_6
REMARK    4  A    between atoms: N_6  and  C_7
REMARK    5  A    between atoms: C_7  and  C_8
REMARK    6  A    between atoms: C_14  and  C_16
REMARK    7  A    between atoms: N_18  and  C_19
REMARK    8  A    between atoms: C_19  and  C_20
REMARK                            x       y       z     vdW  Elec       q    Type
REMARK                         _______ _______ _______ _____ _____    ______ ____
ROOT
ATOM      1  C   UNL     1       5.354   4.826  18.620  0.00  0.00    +0.000 A 
ATOM      2  N   UNL     1       5.497   3.605  18.216  0.00  0.00    +0.000 NA
ATOM      3  N   UNL     1       4.365   2.947  17.791  0.00  0.00    +0.000 N 
ATOM      4  C   UNL     1       3.270   3.646  17.252  0.00  0.00    +0.000 A 
ATOM      5  O   UNL     1       2.376   3.124  16.591  0.00  0.00    +0.000 OA
ATOM      6  C   UNL     1       3.102   5.023  17.774  0.00  0.00    +0.000 A 
ATOM      7  C   UNL     1       1.891   5.709  17.606  0.00  0.00    +0.000 A 
ATOM      8  C   UNL     1       1.561   6.735  18.494  0.00  0.00    +0.000 A 
ATOM      9  C   UNL     1       2.410   7.027  19.564  0.00  0.00    +0.000 A 
ATOM     10  C   UNL     1       3.663   6.414  19.655  0.00  0.00    +0.000 A 
ATOM     11  C   UNL     1       4.034   5.467  18.700  0.00  0.00    +0.000 A 
ENDROOT
BRANCH   1  13
ATOM     12  N   UNL     1       7.006   6.654  18.109  0.00  0.00    +0.000 N 
ATOM     13  C   UNL     1       6.621   5.596  18.950  0.00  0.00    +0.000 C 
ATOM     14  O   UNL     1       7.212   5.285  19.979  0.00  0.00    +0.000 OA
BRANCH  12  15
ATOM     15  C   UNL     1       8.172   7.447  18.505  0.00  0.00    +0.000 C 
BRANCH  15  16
ATOM     16  C   UNL     1       8.196   8.785  17.779  0.00  0.00    +0.000 C 
BRANCH  16  18
ATOM     17  N   UNL     1       8.935  11.061  17.950  0.00  0.00    +0.000 N 
ATOM     18  C   UNL     1       8.853   9.868  18.596  0.00  0.00    +0.000 C 
ATOM     19  O   UNL     1       9.292   9.737  19.730  0.00  0.00    +0.000 OA
ATOM     20  H   UNL     1       9.352  11.845  18.431  0.00  0.00    +0.000 HD
ATOM     21  H   UNL     1       8.620  11.203  16.983  0.00  0.00    +0.000 HD
ENDBRANCH  16  18
ENDBRANCH  15  16
ENDBRANCH  12  15
BRANCH  12  22
ATOM     22  C   UNL     1       6.357   6.995  16.827  0.00  0.00    +0.000 C 
BRANCH  22  23
ATOM     23  C   UNL     1       6.305   5.881  15.796  0.00  0.00    +0.000 A 
ATOM     24  C   UNL     1       7.436   5.117  15.457  0.00  0.00    +0.000 A 
ATOM     25  C   UNL     1       7.393   4.194  14.415  0.00  0.00    +0.000 A 
ATOM     26  C   UNL     1       6.208   3.988  13.717  0.00  0.00    +0.000 A 
ATOM     27  C   UNL     1       5.061   4.687  14.085  0.00  0.00    +0.000 A 
ATOM     28  C   UNL     1       5.107   5.627  15.112  0.00  0.00    +0.000 A 
ENDBRANCH  22  23
ENDBRANCH  12  22
ENDBRANCH   1  13
BRANCH   3  29
ATOM     29  C   UNL     1       4.043   1.825  18.660  0.00  0.00    +0.000 C 
BRANCH  29  30
ATOM     30  C   UNL     1       3.001   2.096  19.706  0.00  0.00    +0.000 A 
ATOM     31  C   UNL     1       3.397   2.576  20.964  0.00  0.00    +0.000 A 
ATOM     32  C   UNL     1       2.450   3.053  21.866  0.00  0.00    +0.000 A 
ATOM     33  C   UNL     1       1.100   3.033  21.526  0.00  0.00    +0.000 A 
ATOM     34  C   UNL     1       0.693   2.492  20.306  0.00  0.00    +0.000 A 
ATOM     35  C   UNL     1       1.639   2.020  19.398  0.00  0.00    +0.000 A 
ENDBRANCH  29  30
ENDBRANCH   3  29
TORSDOF 8
ENDMDL
MODEL 6
REMARK VINA RESULT:      -7.6      6.471      9.743
REMARK  Name = 
REMARK  8 active torsions:
REMARK  status: ('A' for Active; 'I' for Inactive)
REMARK    1  A    between atoms: C_2  and  C_4
REMARK    2  A    between atoms: C_4  and  C_5
REMARK    3  A    between atoms: C_5  and  N_6
REMARK    4  A    between atoms: N_6  and  C_7
REMARK    5  A    between atoms: C_7  and  C_8
REMARK    6  A    between atoms: C_14  and  C_16
REMARK    7  A    between atoms: N_18  and  C_19
REMARK    8  A    between atoms: C_19  and  C_20
REMARK                            x       y       z     vdW  Elec       q    Type
REMARK                         _______ _______ _______ _____ _____    ______ ____
ROOT
ATOM      1  C   UNL     1      -3.260  13.044  20.686  0.00  0.00    +0.000 A 
ATOM      2  N   UNL     1      -3.795  12.778  19.538  0.00  0.00    +0.000 NA
ATOM      3  N   UNL     1      -5.098  12.337  19.539  0.00  0.00    +0.000 N 
ATOM      4  C   UNL     1      -5.994  12.699  20.561  0.00  0.00    +0.000 A 
ATOM      5  O   UNL     1      -7.215  12.600  20.476  0.00  0.00    +0.000 OA
ATOM      6  C   UNL     1      -5.358  12.946  21.878  0.00  0.00    +0.000 A 
ATOM      7  C   UNL     1      -6.126  12.972  23.050  0.00  0.00    +0.000 A 
ATOM      8  C   UNL     1      -5.511  12.696  24.272  0.00  0.00    +0.000 A 
ATOM      9  C   UNL     1      -4.160  12.345  24.306  0.00  0.00    +0.000 A 
ATOM     10  C   UNL     1      -3.382  12.431  23.148  0.00  0.00    +0.000 A 
ATOM     11  C   UNL     1      -3.978  12.815  21.948  0.00  0.00    +0.000 A 
ENDROOT
BRANCH   1  13
ATOM     12  N   UNL     1      -0.816  12.945  20.099  0.00  0.00    +0.000 N 
ATOM     13  C   UNL     1      -1.875  13.667  20.675  0.00  0.00    +0.000 C 
ATOM     14  O   UNL     1      -1.769  14.804  21.122  0.00  0.00    +0.000 OA
BRANCH  12  15
ATOM     15  C   UNL     1       0.488  13.608  20.007  0.00  0.00    +0.000 C 
BRANCH  15  16
ATOM     16  C   UNL     1       0.870  13.864  18.556  0.00  0.00    +0.000 C 
BRANCH  16  18
ATOM     17  N   UNL     1       3.124  14.064  17.761  0.00  0.00    +0.000 N 
ATOM     18  C   UNL     1       2.167  13.195  18.180  0.00  0.00    +0.000 C 
ATOM     19  O   UNL     1       2.387  11.993  18.222  0.00  0.00    +0.000 OA
ATOM     20  H   UNL     1       4.029  13.701  17.500  0.00  0.00    +0.000 HD
ATOM     21  H   UNL     1       2.969  15.075  17.668  0.00  0.00    +0.000 HD
ENDBRANCH  16  18
ENDBRANCH  15  16
ENDBRANCH  12  15
BRANCH  12  22
ATOM     22  C   UNL     1      -0.900  11.549  19.628  0.00  0.00    +0.000 C 
BRANCH  22  23
ATOM     23  C   UNL     1      -0.285  10.504  20.543  0.00  0.00    +0.000 A 
ATOM     24  C   UNL     1      -0.518  10.488  21.929  0.00  0.00    +0.000 A 
ATOM     25  C   UNL     1       0.163   9.603  22.762  0.00  0.00    +0.000 A 
ATOM     26  C   UNL     1       1.062   8.691  22.220  0.00  0.00    +0.000 A 
ATOM     27  C   UNL     1       1.253   8.647  20.840  0.00  0.00    +0.000 A 
ATOM     28  C   UNL     1       0.590   9.546  20.008  0.00  0.00    +0.000 A 
ENDBRANCH  22  23
ENDBRANCH  12  22
ENDBRANCH   1  13
BRANCH   3  29
ATOM     29  C   UNL     1      -5.198  10.967  19.056  0.00  0.00    +0.000 C 
BRANCH  29  30
ATOM     30  C   UNL     1      -4.394  10.654  17.829  0.00  0.00    +0.000 A 
ATOM     31  C   UNL     1      -4.630  11.376  16.648  0.00  0.00    +0.000 A 
ATOM     32  C   UNL     1      -3.754  11.272  15.571  0.00  0.00    +0.000 A 
ATOM     33  C   UNL     1      -2.648  10.430  15.660  0.00  0.00    +0.000 A 
ATOM     34  C   UNL     1      -2.446   9.657  16.803  0.00  0.00    +0.000 A 
ATOM     35  C   UNL     1      -3.317   9.764  17.885  0.00  0.00    +0.000 A 
ENDBRANCH  29  30
ENDBRANCH   3  29
TORSDOF 8
ENDMDL
MODEL 7
REMARK VINA RESULT:      -7.6      0.818      1.499
REMARK  Name = 
REMARK  8 active torsions:
REMARK  status: ('A' for Active; 'I' for Inactive)
REMARK    1  A    between atoms: C_2  and  C_4
REMARK    2  A    between atoms: C_4  and  C_5
REMARK    3  A    between atoms: C_5  and  N_6
REMARK    4  A    between atoms: N_6  and  C_7
REMARK    5  A    between atoms: C_7  and  C_8
REMARK    6  A    between atoms: C_14  and  C_16
REMARK    7  A    between atoms: N_18  and  C_19
REMARK    8  A    between atoms: C_19  and  C_20
REMARK                            x       y       z     vdW  Elec       q    Type
REMARK                         _______ _______ _______ _____ _____    ______ ____
ROOT
ATOM      1  C   UNL     1       3.288   5.198  17.724  0.00  0.00    +0.000 A 
ATOM      2  N   UNL     1       3.308   6.474  17.509  0.00  0.00    +0.000 NA
ATOM      3  N   UNL     1       2.570   7.266  18.357  0.00  0.00    +0.000 N 
ATOM      4  C   UNL     1       2.306   6.874  19.682  0.00  0.00    +0.000 A 
ATOM      5  O   UNL     1       1.926   7.638  20.565  0.00  0.00    +0.000 OA
ATOM      6  C   UNL     1       2.236   5.407  19.887  0.00  0.00    +0.000 A 
ATOM      7  C   UNL     1       1.651   4.873  21.044  0.00  0.00    +0.000 A 
ATOM      8  C   UNL     1       1.138   3.575  21.009  0.00  0.00    +0.000 A 
ATOM      9  C   UNL     1       1.164   2.850  19.817  0.00  0.00    +0.000 A 
ATOM     10  C   UNL     1       1.848   3.349  18.705  0.00  0.00    +0.000 A 
ATOM     11  C   UNL     1       2.455   4.602  18.779  0.00  0.00    +0.000 A 
ENDROOT
BRANCH   1  13
ATOM     12  N   UNL     1       5.314   4.951  16.253  0.00  0.00    +0.000 N 
ATOM     13  C   UNL     1       4.215   4.340  16.880  0.00  0.00    +0.000 C 
ATOM     14  O   UNL     1       3.982   3.137  16.841  0.00  0.00    +0.000 OA
BRANCH  12  15
ATOM     15  C   UNL     1       6.251   4.087  15.531  0.00  0.00    +0.000 C 
BRANCH  15  16
ATOM     16  C   UNL     1       6.000   4.140  14.030  0.00  0.00    +0.000 C 
BRANCH  16  18
ATOM     17  N   UNL     1       7.257   4.295  11.993  0.00  0.00    +0.000 N 
ATOM     18  C   UNL     1       7.162   4.733  13.276  0.00  0.00    +0.000 C 
ATOM     19  O   UNL     1       7.974   5.528  13.729  0.00  0.00    +0.000 OA
ATOM     20  H   UNL     1       8.001   4.652  11.412  0.00  0.00    +0.000 HD
ATOM     21  H   UNL     1       6.624   3.596  11.586  0.00  0.00    +0.000 HD
ENDBRANCH  16  18
ENDBRANCH  15  16
ENDBRANCH  12  15
BRANCH  12  22
ATOM     22  C   UNL     1       5.570   6.404  16.221  0.00  0.00    +0.000 C 
BRANCH  22  23
ATOM     23  C   UNL     1       6.589   6.918  17.223  0.00  0.00    +0.000 A 
ATOM     24  C   UNL     1       7.111   8.222  17.163  0.00  0.00    +0.000 A 
ATOM     25  C   UNL     1       8.140   8.624  18.011  0.00  0.00    +0.000 A 
ATOM     26  C   UNL     1       8.641   7.742  18.962  0.00  0.00    +0.000 A 
ATOM     27  C   UNL     1       8.089   6.469  19.080  0.00  0.00    +0.000 A 
ATOM     28  C   UNL     1       7.075   6.057  18.219  0.00  0.00    +0.000 A 
ENDBRANCH  22  23
ENDBRANCH  12  22
ENDBRANCH   1  13
BRANCH   3  29
ATOM     29  C   UNL     1       1.479   7.927  17.656  0.00  0.00    +0.000 C 
BRANCH  29  30
ATOM     30  C   UNL     1       1.310   9.388  17.953  0.00  0.00    +0.000 A 
ATOM     31  C   UNL     1       0.100   9.846  18.497  0.00  0.00    +0.000 A 
ATOM     32  C   UNL     1      -0.004  11.141  18.995  0.00  0.00    +0.000 A 
ATOM     33  C   UNL     1       1.094  11.995  18.933  0.00  0.00    +0.000 A 
ATOM     34  C   UNL     1       2.278  11.571  18.330  0.00  0.00    +0.000 A 
ATOM     35  C   UNL     1       2.387  10.272  17.837  0.00  0.00    +0.000 A 
ENDBRANCH  29  30
ENDBRANCH   3  29
TORSDOF 8
ENDMDL
MODEL 8
REMARK VINA RESULT:      -7.6      1.868      3.247
REMARK  Name = 
REMARK  8 active torsions:
REMARK  status: ('A' for Active; 'I' for Inactive)
REMARK    1  A    between atoms: C_2  and  C_4
REMARK    2  A    between atoms: C_4  and  C_5
REMARK    3  A    between atoms: C_5  and  N_6
REMARK    4  A    between atoms: N_6  and  C_7
REMARK    5  A    between atoms: C_7  and  C_8
REMARK    6  A    between atoms: C_14  and  C_16
REMARK    7  A    between atoms: N_18  and  C_19
REMARK    8  A    between atoms: C_19  and  C_20
REMARK                            x       y       z     vdW  Elec       q    Type
REMARK                         _______ _______ _______ _____ _____    ______ ____
ROOT
ATOM      1  C   UNL     1       3.024   7.095  18.140  0.00  0.00    +0.000 A 
ATOM      2  N   UNL     1       2.856   8.273  18.652  0.00  0.00    +0.000 NA
ATOM      3  N   UNL     1       1.942   8.389  19.673  0.00  0.00    +0.000 N 
ATOM      4  C   UNL     1       1.649   7.306  20.522  0.00  0.00    +0.000 A 
ATOM      5  O   UNL     1       1.090   7.413  21.610  0.00  0.00    +0.000 OA
ATOM      6  C   UNL     1       1.799   5.973  19.891  0.00  0.00    +0.000 A 
ATOM      7  C   UNL     1       1.224   4.836  20.476  0.00  0.00    +0.000 A 
ATOM      8  C   UNL     1       0.928   3.733  19.673  0.00  0.00    +0.000 A 
ATOM      9  C   UNL     1       1.154   3.796  18.296  0.00  0.00    +0.000 A 
ATOM     10  C   UNL     1       1.829   4.889  17.744  0.00  0.00    +0.000 A 
ATOM     11  C   UNL     1       2.222   5.942  18.571  0.00  0.00    +0.000 A 
ENDROOT
BRANCH   1  13
ATOM     12  N   UNL     1       5.200   6.071  17.402  0.00  0.00    +0.000 N 
ATOM     13  C   UNL     1       4.134   6.940  17.115  0.00  0.00    +0.000 C 
ATOM     14  O   UNL     1       4.005   7.544  16.056  0.00  0.00    +0.000 OA
BRANCH  12  15
ATOM     15  C   UNL     1       6.204   5.859  16.356  0.00  0.00    +0.000 C 
BRANCH  15  16
ATOM     16  C   UNL     1       5.618   5.085  15.184  0.00  0.00    +0.000 C 
BRANCH  16  18
ATOM     17  N   UNL     1       6.387   3.509  13.547  0.00  0.00    +0.000 N 
ATOM     18  C   UNL     1       6.669   4.676  14.184  0.00  0.00    +0.000 C 
ATOM     19  O   UNL     1       7.695   5.293  13.938  0.00  0.00    +0.000 OA
ATOM     20  H   UNL     1       7.034   3.167  12.852  0.00  0.00    +0.000 HD
ATOM     21  H   UNL     1       5.559   2.937  13.755  0.00  0.00    +0.000 HD
ENDBRANCH  16  18
ENDBRANCH  15  16
ENDBRANCH  12  15
BRANCH  12  22
ATOM     22  C   UNL     1       5.418   5.396  18.697  0.00  0.00    +0.000 C 
BRANCH  22  23
ATOM     23  C   UNL     1       4.918   3.965  18.788  0.00  0.00    +0.000 A 
ATOM     24  C   UNL     1       4.642   3.192  17.647  0.00  0.00    +0.000 A 
ATOM     25  C   UNL     1       4.060   1.931  17.756  0.00  0.00    +0.000 A 
ATOM     26  C   UNL     1       3.778   1.403  19.011  0.00  0.00    +0.000 A 
ATOM     27  C   UNL     1       4.109   2.127  20.154  0.00  0.00    +0.000 A 
ATOM     28  C   UNL     1       4.670   3.397  20.047  0.00  0.00    +0.000 A 
ENDBRANCH  22  23
ENDBRANCH  12  22
ENDBRANCH   1  13
BRANCH   3  29
ATOM     29  C   UNL     1       0.813   9.223  19.287  0.00  0.00    +0.000 C 
BRANCH  29  30
ATOM     30  C   UNL     1       0.716  10.545  19.990  0.00  0.00    +0.000 A 
ATOM     31  C   UNL     1       1.248  11.691  19.379  0.00  0.00    +0.000 A 
ATOM     32  C   UNL     1       0.971  12.956  19.891  0.00  0.00    +0.000 A 
ATOM     33  C   UNL     1       0.179  13.082  21.030  0.00  0.00    +0.000 A 
ATOM     34  C   UNL     1      -0.295  11.944  21.683  0.00  0.00    +0.000 A 
ATOM     35  C   UNL     1      -0.026  10.677  21.168  0.00  0.00    +0.000 A 
ENDBRANCH  29  30
ENDBRANCH   3  29
TORSDOF 8
ENDMDL
MODEL 9
REMARK VINA RESULT:      -7.6      1.799      3.082
REMARK  Name = 
REMARK  8 active torsions:
REMARK  status: ('A' for Active; 'I' for Inactive)
REMARK    1  A    between atoms: C_2  and  C_4
REMARK    2  A    between atoms: C_4  and  C_5
REMARK    3  A    between atoms: C_5  and  N_6
REMARK    4  A    between atoms: N_6  and  C_7
REMARK    5  A    between atoms: C_7  and  C_8
REMARK    6  A    between atoms: C_14  and  C_16
REMARK    7  A    between atoms: N_18  and  C_19
REMARK    8  A    between atoms: C_19  and  C_20
REMARK                            x       y       z     vdW  Elec       q    Type
REMARK                         _______ _______ _______ _____ _____    ______ ____
ROOT
ATOM      1  C   UNL     1       3.408   6.873  17.733  0.00  0.00    +0.000 A 
ATOM      2  N   UNL     1       3.309   8.120  18.065  0.00  0.00    +0.000 NA
ATOM      3  N   UNL     1       2.362   8.446  19.008  0.00  0.00    +0.000 N 
ATOM      4  C   UNL     1       1.946   7.519  19.981  0.00  0.00    +0.000 A 
ATOM      5  O   UNL     1       1.349   7.819  21.011  0.00  0.00    +0.000 OA
ATOM      6  C   UNL     1       2.020   6.101  19.551  0.00  0.00    +0.000 A 
ATOM      7  C   UNL     1       1.333   5.103  20.256  0.00  0.00    +0.000 A 
ATOM      8  C   UNL     1       0.988   3.921  19.598  0.00  0.00    +0.000 A 
ATOM      9  C   UNL     1       1.281   3.770  18.241  0.00  0.00    +0.000 A 
ATOM     10  C   UNL     1       2.063   4.723  17.581  0.00  0.00    +0.000 A 
ATOM     11  C   UNL     1       2.500   5.852  18.274  0.00  0.00    +0.000 A 
ENDROOT
BRANCH   1  13
ATOM     12  N   UNL     1       5.518   5.587  17.261  0.00  0.00    +0.000 N 
ATOM     13  C   UNL     1       4.547   6.494  16.803  0.00  0.00    +0.000 C 
ATOM     14  O   UNL     1       4.524   6.962  15.670  0.00  0.00    +0.000 OA
BRANCH  12  15
ATOM     15  C   UNL     1       6.548   5.157  16.311  0.00  0.00    +0.000 C 
BRANCH  15  16
ATOM     16  C   UNL     1       5.976   4.195  15.280  0.00  0.00    +0.000 C 
BRANCH  16  18
ATOM     17  N   UNL     1       6.286   3.377  13.047  0.00  0.00    +0.000 N 
ATOM     18  C   UNL     1       6.617   4.359  13.926  0.00  0.00    +0.000 C 
ATOM     19  O   UNL     1       7.372   5.264  13.601  0.00  0.00    +0.000 OA
ATOM     20  H   UNL     1       6.663   3.416  12.111  0.00  0.00    +0.000 HD
ATOM     21  H   UNL     1       5.691   2.576  13.291  0.00  0.00    +0.000 HD
ENDBRANCH  16  18
ENDBRANCH  15  16
ENDBRANCH  12  15
BRANCH  12  22
ATOM     22  C   UNL     1       5.612   5.073  18.641  0.00  0.00    +0.000 C 
BRANCH  22  23
ATOM     23  C   UNL     1       4.906   3.754  18.904  0.00  0.00    +0.000 A 
ATOM     24  C   UNL     1       4.588   3.318  20.202  0.00  0.00    +0.000 A 
ATOM     25  C   UNL     1       4.062   2.048  20.425  0.00  0.00    +0.000 A 
ATOM     26  C   UNL     1       3.808   1.203  19.350  0.00  0.00    +0.000 A 
ATOM     27  C   UNL     1       4.053   1.645  18.052  0.00  0.00    +0.000 A 
ATOM     28  C   UNL     1       4.600   2.906  17.828  0.00  0.00    +0.000 A 
ENDBRANCH  22  23
ENDBRANCH  12  22
ENDBRANCH   1  13
BRANCH   3  29
ATOM     29  C   UNL     1       1.320   9.293  18.446  0.00  0.00    +0.000 C 
BRANCH  29  30
ATOM     30  C   UNL     1       1.375  10.737  18.848  0.00  0.00    +0.000 A 
ATOM     31  C   UNL     1       2.197  11.622  18.131  0.00  0.00    +0.000 A 
ATOM     32  C   UNL     1       2.095  12.996  18.328  0.00  0.00    +0.000 A 
ATOM     33  C   UNL     1       1.187  13.495  19.259  0.00  0.00    +0.000 A 
ATOM     34  C   UNL     1       0.419  12.619  20.026  0.00  0.00    +0.000 A 
ATOM     35  C   UNL     1       0.513  11.243  19.826  0.00  0.00    +0.000 A 
ENDBRANCH  29  30
ENDBRANCH   3  29
TORSDOF 8
ENDMDL
