MODEL 1
REMARK VINA RESULT:      -8.3      0.000      0.000
REMARK  Name = 
REMARK  6 active torsions:
REMARK  status: ('A' for Active; 'I' for Inactive)
REMARK    1  A    between atoms: C_2  and  OXT_3
REMARK    2  A    between atoms: C_2  and  CA_4
REMARK    3  A    between atoms: C_8  and  C_9
REMARK    4  A    between atoms: N_11  and  C_12
REMARK    5  A    between atoms: N_11  and  C_22
REMARK    6  A    between atoms: C_12  and  C_13
REMARK                            x       y       z     vdW  Elec       q    Type
REMARK                         _______ _______ _______ _____ _____    ______ ____
ROOT
ATOM      1  C   UNL     1       2.560   7.496  18.172  0.00  0.00    +0.000 C 
ATOM      2  O   UNL     1       3.234   8.161  17.371  0.00  0.00    +0.000 OA
ATOM      3  N   UNL     1       2.787   6.108  18.300  0.00  0.00    +0.000 N 
ENDROOT
BRANCH   1   8
ATOM      4  CA  UNL     1       0.624   9.209  20.878  0.00  0.00    +0.000 A 
ATOM      5  C   UNL     1      -0.191  10.086  20.181  0.00  0.00    +0.000 A 
ATOM      6  C   UNL     1      -0.190  10.002  18.802  0.00  0.00    +0.000 A 
ATOM      7  C   UNL     1       0.654   9.084  18.178  0.00  0.00    +0.000 A 
ATOM      8  C   UNL     1       1.514   8.285  18.945  0.00  0.00    +0.000 A 
ATOM      9  N   UNL     1       1.492   8.304  20.307  0.00  0.00    +0.000 NA
BRANCH   4  11
ATOM     10  O   UNL     1       1.408   9.496  23.142  0.00  0.00    +0.000 OA
ATOM     11  C   UNL     1       0.515   9.201  22.371  0.00  0.00    +0.000 C 
BRANCH  11  12
ATOM     12  OXT UNL     1      -0.739   8.875  22.750  0.00  0.00    +0.000 OA
ATOM     13  HXT UNL     1      -1.308   9.667  22.640  0.00  0.00    +0.000 HD
ENDBRANCH  11  12
ENDBRANCH   4  11
ENDBRANCH   1   8
BRANCH   3  14
ATOM     14  C   UNL     1       1.969   5.215  19.144  0.00  0.00    +0.000 C 
ATOM     15  C   UNL     1       2.694   4.879  20.455  0.00  0.00    +0.000 C 
ATOM     16  C   UNL     1       1.860   3.971  21.357  0.00  0.00    +0.000 C 
ATOM     17  C   UNL     1       1.394   2.718  20.628  0.00  0.00    +0.000 C 
ATOM     18  C   UNL     1       0.617   3.081  19.367  0.00  0.00    +0.000 C 
ATOM     19  C   UNL     1       1.476   3.935  18.440  0.00  0.00    +0.000 C 
ENDBRANCH   3  14
BRANCH   3  20
ATOM     20  C   UNL     1       3.826   5.522  17.417  0.00  0.00    +0.000 C 
BRANCH  20  21
ATOM     21  C   UNL     1       5.294   5.826  17.690  0.00  0.00    +0.000 A 
ATOM     22  C   UNL     1       6.012   5.197  18.732  0.00  0.00    +0.000 A 
ATOM     23  C   UNL     1       7.252   5.695  19.170  0.00  0.00    +0.000 A 
ATOM     24  C   UNL     1       7.731   6.846  18.582  0.00  0.00    +0.000 A 
ATOM     25  C   UNL     1       7.066   7.450  17.545  0.00  0.00    +0.000 A 
ATOM     26  C   UNL     1       5.872   6.952  17.058  0.00  0.00    +0.000 A 
ATOM     27  O   UNL     1       7.671   8.606  17.150  0.00  0.00    +0.000 OA
ATOM     28  C   UNL     1       8.636   8.763  18.213  0.00  0.00    +0.000 C 
ATOM     29  O   UNL     1       8.831   7.550  18.971  0.00  0.00    +0.000 OA
ENDBRANCH  20  21
ENDBRANCH   3  20
TORSDOF 6
ENDMDL
MODEL 2
REMARK VINA RESULT:      -8.1      2.181      6.823
REMARK  Name = 
REMARK  6 active torsions:
REMARK  status: ('A' for Active; 'I' for Inactive)
REMARK    1  A    between atoms: C_2  and  OXT_3
REMARK    2  A    between atoms: C_2  and  CA_4
REMARK    3  A    between atoms: C_8  and  C_9
REMARK    4  A    between atoms: N_11  and  C_12
REMARK    5  A    between atoms: N_11  and  C_22
REMARK    6  A    between atoms: C_12  and  C_13
REMARK                            x       y       z     vdW  Elec       q    Type
REMARK                         _______ _______ _______ _____ _____    ______ ____
ROOT
ATOM      1  C   UNL     1       3.593   6.719  17.669  0.00  0.00    +0.000 C 
ATOM      2  O   UNL     1       3.572   7.872  17.213  0.00  0.00    +0.000 OA
ATOM      3  N   UNL     1       2.469   6.215  18.359  0.00  0.00    +0.000 N 
ENDROOT
BRANCH   1   8
ATOM      4  CA  UNL     1       6.605   5.147  16.100  0.00  0.00    +0.000 A 
ATOM      5  C   UNL     1       7.450   4.931  17.177  0.00  0.00    +0.000 A 
ATOM      6  C   UNL     1       6.952   5.183  18.441  0.00  0.00    +0.000 A 
ATOM      7  C   UNL     1       5.657   5.682  18.574  0.00  0.00    +0.000 A 
ATOM      8  C   UNL     1       4.888   5.956  17.434  0.00  0.00    +0.000 A 
ATOM      9  N   UNL     1       5.330   5.662  16.179  0.00  0.00    +0.000 NA
BRANCH   4  11
ATOM     10  O   UNL     1       7.940   5.321  14.098  0.00  0.00    +0.000 OA
ATOM     11  C   UNL     1       7.093   4.736  14.745  0.00  0.00    +0.000 C 
BRANCH  11  12
ATOM     12  OXT UNL     1       6.502   3.585  14.361  0.00  0.00    +0.000 OA
ATOM     13  HXT UNL     1       6.134   3.716  13.461  0.00  0.00    +0.000 HD
ENDBRANCH  11  12
ENDBRANCH   4  11
ENDBRANCH   1   8
BRANCH   3  14
ATOM     14  C   UNL     1       2.437   4.899  19.028  0.00  0.00    +0.000 C 
ATOM     15  C   UNL     1       1.456   3.948  18.327  0.00  0.00    +0.000 C 
ATOM     16  C   UNL     1       1.418   2.572  18.990  0.00  0.00    +0.000 C 
ATOM     17  C   UNL     1       1.147   2.667  20.485  0.00  0.00    +0.000 C 
ATOM     18  C   UNL     1       2.176   3.561  21.167  0.00  0.00    +0.000 C 
ATOM     19  C   UNL     1       2.167   4.954  20.546  0.00  0.00    +0.000 C 
ENDBRANCH   3  14
BRANCH   3  20
ATOM     20  C   UNL     1       1.320   7.140  18.521  0.00  0.00    +0.000 C 
BRANCH  20  21
ATOM     21  C   UNL     1       1.431   8.303  19.498  0.00  0.00    +0.000 A 
ATOM     22  C   UNL     1       1.422   8.113  20.899  0.00  0.00    +0.000 A 
ATOM     23  C   UNL     1       1.217   9.188  21.782  0.00  0.00    +0.000 A 
ATOM     24  C   UNL     1       0.981  10.433  21.241  0.00  0.00    +0.000 A 
ATOM     25  C   UNL     1       1.023  10.644  19.886  0.00  0.00    +0.000 A 
ATOM     26  C   UNL     1       1.274   9.616  18.996  0.00  0.00    +0.000 A 
ATOM     27  O   UNL     1       0.700  11.927  19.555  0.00  0.00    +0.000 OA
ATOM     28  C   UNL     1       0.226  12.406  20.832  0.00  0.00    +0.000 C 
ATOM     29  O   UNL     1       0.622  11.554  21.927  0.00  0.00    +0.000 OA
ENDBRANCH  20  21
ENDBRANCH   3  20
TORSDOF 6
ENDMDL
MODEL 3
REMARK VINA RESULT:      -7.9      1.343      1.818
REMARK  Name = 
REMARK  6 active torsions:
REMARK  status: ('A' for Active; 'I' for Inactive)
REMARK    1  A    between atoms: C_2  and  OXT_3
REMARK    2  A    between atoms: C_2  and  CA_4
REMARK    3  A    between atoms: C_8  and  C_9
REMARK    4  A    between atoms: N_11  and  C_12
REMARK    5  A    between atoms: N_11  and  C_22
REMARK    6  A    between atoms: C_12  and  C_13
REMARK                            x       y       z     vdW  Elec       q    Type
REMARK                         _______ _______ _______ _____ _____    ______ ____
ROOT
ATOM      1  C   UNL     1       2.157   8.778  18.041  0.00  0.00    +0.000 C 
ATOM      2  O   UNL     1       2.522   9.688  17.283  0.00  0.00    +0.000 OA
ATOM      3  N   UNL     1       2.606   7.457  17.822  0.00  0.00    +0.000 N 
ENDROOT
BRANCH   1   8
ATOM      4  CA  UNL     1       0.704   9.705  21.363  0.00  0.00    +0.000 A 
ATOM      5  C   UNL     1      -0.444  10.403  21.026  0.00  0.00    +0.000 A 
ATOM      6  C   UNL     1      -0.802  10.439  19.691  0.00  0.00    +0.000 A 
ATOM      7  C   UNL     1       0.021   9.823  18.750  0.00  0.00    +0.000 A 
ATOM      8  C   UNL     1       1.214   9.206  19.155  0.00  0.00    +0.000 A 
ATOM      9  N   UNL     1       1.562   9.103  20.468  0.00  0.00    +0.000 NA
BRANCH   4  11
ATOM     10  O   UNL     1       0.206   9.652  23.723  0.00  0.00    +0.000 OA
ATOM     11  C   UNL     1       1.012   9.542  22.819  0.00  0.00    +0.000 C 
BRANCH  11  12
ATOM     12  OXT UNL     1       2.305   9.195  22.991  0.00  0.00    +0.000 OA
ATOM     13  HXT UNL     1       2.334   8.274  23.326  0.00  0.00    +0.000 HD
ENDBRANCH  11  12
ENDBRANCH   4  11
ENDBRANCH   1   8
BRANCH   3  14
ATOM     14  C   UNL     1       2.144   6.291  18.601  0.00  0.00    +0.000 C 
ATOM     15  C   UNL     1       3.129   5.958  19.730  0.00  0.00    +0.000 C 
ATOM     16  C   UNL     1       2.664   4.765  20.565  0.00  0.00    +0.000 C 
ATOM     17  C   UNL     1       2.359   3.550  19.700  0.00  0.00    +0.000 C 
ATOM     18  C   UNL     1       1.327   3.890  18.630  0.00  0.00    +0.000 C 
ATOM     19  C   UNL     1       1.823   5.040  17.759  0.00  0.00    +0.000 C 
ENDBRANCH   3  14
BRANCH   3  20
ATOM     20  C   UNL     1       3.488   7.242  16.647  0.00  0.00    +0.000 C 
BRANCH  20  21
ATOM     21  C   UNL     1       4.792   6.475  16.824  0.00  0.00    +0.000 A 
ATOM     22  C   UNL     1       4.908   5.104  16.501  0.00  0.00    +0.000 A 
ATOM     23  C   UNL     1       6.000   4.338  16.946  0.00  0.00    +0.000 A 
ATOM     24  C   UNL     1       6.938   4.952  17.748  0.00  0.00    +0.000 A 
ATOM     25  C   UNL     1       6.861   6.290  18.041  0.00  0.00    +0.000 A 
ATOM     26  C   UNL     1       5.827   7.080  17.574  0.00  0.00    +0.000 A 
ATOM     27  O   UNL     1       7.846   6.686  18.897  0.00  0.00    +0.000 OA
ATOM     28  C   UNL     1       8.383   5.401  19.278  0.00  0.00    +0.000 C 
ATOM     29  O   UNL     1       7.975   4.342  18.386  0.00  0.00    +0.000 OA
ENDBRANCH  20  21
ENDBRANCH   3  20
TORSDOF 6
ENDMDL
MODEL 4
REMARK VINA RESULT:      -7.9      2.340      2.881
REMARK  Name = 
REMARK  6 active torsions:
REMARK  status: ('A' for Active; 'I' for Inactive)
REMARK    1  A    between atoms: C_2  and  OXT_3
REMARK    2  A    between atoms: C_2  and  CA_4
REMARK    3  A    between atoms: C_8  and  C_9
REMARK    4  A    between atoms: N_11  and  C_12
REMARK    5  A    between atoms: N_11  and  C_22
REMARK    6  A    between atoms: C_12  and  C_13
REMARK                            x       y       z     vdW  Elec       q    Type
REMARK                         _______ _______ _______ _____ _____    ______ ____
ROOT
ATOM      1  C   UNL     1       3.637   6.813  18.261  0.00  0.00    +0.000 C 
ATOM      2  O   UNL     1       4.603   7.386  17.735  0.00  0.00    +0.000 OA
ATOM      3  N   UNL     1       3.655   5.410  18.424  0.00  0.00    +0.000 N 
ENDROOT
BRANCH   1   8
ATOM      4  CA  UNL     1       1.181   8.837  20.230  0.00  0.00    +0.000 A 
ATOM      5  C   UNL     1       0.677   9.725  19.295  0.00  0.00    +0.000 A 
ATOM      6  C   UNL     1       1.056   9.552  17.977  0.00  0.00    +0.000 A 
ATOM      7  C   UNL     1       1.955   8.535  17.658  0.00  0.00    +0.000 A 
ATOM      8  C   UNL     1       2.491   7.726  18.671  0.00  0.00    +0.000 A 
ATOM      9  N   UNL     1       2.090   7.835  19.968  0.00  0.00    +0.000 NA
BRANCH   4  11
ATOM     10  O   UNL     1       1.211   9.509  22.547  0.00  0.00    +0.000 OA
ATOM     11  C   UNL     1       0.658   8.934  21.629  0.00  0.00    +0.000 C 
BRANCH  11  12
ATOM     12  OXT UNL     1      -0.552   8.341  21.722  0.00  0.00    +0.000 OA
ATOM     13  HXT UNL     1      -0.899   8.493  22.626  0.00  0.00    +0.000 HD
ENDBRANCH  11  12
ENDBRANCH   4  11
ENDBRANCH   1   8
BRANCH   3  14
ATOM     14  C   UNL     1       2.513   4.628  18.938  0.00  0.00    +0.000 C 
ATOM     15  C   UNL     1       2.694   4.303  20.428  0.00  0.00    +0.000 C 
ATOM     16  C   UNL     1       1.516   3.510  20.990  0.00  0.00    +0.000 C 
ATOM     17  C   UNL     1       1.227   2.262  20.167  0.00  0.00    +0.000 C 
ATOM     18  C   UNL     1       0.982   2.619  18.706  0.00  0.00    +0.000 C 
ATOM     19  C   UNL     1       2.187   3.356  18.129  0.00  0.00    +0.000 C 
ENDBRANCH   3  14
BRANCH   3  20
ATOM     20  C   UNL     1       4.852   4.698  17.912  0.00  0.00    +0.000 C 
BRANCH  20  21
ATOM     21  C   UNL     1       5.183   4.770  16.427  0.00  0.00    +0.000 A 
ATOM     22  C   UNL     1       4.507   3.986  15.465  0.00  0.00    +0.000 A 
ATOM     23  C   UNL     1       5.013   3.828  14.163  0.00  0.00    +0.000 A 
ATOM     24  C   UNL     1       6.217   4.427  13.859  0.00  0.00    +0.000 A 
ATOM     25  C   UNL     1       6.869   5.222  14.767  0.00  0.00    +0.000 A 
ATOM     26  C   UNL     1       6.368   5.438  16.038  0.00  0.00    +0.000 A 
ATOM     27  O   UNL     1       8.069   5.665  14.294  0.00  0.00    +0.000 OA
ATOM     28  C   UNL     1       8.183   4.862  13.100  0.00  0.00    +0.000 C 
ATOM     29  O   UNL     1       6.927   4.268  12.708  0.00  0.00    +0.000 OA
ENDBRANCH  20  21
ENDBRANCH   3  20
TORSDOF 6
ENDMDL
MODEL 5
REMARK VINA RESULT:      -7.7      1.715      6.471
REMARK  Name = 
REMARK  6 active torsions:
REMARK  status: ('A' for Active; 'I' for Inactive)
REMARK    1  A    between atoms: C_2  and  OXT_3
REMARK    2  A    between atoms: C_2  and  CA_4
REMARK    3  A    between atoms: C_8  and  C_9
REMARK    4  A    between atoms: N_11  and  C_12
REMARK    5  A    between atoms: N_11  and  C_22
REMARK    6  A    between atoms: C_12  and  C_13
REMARK                            x       y       z     vdW  Elec       q    Type
REMARK                         _______ _______ _______ _____ _____    ______ ____
ROOT
ATOM      1  C   UNL     1       3.571   7.244  17.612  0.00  0.00    +0.000 C 
ATOM      2  O   UNL     1       3.573   8.400  17.164  0.00  0.00    +0.000 OA
ATOM      3  N   UNL     1       2.412   6.734  18.238  0.00  0.00    +0.000 N 
ENDROOT
BRANCH   1   8
ATOM      4  CA  UNL     1       6.939   5.714  18.177  0.00  0.00    +0.000 A 
ATOM      5  C   UNL     1       7.011   4.731  17.204  0.00  0.00    +0.000 A 
ATOM      6  C   UNL     1       5.991   4.677  16.273  0.00  0.00    +0.000 A 
ATOM      7  C   UNL     1       4.926   5.569  16.380  0.00  0.00    +0.000 A 
ATOM      8  C   UNL     1       4.878   6.484  17.443  0.00  0.00    +0.000 A 
ATOM      9  N   UNL     1       5.897   6.600  18.339  0.00  0.00    +0.000 NA
BRANCH   4  11
ATOM     10  O   UNL     1       8.611   4.971  19.750  0.00  0.00    +0.000 OA
ATOM     11  C   UNL     1       8.113   5.866  19.095  0.00  0.00    +0.000 C 
BRANCH  11  12
ATOM     12  OXT UNL     1       8.584   7.130  19.051  0.00  0.00    +0.000 OA
ATOM     13  HXT UNL     1       9.448   7.151  19.515  0.00  0.00    +0.000 HD
ENDBRANCH  11  12
ENDBRANCH   4  11
ENDBRANCH   1   8
BRANCH   3  14
ATOM     14  C   UNL     1       2.346   5.414  18.895  0.00  0.00    +0.000 C 
ATOM     15  C   UNL     1       1.640   4.386  17.998  0.00  0.00    +0.000 C 
ATOM     16  C   UNL     1       1.576   3.005  18.648  0.00  0.00    +0.000 C 
ATOM     17  C   UNL     1       0.962   3.060  20.040  0.00  0.00    +0.000 C 
ATOM     18  C   UNL     1       1.723   4.035  20.931  0.00  0.00    +0.000 C 
ATOM     19  C   UNL     1       1.731   5.428  20.310  0.00  0.00    +0.000 C 
ENDBRANCH   3  14
BRANCH   3  20
ATOM     20  C   UNL     1       1.255   7.657  18.343  0.00  0.00    +0.000 C 
BRANCH  20  21
ATOM     21  C   UNL     1       1.288   8.780  19.373  0.00  0.00    +0.000 A 
ATOM     22  C   UNL     1       1.239   8.528  20.763  0.00  0.00    +0.000 A 
ATOM     23  C   UNL     1       0.963   9.556  21.682  0.00  0.00    +0.000 A 
ATOM     24  C   UNL     1       0.698  10.814  21.186  0.00  0.00    +0.000 A 
ATOM     25  C   UNL     1       0.777  11.085  19.844  0.00  0.00    +0.000 A 
ATOM     26  C   UNL     1       1.098  10.106  18.921  0.00  0.00    +0.000 A 
ATOM     27  O   UNL     1       0.417  12.368  19.556  0.00  0.00    +0.000 OA
ATOM     28  C   UNL     1      -0.118  12.774  20.834  0.00  0.00    +0.000 C 
ATOM     29  O   UNL     1       0.273  11.890  21.906  0.00  0.00    +0.000 OA
ENDBRANCH  20  21
ENDBRANCH   3  20
TORSDOF 6
ENDMDL
MODEL 6
REMARK VINA RESULT:      -7.7      1.800      6.530
REMARK  Name = 
REMARK  6 active torsions:
REMARK  status: ('A' for Active; 'I' for Inactive)
REMARK    1  A    between atoms: C_2  and  OXT_3
REMARK    2  A    between atoms: C_2  and  CA_4
REMARK    3  A    between atoms: C_8  and  C_9
REMARK    4  A    between atoms: N_11  and  C_12
REMARK    5  A    between atoms: N_11  and  C_22
REMARK    6  A    between atoms: C_12  and  C_13
REMARK                            x       y       z     vdW  Elec       q    Type
REMARK                         _______ _______ _______ _____ _____    ______ ____
ROOT
ATOM      1  C   UNL     1       3.539   7.188  17.386  0.00  0.00    +0.000 C 
ATOM      2  O   UNL     1       3.469   8.388  17.081  0.00  0.00    +0.000 OA
ATOM      3  N   UNL     1       2.450   6.561  18.030  0.00  0.00    +0.000 N 
ENDROOT
BRANCH   1   8
ATOM      4  CA  UNL     1       6.777   5.318  17.540  0.00  0.00    +0.000 A 
ATOM      5  C   UNL     1       6.986   4.933  16.226  0.00  0.00    +0.000 A 
ATOM      6  C   UNL     1       6.116   5.421  15.269  0.00  0.00    +0.000 A 
ATOM      7  C   UNL     1       5.051   6.228  15.669  0.00  0.00    +0.000 A 
ATOM      8  C   UNL     1       4.852   6.508  17.029  0.00  0.00    +0.000 A 
ATOM      9  N   UNL     1       5.727   6.091  17.986  0.00  0.00    +0.000 NA
BRANCH   4  11
ATOM     10  O   UNL     1       7.859   5.318  19.696  0.00  0.00    +0.000 OA
ATOM     11  C   UNL     1       7.802   4.910  18.552  0.00  0.00    +0.000 C 
BRANCH  11  12
ATOM     12  OXT UNL     1       8.626   3.974  18.036  0.00  0.00    +0.000 OA
ATOM     13  HXT UNL     1       8.161   3.111  18.056  0.00  0.00    +0.000 HD
ENDBRANCH  11  12
ENDBRANCH   4  11
ENDBRANCH   1   8
BRANCH   3  14
ATOM     14  C   UNL     1       2.478   5.171  18.527  0.00  0.00    +0.000 C 
ATOM     15  C   UNL     1       2.166   4.176  17.400  0.00  0.00    +0.000 C 
ATOM     16  C   UNL     1       2.208   2.727  17.884  0.00  0.00    +0.000 C 
ATOM     17  C   UNL     1       1.316   2.508  19.098  0.00  0.00    +0.000 C 
ATOM     18  C   UNL     1       1.692   3.460  20.227  0.00  0.00    +0.000 C 
ATOM     19  C   UNL     1       1.588   4.909  19.759  0.00  0.00    +0.000 C 
ENDBRANCH   3  14
BRANCH   3  20
ATOM     20  C   UNL     1       1.275   7.416  18.331  0.00  0.00    +0.000 C 
BRANCH  20  21
ATOM     21  C   UNL     1       1.343   8.389  19.502  0.00  0.00    +0.000 A 
ATOM     22  C   UNL     1       1.516   7.952  20.835  0.00  0.00    +0.000 A 
ATOM     23  C   UNL     1       1.273   8.808  21.923  0.00  0.00    +0.000 A 
ATOM     24  C   UNL     1       0.817  10.081  21.655  0.00  0.00    +0.000 A 
ATOM     25  C   UNL     1       0.678  10.535  20.368  0.00  0.00    +0.000 A 
ATOM     26  C   UNL     1       0.960   9.732  19.278  0.00  0.00    +0.000 A 
ATOM     27  O   UNL     1       0.156  11.794  20.320  0.00  0.00    +0.000 OA
ATOM     28  C   UNL     1      -0.230  11.961  21.701  0.00  0.00    +0.000 C 
ATOM     29  O   UNL     1       0.394  10.995  22.574  0.00  0.00    +0.000 OA
ENDBRANCH  20  21
ENDBRANCH   3  20
TORSDOF 6
ENDMDL
MODEL 7
REMARK VINA RESULT:      -7.7      2.787      7.332
REMARK  Name = 
REMARK  6 active torsions:
REMARK  status: ('A' for Active; 'I' for Inactive)
REMARK    1  A    between atoms: C_2  and  OXT_3
REMARK    2  A    between atoms: C_2  and  CA_4
REMARK    3  A    between atoms: C_8  and  C_9
REMARK    4  A    between atoms: N_11  and  C_12
REMARK    5  A    between atoms: N_11  and  C_22
REMARK    6  A    between atoms: C_12  and  C_13
REMARK                            x       y       z     vdW  Elec       q    Type
REMARK                         _______ _______ _______ _____ _____    ______ ____
ROOT
ATOM      1  C   UNL     1       4.934   6.182  17.111  0.00  0.00    +0.000 C 
ATOM      2  O   UNL     1       5.453   7.299  17.247  0.00  0.00    +0.000 OA
ATOM      3  N   UNL     1       3.986   5.726  18.054  0.00  0.00    +0.000 N 
ENDROOT
BRANCH   1   8
ATOM      4  CA  UNL     1       6.882   4.949  14.163  0.00  0.00    +0.000 A 
ATOM      5  C   UNL     1       6.425   3.651  13.998  0.00  0.00    +0.000 A 
ATOM      6  C   UNL     1       5.366   3.241  14.786  0.00  0.00    +0.000 A 
ATOM      7  C   UNL     1       4.842   4.121  15.731  0.00  0.00    +0.000 A 
ATOM      8  C   UNL     1       5.411   5.392  15.901  0.00  0.00    +0.000 A 
ATOM      9  N   UNL     1       6.415   5.845  15.100  0.00  0.00    +0.000 NA
BRANCH   4  11
ATOM     10  O   UNL     1       8.914   6.082  13.524  0.00  0.00    +0.000 OA
ATOM     11  C   UNL     1       7.930   5.439  13.213  0.00  0.00    +0.000 C 
BRANCH  11  12
ATOM     12  OXT UNL     1       7.663   5.017  11.959  0.00  0.00    +0.000 OA
ATOM     13  HXT UNL     1       7.216   5.746  11.478  0.00  0.00    +0.000 HD
ENDBRANCH  11  12
ENDBRANCH   4  11
ENDBRANCH   1   8
BRANCH   3  14
ATOM     14  C   UNL     1       3.395   4.374  18.038  0.00  0.00    +0.000 C 
ATOM     15  C   UNL     1       1.868   4.438  18.189  0.00  0.00    +0.000 C 
ATOM     16  C   UNL     1       1.229   3.050  18.156  0.00  0.00    +0.000 C 
ATOM     17  C   UNL     1       1.861   2.109  19.173  0.00  0.00    +0.000 C 
ATOM     18  C   UNL     1       3.367   2.010  18.957  0.00  0.00    +0.000 C 
ATOM     19  C   UNL     1       4.010   3.389  19.053  0.00  0.00    +0.000 C 
ENDBRANCH   3  14
BRANCH   3  20
ATOM     20  C   UNL     1       3.693   6.634  19.191  0.00  0.00    +0.000 C 
BRANCH  20  21
ATOM     21  C   UNL     1       2.490   7.566  19.109  0.00  0.00    +0.000 A 
ATOM     22  C   UNL     1       2.207   8.330  17.955  0.00  0.00    +0.000 A 
ATOM     23  C   UNL     1       1.294   9.399  17.991  0.00  0.00    +0.000 A 
ATOM     24  C   UNL     1       0.710   9.711  19.200  0.00  0.00    +0.000 A 
ATOM     25  C   UNL     1       0.945   8.958  20.322  0.00  0.00    +0.000 A 
ATOM     26  C   UNL     1       1.797   7.869  20.304  0.00  0.00    +0.000 A 
ATOM     27  O   UNL     1       0.325   9.471  21.424  0.00  0.00    +0.000 OA
ATOM     28  C   UNL     1      -0.111  10.743  20.900  0.00  0.00    +0.000 C 
ATOM     29  O   UNL     1      -0.079  10.791  19.458  0.00  0.00    +0.000 OA
ENDBRANCH  20  21
ENDBRANCH   3  20
TORSDOF 6
ENDMDL
MODEL 8
REMARK VINA RESULT:      -7.6      2.132      6.880
REMARK  Name = 
REMARK  6 active torsions:
REMARK  status: ('A' for Active; 'I' for Inactive)
REMARK    1  A    between atoms: C_2  and  OXT_3
REMARK    2  A    between atoms: C_2  and  CA_4
REMARK    3  A    between atoms: C_8  and  C_9
REMARK    4  A    between atoms: N_11  and  C_12
REMARK    5  A    between atoms: N_11  and  C_22
REMARK    6  A    between atoms: C_12  and  C_13
REMARK                            x       y       z     vdW  Elec       q    Type
REMARK                         _______ _______ _______ _____ _____    ______ ____
ROOT
ATOM      1  C   UNL     1       3.641   7.067  17.701  0.00  0.00    +0.000 C 
ATOM      2  O   UNL     1       3.847   8.263  17.446  0.00  0.00    +0.000 OA
ATOM      3  N   UNL     1       2.363   6.650  18.137  0.00  0.00    +0.000 N 
ENDROOT
BRANCH   1   8
ATOM      4  CA  UNL     1       6.509   5.139  16.265  0.00  0.00    +0.000 A 
ATOM      5  C   UNL     1       7.272   4.825  17.378  0.00  0.00    +0.000 A 
ATOM      6  C   UNL     1       6.752   5.138  18.619  0.00  0.00    +0.000 A 
ATOM      7  C   UNL     1       5.522   5.790  18.696  0.00  0.00    +0.000 A 
ATOM      8  C   UNL     1       4.844   6.153  17.523  0.00  0.00    +0.000 A 
ATOM      9  N   UNL     1       5.302   5.805  16.288  0.00  0.00    +0.000 NA
BRANCH   4  11
ATOM     10  O   UNL     1       7.843   5.235  14.257  0.00  0.00    +0.000 OA
ATOM     11  C   UNL     1       7.004   4.670  14.932  0.00  0.00    +0.000 C 
BRANCH  11  12
ATOM     12  OXT UNL     1       6.431   3.493  14.605  0.00  0.00    +0.000 OA
ATOM     13  HXT UNL     1       5.459   3.587  14.703  0.00  0.00    +0.000 HD
ENDBRANCH  11  12
ENDBRANCH   4  11
ENDBRANCH   1   8
BRANCH   3  14
ATOM     14  C   UNL     1       2.050   5.273  18.566  0.00  0.00    +0.000 C 
ATOM     15  C   UNL     1       2.674   4.967  19.935  0.00  0.00    +0.000 C 
ATOM     16  C   UNL     1       2.348   3.552  20.412  0.00  0.00    +0.000 C 
ATOM     17  C   UNL     1       2.718   2.503  19.372  0.00  0.00    +0.000 C 
ATOM     18  C   UNL     1       2.030   2.791  18.042  0.00  0.00    +0.000 C 
ATOM     19  C   UNL     1       2.408   4.181  17.538  0.00  0.00    +0.000 C 
ENDBRANCH   3  14
BRANCH   3  20
ATOM     20  C   UNL     1       1.337   7.711  18.291  0.00  0.00    +0.000 C 
BRANCH  20  21
ATOM     21  C   UNL     1       1.331   8.564  19.553  0.00  0.00    +0.000 A 
ATOM     22  C   UNL     1       1.448   8.001  20.844  0.00  0.00    +0.000 A 
ATOM     23  C   UNL     1       1.138   8.743  21.997  0.00  0.00    +0.000 A 
ATOM     24  C   UNL     1       0.673  10.030  21.833  0.00  0.00    +0.000 A 
ATOM     25  C   UNL     1       0.588  10.607  20.591  0.00  0.00    +0.000 A 
ATOM     26  C   UNL     1       0.936   9.918  19.443  0.00  0.00    +0.000 A 
ATOM     27  O   UNL     1       0.046  11.857  20.640  0.00  0.00    +0.000 OA
ATOM     28  C   UNL     1      -0.408  11.882  22.010  0.00  0.00    +0.000 C 
ATOM     29  O   UNL     1       0.190  10.843  22.813  0.00  0.00    +0.000 OA
ENDBRANCH  20  21
ENDBRANCH   3  20
TORSDOF 6
ENDMDL
MODEL 9
REMARK VINA RESULT:      -7.6      1.387      1.838
REMARK  Name = 
REMARK  6 active torsions:
REMARK  status: ('A' for Active; 'I' for Inactive)
REMARK    1  A    between atoms: C_2  and  OXT_3
REMARK    2  A    between atoms: C_2  and  CA_4
REMARK    3  A    between atoms: C_8  and  C_9
REMARK    4  A    between atoms: N_11  and  C_12
REMARK    5  A    between atoms: N_11  and  C_22
REMARK    6  A    between atoms: C_12  and  C_13
REMARK                            x       y       z     vdW  Elec       q    Type
REMARK                         _______ _______ _______ _____ _____    ______ ____
ROOT
ATOM      1  C   UNL     1       2.566   7.555  18.522  0.00  0.00    +0.000 C 
ATOM      2  O   UNL     1       3.201   8.251  17.716  0.00  0.00    +0.000 OA
ATOM      3  N   UNL     1       2.775   6.159  18.563  0.00  0.00    +0.000 N 
ENDROOT
BRANCH   1   8
ATOM      4  CA  UNL     1      -0.191   9.773  19.739  0.00  0.00    +0.000 A 
ATOM      5  C   UNL     1      -0.428   9.312  21.024  0.00  0.00    +0.000 A 
ATOM      6  C   UNL     1       0.430   8.354  21.529  0.00  0.00    +0.000 A 
ATOM      7  C   UNL     1       1.453   7.864  20.718  0.00  0.00    +0.000 A 
ATOM      8  C   UNL     1       1.582   8.317  19.397  0.00  0.00    +0.000 A 
ATOM      9  N   UNL     1       0.789   9.303  18.893  0.00  0.00    +0.000 NA
BRANCH   4  11
ATOM     10  O   UNL     1      -1.635  11.694  19.956  0.00  0.00    +0.000 OA
ATOM     11  C   UNL     1      -1.029  10.913  19.248  0.00  0.00    +0.000 C 
BRANCH  11  12
ATOM     12  OXT UNL     1      -0.972  10.993  17.902  0.00  0.00    +0.000 OA
ATOM     13  HXT UNL     1      -0.326  10.327  17.582  0.00  0.00    +0.000 HD
ENDBRANCH  11  12
ENDBRANCH   4  11
ENDBRANCH   1   8
BRANCH   3  14
ATOM     14  C   UNL     1       1.993   5.235  19.409  0.00  0.00    +0.000 C 
ATOM     15  C   UNL     1       2.819   4.755  20.611  0.00  0.00    +0.000 C 
ATOM     16  C   UNL     1       2.026   3.812  21.514  0.00  0.00    +0.000 C 
ATOM     17  C   UNL     1       1.428   2.648  20.734  0.00  0.00    +0.000 C 
ATOM     18  C   UNL     1       0.557   3.152  19.589  0.00  0.00    +0.000 C 
ATOM     19  C   UNL     1       1.369   4.043  18.655  0.00  0.00    +0.000 C 
ENDBRANCH   3  14
BRANCH   3  20
ATOM     20  C   UNL     1       3.749   5.605  17.590  0.00  0.00    +0.000 C 
BRANCH  20  21
ATOM     21  C   UNL     1       5.234   5.886  17.780  0.00  0.00    +0.000 A 
ATOM     22  C   UNL     1       6.006   5.227  18.765  0.00  0.00    +0.000 A 
ATOM     23  C   UNL     1       7.275   5.701  19.137  0.00  0.00    +0.000 A 
ATOM     24  C   UNL     1       7.734   6.858  18.545  0.00  0.00    +0.000 A 
ATOM     25  C   UNL     1       7.016   7.491  17.562  0.00  0.00    +0.000 A 
ATOM     26  C   UNL     1       5.788   7.018  17.138  0.00  0.00    +0.000 A 
ATOM     27  O   UNL     1       7.611   8.648  17.154  0.00  0.00    +0.000 OA
ATOM     28  C   UNL     1       8.640   8.772  18.160  0.00  0.00    +0.000 C 
ATOM     29  O   UNL     1       8.864   7.542  18.880  0.00  0.00    +0.000 OA
ENDBRANCH  20  21
ENDBRANCH   3  20
TORSDOF 6
ENDMDL
