MODEL 1
REMARK VINA RESULT:      -9.2      0.000      0.000
REMARK  Name = 
REMARK  4 active torsions:
REMARK  status: ('A' for Active; 'I' for Inactive)
REMARK    1  A    between atoms: C_1  and  N_2
REMARK    2  A    between atoms: C_6  and  C_7
REMARK    3  A    between atoms: C_12  and  C_13
REMARK    4  A    between atoms: N_22  and  C_23
REMARK                            x       y       z     vdW  Elec       q    Type
REMARK                         _______ _______ _______ _____ _____    ______ ____
ROOT
ATOM      1  C   UNL     1       2.284   5.306  19.480  0.00  0.00    +0.000 C 
ATOM      2  O   UNL     1       2.044   4.495  20.375  0.00  0.00    +0.000 OA
ATOM      3  N   UNL     1       1.847   6.636  19.604  0.00  0.00    +0.000 N 
ATOM      4  C   UNL     1       2.229   7.679  18.640  0.00  0.00    +0.000 C 
ATOM      5  C   UNL     1       1.405   8.970  18.654  0.00  0.00    +0.000 C 
ATOM      6  C   UNL     1       1.141   9.369  20.046  0.00  0.00    +0.000 A 
ATOM      7  C   UNL     1       1.198   8.497  21.106  0.00  0.00    +0.000 A 
ATOM      8  C   UNL     1       1.062   9.333  22.228  0.00  0.00    +0.000 A 
ATOM      9  N   UNL     1       0.985  10.629  21.898  0.00  0.00    +0.000 NA
ATOM     10  N   UNL     1       0.951  10.638  20.538  0.00  0.00    +0.000 N 
ATOM     11  C   UNL     1       1.460   7.036  20.987  0.00  0.00    +0.000 C 
ENDROOT
BRANCH   1  17
ATOM     12  C   UNL     1       4.519   4.367  18.701  0.00  0.00    +0.000 C 
ATOM     13  O   UNL     1       4.447   3.019  19.186  0.00  0.00    +0.000 OA
ATOM     14  C   UNL     1       3.816   2.071  18.333  0.00  0.00    +0.000 C 
ATOM     15  C   UNL     1       2.439   2.507  17.877  0.00  0.00    +0.000 C 
ATOM     16  C   UNL     1       2.468   3.907  17.300  0.00  0.00    +0.000 C 
ATOM     17  C   UNL     1       3.139   4.911  18.248  0.00  0.00    +0.000 C 
BRANCH  12  23
ATOM     18  C   UNL     1       7.404   5.480  19.063  0.00  0.00    +0.000 C 
ATOM     19  N   UNL     1       6.853   4.938  17.843  0.00  0.00    +0.000 N 
ATOM     20  N   UNL     1       7.632   4.934  16.740  0.00  0.00    +0.000 NA
ATOM     21  C   UNL     1       6.850   4.413  15.795  0.00  0.00    +0.000 A 
ATOM     22  C   UNL     1       5.577   4.085  16.286  0.00  0.00    +0.000 A 
ATOM     23  C   UNL     1       5.590   4.427  17.630  0.00  0.00    +0.000 A 
ENDBRANCH  12  23
ENDBRANCH   1  17
BRANCH  10  24
ATOM     24  C   UNL     1       0.869  11.850  19.794  0.00  0.00    +0.000 A 
ATOM     25  C   UNL     1      -0.280  12.128  19.046  0.00  0.00    +0.000 A 
ATOM     26  C   UNL     1      -0.423  13.387  18.457  0.00  0.00    +0.000 A 
ATOM     27  C   UNL     1       0.586  14.345  18.573  0.00  0.00    +0.000 A 
ATOM     28  C   UNL     1       1.762  14.037  19.251  0.00  0.00    +0.000 A 
ATOM     29  C   UNL     1       1.911  12.786  19.845  0.00  0.00    +0.000 A 
ENDBRANCH  10  24
TORSDOF 3
ENDMDL
MODEL 2
REMARK VINA RESULT:      -8.2      3.057      8.825
REMARK  Name = 
REMARK  4 active torsions:
REMARK  status: ('A' for Active; 'I' for Inactive)
REMARK    1  A    between atoms: C_1  and  N_2
REMARK    2  A    between atoms: C_6  and  C_7
REMARK    3  A    between atoms: C_12  and  C_13
REMARK    4  A    between atoms: N_22  and  C_23
REMARK                            x       y       z     vdW  Elec       q    Type
REMARK                         _______ _______ _______ _____ _____    ______ ____
ROOT
ATOM      1  C   UNL     1       0.531   9.320  19.705  0.00  0.00    +0.000 C 
ATOM      2  O   UNL     1       0.101   9.374  20.858  0.00  0.00    +0.000 OA
ATOM      3  N   UNL     1       1.557   8.416  19.380  0.00  0.00    +0.000 N 
ATOM      4  C   UNL     1       2.006   8.206  17.996  0.00  0.00    +0.000 C 
ATOM      5  C   UNL     1       3.354   7.504  17.805  0.00  0.00    +0.000 C 
ATOM      6  C   UNL     1       3.463   6.384  18.752  0.00  0.00    +0.000 A 
ATOM      7  C   UNL     1       2.720   6.292  19.904  0.00  0.00    +0.000 A 
ATOM      8  C   UNL     1       3.013   5.004  20.384  0.00  0.00    +0.000 A 
ATOM      9  N   UNL     1       3.828   4.323  19.568  0.00  0.00    +0.000 NA
ATOM     10  N   UNL     1       4.171   5.215  18.598  0.00  0.00    +0.000 N 
ATOM     11  C   UNL     1       1.769   7.333  20.383  0.00  0.00    +0.000 C 
ENDROOT
BRANCH   1  17
ATOM     12  C   UNL     1      -1.577  10.505  18.906  0.00  0.00    +0.000 C 
ATOM     13  O   UNL     1      -1.703  11.551  19.879  0.00  0.00    +0.000 OA
ATOM     14  C   UNL     1      -0.994  12.755  19.611  0.00  0.00    +0.000 C 
ATOM     15  C   UNL     1       0.474  12.526  19.318  0.00  0.00    +0.000 C 
ATOM     16  C   UNL     1       0.664  11.468  18.252  0.00  0.00    +0.000 C 
ATOM     17  C   UNL     1      -0.099  10.175  18.574  0.00  0.00    +0.000 C 
BRANCH  12  23
ATOM     18  C   UNL     1      -4.428  11.753  18.976  0.00  0.00    +0.000 C 
ATOM     19  N   UNL     1      -3.677  11.424  17.787  0.00  0.00    +0.000 N 
ATOM     20  N   UNL     1      -4.259  11.639  16.587  0.00  0.00    +0.000 NA
ATOM     21  C   UNL     1      -3.349  11.219  15.708  0.00  0.00    +0.000 A 
ATOM     22  C   UNL     1      -2.192  10.736  16.337  0.00  0.00    +0.000 A 
ATOM     23  C   UNL     1      -2.414  10.879  17.699  0.00  0.00    +0.000 A 
ENDBRANCH  12  23
ENDBRANCH   1  17
BRANCH  10  24
ATOM     24  C   UNL     1       5.040   4.866  17.526  0.00  0.00    +0.000 A 
ATOM     25  C   UNL     1       4.501   4.444  16.306  0.00  0.00    +0.000 A 
ATOM     26  C   UNL     1       5.349   4.265  15.210  0.00  0.00    +0.000 A 
ATOM     27  C   UNL     1       6.726   4.459  15.338  0.00  0.00    +0.000 A 
ATOM     28  C   UNL     1       7.268   4.800  16.574  0.00  0.00    +0.000 A 
ATOM     29  C   UNL     1       6.428   4.986  17.670  0.00  0.00    +0.000 A 
ENDBRANCH  10  24
TORSDOF 3
ENDMDL
MODEL 3
REMARK VINA RESULT:      -7.9      0.857      1.353
REMARK  Name = 
REMARK  4 active torsions:
REMARK  status: ('A' for Active; 'I' for Inactive)
REMARK    1  A    between atoms: C_1  and  N_2
REMARK    2  A    between atoms: C_6  and  C_7
REMARK    3  A    between atoms: C_12  and  C_13
REMARK    4  A    between atoms: N_22  and  C_23
REMARK                            x       y       z     vdW  Elec       q    Type
REMARK                         _______ _______ _______ _____ _____    ______ ____
ROOT
ATOM      1  C   UNL     1       2.309   5.466  19.641  0.00  0.00    +0.000 C 
ATOM      2  O   UNL     1       2.047   4.615  20.492  0.00  0.00    +0.000 OA
ATOM      3  N   UNL     1       1.827   6.778  19.789  0.00  0.00    +0.000 N 
ATOM      4  C   UNL     1       2.226   7.866  18.884  0.00  0.00    +0.000 C 
ATOM      5  C   UNL     1       1.365   9.132  18.902  0.00  0.00    +0.000 C 
ATOM      6  C   UNL     1       1.018   9.471  20.291  0.00  0.00    +0.000 A 
ATOM      7  C   UNL     1       1.046   8.562  21.321  0.00  0.00    +0.000 A 
ATOM      8  C   UNL     1       0.827   9.351  22.463  0.00  0.00    +0.000 A 
ATOM      9  N   UNL     1       0.729  10.656  22.177  0.00  0.00    +0.000 NA
ATOM     10  N   UNL     1       0.764  10.715  20.818  0.00  0.00    +0.000 N 
ATOM     11  C   UNL     1       1.357   7.114  21.163  0.00  0.00    +0.000 C 
ENDROOT
BRANCH   1  17
ATOM     12  C   UNL     1       4.685   4.882  18.936  0.00  0.00    +0.000 C 
ATOM     13  O   UNL     1       4.844   3.580  19.517  0.00  0.00    +0.000 OA
ATOM     14  C   UNL     1       4.402   2.478  18.733  0.00  0.00    +0.000 C 
ATOM     15  C   UNL     1       2.977   2.631  18.244  0.00  0.00    +0.000 C 
ATOM     16  C   UNL     1       2.767   3.969  17.568  0.00  0.00    +0.000 C 
ATOM     17  C   UNL     1       3.238   5.141  18.442  0.00  0.00    +0.000 C 
BRANCH  12  23
ATOM     18  C   UNL     1       4.698   7.060  16.712  0.00  0.00    +0.000 C 
ATOM     19  N   UNL     1       5.698   6.034  16.898  0.00  0.00    +0.000 N 
ATOM     20  N   UNL     1       6.722   5.977  16.018  0.00  0.00    +0.000 NA
ATOM     21  C   UNL     1       7.442   4.933  16.430  0.00  0.00    +0.000 A 
ATOM     22  C   UNL     1       6.884   4.322  17.563  0.00  0.00    +0.000 A 
ATOM     23  C   UNL     1       5.745   5.054  17.865  0.00  0.00    +0.000 A 
ENDBRANCH  12  23
ENDBRANCH   1  17
BRANCH  10  24
ATOM     24  C   UNL     1       0.685  11.951  20.115  0.00  0.00    +0.000 A 
ATOM     25  C   UNL     1       1.793  12.803  20.083  0.00  0.00    +0.000 A 
ATOM     26  C   UNL     1       1.765  13.930  19.256  0.00  0.00    +0.000 A 
ATOM     27  C   UNL     1       0.629  14.231  18.504  0.00  0.00    +0.000 A 
ATOM     28  C   UNL     1      -0.503  13.425  18.600  0.00  0.00    +0.000 A 
ATOM     29  C   UNL     1      -0.480  12.297  19.417  0.00  0.00    +0.000 A 
ENDBRANCH  10  24
TORSDOF 3
ENDMDL
MODEL 4
REMARK VINA RESULT:      -7.7      2.861      4.594
REMARK  Name = 
REMARK  4 active torsions:
REMARK  status: ('A' for Active; 'I' for Inactive)
REMARK    1  A    between atoms: C_1  and  N_2
REMARK    2  A    between atoms: C_6  and  C_7
REMARK    3  A    between atoms: C_12  and  C_13
REMARK    4  A    between atoms: N_22  and  C_23
REMARK                            x       y       z     vdW  Elec       q    Type
REMARK                         _______ _______ _______ _____ _____    ______ ____
ROOT
ATOM      1  C   UNL     1       2.271   7.907  18.332  0.00  0.00    +0.000 C 
ATOM      2  O   UNL     1       2.447   7.901  17.113  0.00  0.00    +0.000 OA
ATOM      3  N   UNL     1       1.575   8.968  18.935  0.00  0.00    +0.000 N 
ATOM      4  C   UNL     1       1.209   8.957  20.360  0.00  0.00    +0.000 C 
ATOM      5  C   UNL     1       0.805  10.296  20.981  0.00  0.00    +0.000 C 
ATOM      6  C   UNL     1      -0.060  11.031  20.045  0.00  0.00    +0.000 A 
ATOM      7  C   UNL     1      -0.094  10.784  18.694  0.00  0.00    +0.000 A 
ATOM      8  C   UNL     1      -1.167  11.571  18.242  0.00  0.00    +0.000 A 
ATOM      9  N   UNL     1      -1.792  12.213  19.238  0.00  0.00    +0.000 NA
ATOM     10  N   UNL     1      -1.048  11.939  20.345  0.00  0.00    +0.000 N 
ATOM     11  C   UNL     1       0.780   9.804  17.991  0.00  0.00    +0.000 C 
ENDROOT
BRANCH   1  17
ATOM     12  C   UNL     1       1.909   5.446  18.875  0.00  0.00    +0.000 C 
ATOM     13  O   UNL     1       2.342   4.818  17.660  0.00  0.00    +0.000 OA
ATOM     14  C   UNL     1       3.732   4.531  17.553  0.00  0.00    +0.000 C 
ATOM     15  C   UNL     1       4.609   5.735  17.828  0.00  0.00    +0.000 C 
ATOM     16  C   UNL     1       4.232   6.405  19.133  0.00  0.00    +0.000 C 
ATOM     17  C   UNL     1       2.730   6.716  19.214  0.00  0.00    +0.000 C 
BRANCH  12  23
ATOM     18  C   UNL     1       0.634   2.611  18.693  0.00  0.00    +0.000 C 
ATOM     19  N   UNL     1       1.320   3.159  19.840  0.00  0.00    +0.000 N 
ATOM     20  N   UNL     1       1.398   2.402  20.957  0.00  0.00    +0.000 NA
ATOM     21  C   UNL     1       2.047   3.176  21.826  0.00  0.00    +0.000 A 
ATOM     22  C   UNL     1       2.383   4.421  21.275  0.00  0.00    +0.000 A 
ATOM     23  C   UNL     1       1.907   4.399  19.972  0.00  0.00    +0.000 A 
ENDBRANCH  12  23
ENDBRANCH   1  17
BRANCH  10  24
ATOM     24  C   UNL     1      -1.393  12.449  21.629  0.00  0.00    +0.000 A 
ATOM     25  C   UNL     1      -0.637  13.483  22.190  0.00  0.00    +0.000 A 
ATOM     26  C   UNL     1      -1.078  14.090  23.369  0.00  0.00    +0.000 A 
ATOM     27  C   UNL     1      -2.235  13.643  24.007  0.00  0.00    +0.000 A 
ATOM     28  C   UNL     1      -2.942  12.561  23.490  0.00  0.00    +0.000 A 
ATOM     29  C   UNL     1      -2.512  11.954  22.312  0.00  0.00    +0.000 A 
ENDBRANCH  10  24
TORSDOF 3
ENDMDL
MODEL 5
REMARK VINA RESULT:      -7.7      3.387      9.199
REMARK  Name = 
REMARK  4 active torsions:
REMARK  status: ('A' for Active; 'I' for Inactive)
REMARK    1  A    between atoms: C_1  and  N_2
REMARK    2  A    between atoms: C_6  and  C_7
REMARK    3  A    between atoms: C_12  and  C_13
REMARK    4  A    between atoms: N_22  and  C_23
REMARK                            x       y       z     vdW  Elec       q    Type
REMARK                         _______ _______ _______ _____ _____    ______ ____
ROOT
ATOM      1  C   UNL     1      -0.074  10.232  20.008  0.00  0.00    +0.000 C 
ATOM      2  O   UNL     1      -0.293  10.367  21.213  0.00  0.00    +0.000 OA
ATOM      3  N   UNL     1       0.897   9.315  19.570  0.00  0.00    +0.000 N 
ATOM      4  C   UNL     1       1.099   9.007  18.147  0.00  0.00    +0.000 C 
ATOM      5  C   UNL     1       2.406   8.305  17.769  0.00  0.00    +0.000 C 
ATOM      6  C   UNL     1       2.705   7.258  18.758  0.00  0.00    +0.000 A 
ATOM      7  C   UNL     1       2.181   7.246  20.028  0.00  0.00    +0.000 A 
ATOM      8  C   UNL     1       2.583   5.999  20.538  0.00  0.00    +0.000 A 
ATOM      9  N   UNL     1       3.254   5.266  19.640  0.00  0.00    +0.000 NA
ATOM     10  N   UNL     1       3.400   6.087  18.564  0.00  0.00    +0.000 N 
ATOM     11  C   UNL     1       1.308   8.311  20.593  0.00  0.00    +0.000 C 
ENDROOT
BRANCH   1  17
ATOM     12  C   UNL     1      -2.338  11.276  19.492  0.00  0.00    +0.000 C 
ATOM     13  O   UNL     1      -2.369  12.367  20.423  0.00  0.00    +0.000 OA
ATOM     14  C   UNL     1      -1.773  13.585  19.992  0.00  0.00    +0.000 C 
ATOM     15  C   UNL     1      -0.357  13.406  19.486  0.00  0.00    +0.000 C 
ATOM     16  C   UNL     1      -0.276  12.302  18.454  0.00  0.00    +0.000 C 
ATOM     17  C   UNL     1      -0.912  10.995  18.950  0.00  0.00    +0.000 C 
BRANCH  12  23
ATOM     18  C   UNL     1      -5.257  12.253  19.956  0.00  0.00    +0.000 C 
ATOM     19  N   UNL     1      -4.652  11.973  18.675  0.00  0.00    +0.000 N 
ATOM     20  N   UNL     1      -5.415  12.109  17.568  0.00  0.00    +0.000 NA
ATOM     21  C   UNL     1      -4.601  11.759  16.572  0.00  0.00    +0.000 A 
ATOM     22  C   UNL     1      -3.327  11.398  17.034  0.00  0.00    +0.000 A 
ATOM     23  C   UNL     1      -3.368  11.546  18.413  0.00  0.00    +0.000 A 
ENDBRANCH  12  23
ENDBRANCH   1  17
BRANCH  10  24
ATOM     24  C   UNL     1       4.072   5.667  17.381  0.00  0.00    +0.000 A 
ATOM     25  C   UNL     1       4.723   6.611  16.581  0.00  0.00    +0.000 A 
ATOM     26  C   UNL     1       5.519   6.174  15.518  0.00  0.00    +0.000 A 
ATOM     27  C   UNL     1       5.629   4.814  15.227  0.00  0.00    +0.000 A 
ATOM     28  C   UNL     1       4.915   3.882  15.975  0.00  0.00    +0.000 A 
ATOM     29  C   UNL     1       4.125   4.309  17.039  0.00  0.00    +0.000 A 
ENDBRANCH  10  24
TORSDOF 3
ENDMDL
MODEL 6
REMARK VINA RESULT:      -7.4      2.732      4.476
REMARK  Name = 
REMARK  4 active torsions:
REMARK  status: ('A' for Active; 'I' for Inactive)
REMARK    1  A    between atoms: C_1  and  N_2
REMARK    2  A    between atoms: C_6  and  C_7
REMARK    3  A    between atoms: C_12  and  C_13
REMARK    4  A    between atoms: N_22  and  C_23
REMARK                            x       y       z     vdW  Elec       q    Type
REMARK                         _______ _______ _______ _____ _____    ______ ____
ROOT
ATOM      1  C   UNL     1       2.740   7.555  18.335  0.00  0.00    +0.000 C 
ATOM      2  O   UNL     1       3.145   7.620  17.173  0.00  0.00    +0.000 OA
ATOM      3  N   UNL     1       1.894   8.558  18.840  0.00  0.00    +0.000 N 
ATOM      4  C   UNL     1       1.266   8.458  20.165  0.00  0.00    +0.000 C 
ATOM      5  C   UNL     1       0.689   9.748  20.756  0.00  0.00    +0.000 C 
ATOM      6  C   UNL     1      -0.015  10.498  19.705  0.00  0.00    +0.000 A 
ATOM      7  C   UNL     1       0.220  10.321  18.363  0.00  0.00    +0.000 A 
ATOM      8  C   UNL     1      -0.783  11.091  17.749  0.00  0.00    +0.000 A 
ATOM      9  N   UNL     1      -1.614  11.656  18.634  0.00  0.00    +0.000 NA
ATOM     10  N   UNL     1      -1.082  11.353  19.849  0.00  0.00    +0.000 N 
ATOM     11  C   UNL     1       1.256   9.412  17.798  0.00  0.00    +0.000 C 
ENDROOT
BRANCH   1  17
ATOM     12  C   UNL     1       2.135   5.150  18.912  0.00  0.00    +0.000 C 
ATOM     13  O   UNL     1       2.505   4.465  17.707  0.00  0.00    +0.000 OA
ATOM     14  C   UNL     1       3.859   4.040  17.608  0.00  0.00    +0.000 C 
ATOM     15  C   UNL     1       4.851   5.155  17.868  0.00  0.00    +0.000 C 
ATOM     16  C   UNL     1       4.541   5.877  19.162  0.00  0.00    +0.000 C 
ATOM     17  C   UNL     1       3.078   6.338  19.235  0.00  0.00    +0.000 C 
BRANCH  12  23
ATOM     18  C   UNL     1       0.646   2.422  18.743  0.00  0.00    +0.000 C 
ATOM     19  N   UNL     1       1.348   2.933  19.897  0.00  0.00    +0.000 N 
ATOM     20  N   UNL     1       1.343   2.190  21.026  0.00  0.00    +0.000 NA
ATOM     21  C   UNL     1       2.032   2.925  21.898  0.00  0.00    +0.000 A 
ATOM     22  C   UNL     1       2.476   4.132  21.336  0.00  0.00    +0.000 A 
ATOM     23  C   UNL     1       2.028   4.125  20.024  0.00  0.00    +0.000 A 
ENDBRANCH  12  23
ENDBRANCH   1  17
BRANCH  10  24
ATOM     24  C   UNL     1      -1.688  11.782  21.065  0.00  0.00    +0.000 A 
ATOM     25  C   UNL     1      -2.858  12.547  21.025  0.00  0.00    +0.000 A 
ATOM     26  C   UNL     1      -3.536  12.821  22.215  0.00  0.00    +0.000 A 
ATOM     27  C   UNL     1      -3.031  12.378  23.439  0.00  0.00    +0.000 A 
ATOM     28  C   UNL     1      -1.824  11.685  23.484  0.00  0.00    +0.000 A 
ATOM     29  C   UNL     1      -1.145  11.403  22.300  0.00  0.00    +0.000 A 
ENDBRANCH  10  24
TORSDOF 3
ENDMDL
MODEL 7
REMARK VINA RESULT:      -7.4      3.315      8.965
REMARK  Name = 
REMARK  4 active torsions:
REMARK  status: ('A' for Active; 'I' for Inactive)
REMARK    1  A    between atoms: C_1  and  N_2
REMARK    2  A    between atoms: C_6  and  C_7
REMARK    3  A    between atoms: C_12  and  C_13
REMARK    4  A    between atoms: N_22  and  C_23
REMARK                            x       y       z     vdW  Elec       q    Type
REMARK                         _______ _______ _______ _____ _____    ______ ____
ROOT
ATOM      1  C   UNL     1      -0.071  10.253  19.983  0.00  0.00    +0.000 C 
ATOM      2  O   UNL     1      -0.278  10.397  21.189  0.00  0.00    +0.000 OA
ATOM      3  N   UNL     1       0.901   9.339  19.542  0.00  0.00    +0.000 N 
ATOM      4  C   UNL     1       1.090   9.021  18.119  0.00  0.00    +0.000 C 
ATOM      5  C   UNL     1       2.398   8.325  17.733  0.00  0.00    +0.000 C 
ATOM      6  C   UNL     1       2.714   7.288  18.728  0.00  0.00    +0.000 A 
ATOM      7  C   UNL     1       2.204   7.282  20.003  0.00  0.00    +0.000 A 
ATOM      8  C   UNL     1       2.619   6.043  20.519  0.00  0.00    +0.000 A 
ATOM      9  N   UNL     1       3.286   5.307  19.619  0.00  0.00    +0.000 NA
ATOM     10  N   UNL     1       3.414   6.120  18.535  0.00  0.00    +0.000 N 
ATOM     11  C   UNL     1       1.329   8.347  20.569  0.00  0.00    +0.000 C 
ENDROOT
BRANCH   1  17
ATOM     12  C   UNL     1      -2.397  11.113  19.405  0.00  0.00    +0.000 C 
ATOM     13  O   UNL     1      -2.580  12.133  20.397  0.00  0.00    +0.000 OA
ATOM     14  C   UNL     1      -2.084  13.428  20.075  0.00  0.00    +0.000 C 
ATOM     15  C   UNL     1      -0.633  13.415  19.638  0.00  0.00    +0.000 C 
ATOM     16  C   UNL     1      -0.395  12.393  18.547  0.00  0.00    +0.000 C 
ATOM     17  C   UNL     1      -0.926  11.003  18.928  0.00  0.00    +0.000 C 
BRANCH  12  23
ATOM     18  C   UNL     1      -2.223   9.963  16.518  0.00  0.00    +0.000 C 
ATOM     19  N   UNL     1      -3.264  10.826  17.023  0.00  0.00    +0.000 N 
ATOM     20  N   UNL     1      -4.243  11.208  16.173  0.00  0.00    +0.000 NA
ATOM     21  C   UNL     1      -5.017  12.004  16.910  0.00  0.00    +0.000 A 
ATOM     22  C   UNL     1      -4.539  12.136  18.223  0.00  0.00    +0.000 A 
ATOM     23  C   UNL     1      -3.394  11.357  18.289  0.00  0.00    +0.000 A 
ENDBRANCH  12  23
ENDBRANCH   1  17
BRANCH  10  24
ATOM     24  C   UNL     1       4.077   5.695  17.349  0.00  0.00    +0.000 A 
ATOM     25  C   UNL     1       4.729   6.635  16.544  0.00  0.00    +0.000 A 
ATOM     26  C   UNL     1       5.515   6.192  15.476  0.00  0.00    +0.000 A 
ATOM     27  C   UNL     1       5.615   4.831  15.185  0.00  0.00    +0.000 A 
ATOM     28  C   UNL     1       4.901   3.903  15.939  0.00  0.00    +0.000 A 
ATOM     29  C   UNL     1       4.119   4.336  17.008  0.00  0.00    +0.000 A 
ENDBRANCH  10  24
TORSDOF 3
ENDMDL
MODEL 8
REMARK VINA RESULT:      -7.4      2.633      8.902
REMARK  Name = 
REMARK  4 active torsions:
REMARK  status: ('A' for Active; 'I' for Inactive)
REMARK    1  A    between atoms: C_1  and  N_2
REMARK    2  A    between atoms: C_6  and  C_7
REMARK    3  A    between atoms: C_12  and  C_13
REMARK    4  A    between atoms: N_22  and  C_23
REMARK                            x       y       z     vdW  Elec       q    Type
REMARK                         _______ _______ _______ _____ _____    ______ ____
ROOT
ATOM      1  C   UNL     1       1.558   9.838  18.114  0.00  0.00    +0.000 C 
ATOM      2  O   UNL     1       1.990  10.787  17.459  0.00  0.00    +0.000 OA
ATOM      3  N   UNL     1       2.157   8.572  17.993  0.00  0.00    +0.000 N 
ATOM      4  C   UNL     1       1.779   7.441  18.853  0.00  0.00    +0.000 C 
ATOM      5  C   UNL     1       2.207   6.046  18.390  0.00  0.00    +0.000 C 
ATOM      6  C   UNL     1       3.583   6.100  17.874  0.00  0.00    +0.000 A 
ATOM      7  C   UNL     1       4.182   7.257  17.438  0.00  0.00    +0.000 A 
ATOM      8  C   UNL     1       5.517   6.874  17.218  0.00  0.00    +0.000 A 
ATOM      9  N   UNL     1       5.747   5.596  17.544  0.00  0.00    +0.000 NA
ATOM     10  N   UNL     1       4.524   5.097  17.872  0.00  0.00    +0.000 N 
ATOM     11  C   UNL     1       3.508   8.583  17.363  0.00  0.00    +0.000 C 
ENDROOT
BRANCH   1  17
ATOM     12  C   UNL     1       0.712  11.238  20.065  0.00  0.00    +0.000 C 
ATOM     13  O   UNL     1       0.457  12.496  19.426  0.00  0.00    +0.000 OA
ATOM     14  C   UNL     1      -0.825  12.656  18.829  0.00  0.00    +0.000 C 
ATOM     15  C   UNL     1      -1.180  11.535  17.875  0.00  0.00    +0.000 C 
ATOM     16  C   UNL     1      -0.984  10.179  18.521  0.00  0.00    +0.000 C 
ATOM     17  C   UNL     1       0.413  10.029  19.142  0.00  0.00    +0.000 C 
BRANCH  12  23
ATOM     18  C   UNL     1       1.049   9.127  22.329  0.00  0.00    +0.000 C 
ATOM     19  N   UNL     1       0.141  10.250  22.347  0.00  0.00    +0.000 N 
ATOM     20  N   UNL     1      -0.667  10.398  23.420  0.00  0.00    +0.000 NA
ATOM     21  C   UNL     1      -1.389  11.481  23.132  0.00  0.00    +0.000 A 
ATOM     22  C   UNL     1      -1.050  12.025  21.884  0.00  0.00    +0.000 A 
ATOM     23  C   UNL     1      -0.043  11.215  21.380  0.00  0.00    +0.000 A 
ENDBRANCH  12  23
ENDBRANCH   1  17
BRANCH  10  24
ATOM     24  C   UNL     1       4.346   3.745  18.281  0.00  0.00    +0.000 A 
ATOM     25  C   UNL     1       4.756   3.348  19.559  0.00  0.00    +0.000 A 
ATOM     26  C   UNL     1       4.428   2.068  20.014  0.00  0.00    +0.000 A 
ATOM     27  C   UNL     1       3.739   1.176  19.191  0.00  0.00    +0.000 A 
ATOM     28  C   UNL     1       3.403   1.546  17.891  0.00  0.00    +0.000 A 
ATOM     29  C   UNL     1       3.722   2.822  17.432  0.00  0.00    +0.000 A 
ENDBRANCH  10  24
TORSDOF 3
ENDMDL
MODEL 9
REMARK VINA RESULT:      -7.3      2.660      8.880
REMARK  Name = 
REMARK  4 active torsions:
REMARK  status: ('A' for Active; 'I' for Inactive)
REMARK    1  A    between atoms: C_1  and  N_2
REMARK    2  A    between atoms: C_6  and  C_7
REMARK    3  A    between atoms: C_12  and  C_13
REMARK    4  A    between atoms: N_22  and  C_23
REMARK                            x       y       z     vdW  Elec       q    Type
REMARK                         _______ _______ _______ _____ _____    ______ ____
ROOT
ATOM      1  C   UNL     1       1.011   8.805  20.029  0.00  0.00    +0.000 C 
ATOM      2  O   UNL     1       0.723   8.668  21.218  0.00  0.00    +0.000 OA
ATOM      3  N   UNL     1       2.017   8.008  19.454  0.00  0.00    +0.000 N 
ATOM      4  C   UNL     1       2.302   8.025  18.012  0.00  0.00    +0.000 C 
ATOM      5  C   UNL     1       3.637   7.424  17.564  0.00  0.00    +0.000 C 
ATOM      6  C   UNL     1       3.892   6.182  18.311  0.00  0.00    +0.000 A 
ATOM      7  C   UNL     1       3.297   5.887  19.513  0.00  0.00    +0.000 A 
ATOM      8  C   UNL     1       3.684   4.558  19.755  0.00  0.00    +0.000 A 
ATOM      9  N   UNL     1       4.414   4.043  18.756  0.00  0.00    +0.000 NA
ATOM     10  N   UNL     1       4.610   5.084  17.901  0.00  0.00    +0.000 N 
ATOM     11  C   UNL     1       2.380   6.801  20.250  0.00  0.00    +0.000 C 
ENDROOT
BRANCH   1  17
ATOM     12  C   UNL     1      -0.894  10.491  19.930  0.00  0.00    +0.000 C 
ATOM     13  O   UNL     1      -0.391  11.541  20.768  0.00  0.00    +0.000 OA
ATOM     14  C   UNL     1       0.430  12.517  20.137  0.00  0.00    +0.000 C 
ATOM     15  C   UNL     1       1.579  11.913  19.357  0.00  0.00    +0.000 C 
ATOM     16  C   UNL     1       1.095  10.834  18.410  0.00  0.00    +0.000 C 
ATOM     17  C   UNL     1       0.225   9.786  19.121  0.00  0.00    +0.000 C 
BRANCH  12  23
ATOM     18  C   UNL     1      -3.096  12.473  20.887  0.00  0.00    +0.000 C 
ATOM     19  N   UNL     1      -2.965  11.933  19.554  0.00  0.00    +0.000 N 
ATOM     20  N   UNL     1      -3.890  12.281  18.633  0.00  0.00    +0.000 NA
ATOM     21  C   UNL     1      -3.521  11.615  17.539  0.00  0.00    +0.000 A 
ATOM     22  C   UNL     1      -2.370  10.843  17.755  0.00  0.00    +0.000 A 
ATOM     23  C   UNL     1      -2.010  11.062  19.076  0.00  0.00    +0.000 A 
ENDBRANCH  12  23
ENDBRANCH   1  17
BRANCH  10  24
ATOM     24  C   UNL     1       5.354   4.938  16.695  0.00  0.00    +0.000 A 
ATOM     25  C   UNL     1       6.717   5.252  16.678  0.00  0.00    +0.000 A 
ATOM     26  C   UNL     1       7.473   4.949  15.543  0.00  0.00    +0.000 A 
ATOM     27  C   UNL     1       6.872   4.380  14.420  0.00  0.00    +0.000 A 
ATOM     28  C   UNL     1       5.500   4.142  14.410  0.00  0.00    +0.000 A 
ATOM     29  C   UNL     1       4.740   4.437  15.539  0.00  0.00    +0.000 A 
ENDBRANCH  10  24
TORSDOF 3
ENDMDL
