MODEL 1
REMARK VINA RESULT:      -8.5      0.000      0.000
REMARK  Name = 
REMARK  8 active torsions:
REMARK  status: ('A' for Active; 'I' for Inactive)
REMARK    1  A    between atoms: C_4  and  C_5
REMARK    2  A    between atoms: C_5  and  N_6
REMARK    3  A    between atoms: N_6  and  S_7
REMARK    4  A    between atoms: S_7  and  C_10
REMARK    5  A    between atoms: C_15  and  C_16
REMARK    6  A    between atoms: N_22  and  C_23
REMARK    7  A    between atoms: C_23  and  C_24
REMARK    8  A    between atoms: C_24  and  C_25
REMARK                            x       y       z     vdW  Elec       q    Type
REMARK                         _______ _______ _______ _____ _____    ______ ____
ROOT
ATOM      1  N   UNL     1       5.740   3.593  16.948  0.00  0.00    +0.000 NA
ATOM      2  H   UNL     1       5.350   3.264  16.063  0.00  0.00    +0.000 HD
ENDROOT
BRANCH   1   3
ATOM      3  S   UNL     1       6.956   4.729  16.626  0.00  0.00    +0.000 S 
ATOM      4  O   UNL     1       6.455   6.008  17.071  0.00  0.00    +0.000 OA
ATOM      5  O   UNL     1       8.196   4.174  17.120  0.00  0.00    +0.000 OA
BRANCH   3   6
ATOM      6  C   UNL     1       6.995   4.747  14.852  0.00  0.00    +0.000 A 
ATOM      7  C   UNL     1       8.043   5.395  14.192  0.00  0.00    +0.000 A 
ATOM      8  C   UNL     1       8.110   5.340  12.801  0.00  0.00    +0.000 A 
ATOM      9  C   UNL     1       7.138   4.640  12.084  0.00  0.00    +0.000 A 
ATOM     10  F   UNL     1       7.247   4.598  10.750  0.00  0.00    +0.000 F 
ATOM     11  C   UNL     1       6.086   3.991  12.729  0.00  0.00    +0.000 A 
ATOM     12  C   UNL     1       6.013   4.055  14.131  0.00  0.00    +0.000 A 
BRANCH  11  13
ATOM     13  C   UNL     1       5.060   3.215  11.955  0.00  0.00    +0.000 C 
ATOM     14  F   UNL     1       5.465   1.997  11.511  0.00  0.00    +0.000 F 
ATOM     15  F   UNL     1       3.940   2.985  12.702  0.00  0.00    +0.000 F 
ATOM     16  F   UNL     1       4.632   3.890  10.853  0.00  0.00    +0.000 F 
ENDBRANCH  11  13
ENDBRANCH   3   6
ENDBRANCH   1   3
BRANCH   1  17
ATOM     17  C   UNL     1       4.777   3.942  18.006  0.00  0.00    +0.000 C 
BRANCH  17  21
ATOM     18  O   UNL     1       0.788   4.166  17.273  0.00  0.00    +0.000 OA
ATOM     19  C   UNL     1       1.668   3.600  17.894  0.00  0.00    +0.000 C 
ATOM     20  C   UNL     1       2.716   2.715  17.268  0.00  0.00    +0.000 C 
ATOM     21  C   UNL     1       3.850   2.752  18.295  0.00  0.00    +0.000 C 
ATOM     22  C   UNL     1       3.096   2.892  19.615  0.00  0.00    +0.000 C 
ATOM     23  N   UNL     1       1.891   3.606  19.265  0.00  0.00    +0.000 N 
BRANCH  23  24
ATOM     24  C   UNL     1       1.117   4.330  20.277  0.00  0.00    +0.000 C 
BRANCH  24  25
ATOM     25  C   UNL     1       1.890   5.435  21.002  0.00  0.00    +0.000 C 
BRANCH  25  26
ATOM     26  C   UNL     1       1.843   6.769  20.300  0.00  0.00    +0.000 A 
ATOM     27  C   UNL     1       2.443   6.922  19.042  0.00  0.00    +0.000 A 
ATOM     28  C   UNL     1       2.338   8.128  18.348  0.00  0.00    +0.000 A 
ATOM     29  C   UNL     1       1.643   9.195  18.909  0.00  0.00    +0.000 A 
ATOM     30  C   UNL     1       1.061   9.063  20.170  0.00  0.00    +0.000 A 
ATOM     31  C   UNL     1       1.164   7.856  20.866  0.00  0.00    +0.000 A 
ENDBRANCH  25  26
ENDBRANCH  24  25
ENDBRANCH  23  24
ENDBRANCH  17  21
ENDBRANCH   1  17
TORSDOF 8
ENDMDL
MODEL 2
REMARK VINA RESULT:      -8.0      4.180      8.084
REMARK  Name = 
REMARK  8 active torsions:
REMARK  status: ('A' for Active; 'I' for Inactive)
REMARK    1  A    between atoms: C_4  and  C_5
REMARK    2  A    between atoms: C_5  and  N_6
REMARK    3  A    between atoms: N_6  and  S_7
REMARK    4  A    between atoms: S_7  and  C_10
REMARK    5  A    between atoms: C_15  and  C_16
REMARK    6  A    between atoms: N_22  and  C_23
REMARK    7  A    between atoms: C_23  and  C_24
REMARK    8  A    between atoms: C_24  and  C_25
REMARK                            x       y       z     vdW  Elec       q    Type
REMARK                         _______ _______ _______ _____ _____    ______ ____
ROOT
ATOM      1  N   UNL     1       5.291   3.676  19.268  0.00  0.00    +0.000 NA
ATOM      2  H   UNL     1       5.564   2.964  19.947  0.00  0.00    +0.000 HD
ENDROOT
BRANCH   1   3
ATOM      3  S   UNL     1       3.603   3.664  19.108  0.00  0.00    +0.000 S 
ATOM      4  O   UNL     1       3.309   2.987  17.867  0.00  0.00    +0.000 OA
ATOM      5  O   UNL     1       3.061   3.221  20.373  0.00  0.00    +0.000 OA
BRANCH   3   6
ATOM      6  C   UNL     1       3.232   5.385  18.890  0.00  0.00    +0.000 A 
ATOM      7  C   UNL     1       3.603   6.026  17.704  0.00  0.00    +0.000 A 
ATOM      8  C   UNL     1       3.242   7.357  17.507  0.00  0.00    +0.000 A 
ATOM      9  C   UNL     1       2.515   8.034  18.488  0.00  0.00    +0.000 A 
ATOM     10  F   UNL     1       2.174   9.308  18.253  0.00  0.00    +0.000 F 
ATOM     11  C   UNL     1       2.140   7.408  19.675  0.00  0.00    +0.000 A 
ATOM     12  C   UNL     1       2.513   6.069  19.879  0.00  0.00    +0.000 A 
BRANCH  11  13
ATOM     13  C   UNL     1       1.332   8.132  20.714  0.00  0.00    +0.000 C 
ATOM     14  F   UNL     1       0.666   9.231  20.272  0.00  0.00    +0.000 F 
ATOM     15  F   UNL     1       0.383   7.319  21.264  0.00  0.00    +0.000 F 
ATOM     16  F   UNL     1       2.100   8.555  21.756  0.00  0.00    +0.000 F 
ENDBRANCH  11  13
ENDBRANCH   3   6
ENDBRANCH   1   3
BRANCH   1  17
ATOM     17  C   UNL     1       5.929   4.997  19.398  0.00  0.00    +0.000 C 
BRANCH  17  21
ATOM     18  O   UNL     1       6.851   7.941  16.756  0.00  0.00    +0.000 OA
ATOM     19  C   UNL     1       7.087   6.804  17.121  0.00  0.00    +0.000 C 
ATOM     20  C   UNL     1       7.734   6.452  18.437  0.00  0.00    +0.000 C 
ATOM     21  C   UNL     1       7.278   5.009  18.664  0.00  0.00    +0.000 C 
ATOM     22  C   UNL     1       7.186   4.464  17.241  0.00  0.00    +0.000 C 
ATOM     23  N   UNL     1       6.860   5.617  16.436  0.00  0.00    +0.000 N 
BRANCH  23  24
ATOM     24  C   UNL     1       6.251   5.472  15.111  0.00  0.00    +0.000 C 
BRANCH  24  25
ATOM     25  C   UNL     1       7.202   4.963  14.024  0.00  0.00    +0.000 C 
BRANCH  25  26
ATOM     26  C   UNL     1       6.538   4.067  13.008  0.00  0.00    +0.000 A 
ATOM     27  C   UNL     1       7.319   3.253  12.175  0.00  0.00    +0.000 A 
ATOM     28  C   UNL     1       6.715   2.363  11.286  0.00  0.00    +0.000 A 
ATOM     29  C   UNL     1       5.326   2.286  11.214  0.00  0.00    +0.000 A 
ATOM     30  C   UNL     1       4.540   3.107  12.022  0.00  0.00    +0.000 A 
ATOM     31  C   UNL     1       5.143   3.998  12.912  0.00  0.00    +0.000 A 
ENDBRANCH  25  26
ENDBRANCH  24  25
ENDBRANCH  23  24
ENDBRANCH  17  21
ENDBRANCH   1  17
TORSDOF 8
ENDMDL
MODEL 3
REMARK VINA RESULT:      -8.0      5.306      8.078
REMARK  Name = 
REMARK  8 active torsions:
REMARK  status: ('A' for Active; 'I' for Inactive)
REMARK    1  A    between atoms: C_4  and  C_5
REMARK    2  A    between atoms: C_5  and  N_6
REMARK    3  A    between atoms: N_6  and  S_7
REMARK    4  A    between atoms: S_7  and  C_10
REMARK    5  A    between atoms: C_15  and  C_16
REMARK    6  A    between atoms: N_22  and  C_23
REMARK    7  A    between atoms: C_23  and  C_24
REMARK    8  A    between atoms: C_24  and  C_25
REMARK                            x       y       z     vdW  Elec       q    Type
REMARK                         _______ _______ _______ _____ _____    ______ ____
ROOT
ATOM      1  N   UNL     1       1.593   5.217  18.971  0.00  0.00    +0.000 NA
ATOM      2  H   UNL     1       0.840   5.481  18.334  0.00  0.00    +0.000 HD
ENDROOT
BRANCH   1   3
ATOM      3  S   UNL     1       2.837   6.364  18.860  0.00  0.00    +0.000 S 
ATOM      4  O   UNL     1       3.755   6.086  19.938  0.00  0.00    +0.000 OA
ATOM      5  O   UNL     1       3.261   6.397  17.478  0.00  0.00    +0.000 OA
BRANCH   3   6
ATOM      6  C   UNL     1       1.991   7.876  19.242  0.00  0.00    +0.000 A 
ATOM      7  C   UNL     1       1.703   8.783  18.218  0.00  0.00    +0.000 A 
ATOM      8  C   UNL     1       0.972   9.932  18.512  0.00  0.00    +0.000 A 
ATOM      9  C   UNL     1       0.532  10.164  19.816  0.00  0.00    +0.000 A 
ATOM     10  F   UNL     1      -0.181  11.272  20.053  0.00  0.00    +0.000 F 
ATOM     11  C   UNL     1       0.813   9.269  20.847  0.00  0.00    +0.000 A 
ATOM     12  C   UNL     1       1.560   8.115  20.554  0.00  0.00    +0.000 A 
BRANCH  11  13
ATOM     13  C   UNL     1       0.313   9.509  22.243  0.00  0.00    +0.000 C 
ATOM     14  F   UNL     1      -0.039  10.791  22.522  0.00  0.00    +0.000 F 
ATOM     15  F   UNL     1      -0.790   8.753  22.514  0.00  0.00    +0.000 F 
ATOM     16  F   UNL     1       1.234   9.162  23.183  0.00  0.00    +0.000 F 
ENDBRANCH  11  13
ENDBRANCH   3   6
ENDBRANCH   1   3
BRANCH   1  17
ATOM     17  C   UNL     1       1.199   4.804  20.329  0.00  0.00    +0.000 C 
BRANCH  17  21
ATOM     18  O   UNL     1       4.151   2.179  21.273  0.00  0.00    +0.000 OA
ATOM     19  C   UNL     1       3.074   2.330  20.728  0.00  0.00    +0.000 C 
ATOM     20  C   UNL     1       1.790   2.641  21.455  0.00  0.00    +0.000 C 
ATOM     21  C   UNL     1       0.932   3.292  20.368  0.00  0.00    +0.000 C 
ATOM     22  C   UNL     1       1.399   2.573  19.104  0.00  0.00    +0.000 C 
ATOM     23  N   UNL     1       2.774   2.228  19.375  0.00  0.00    +0.000 N 
BRANCH  23  24
ATOM     24  C   UNL     1       3.712   1.936  18.288  0.00  0.00    +0.000 C 
BRANCH  24  25
ATOM     25  C   UNL     1       3.650   2.914  17.111  0.00  0.00    +0.000 C 
BRANCH  25  26
ATOM     26  C   UNL     1       4.899   3.743  16.944  0.00  0.00    +0.000 A 
ATOM     27  C   UNL     1       5.224   4.276  15.688  0.00  0.00    +0.000 A 
ATOM     28  C   UNL     1       6.334   5.107  15.537  0.00  0.00    +0.000 A 
ATOM     29  C   UNL     1       7.135   5.406  16.636  0.00  0.00    +0.000 A 
ATOM     30  C   UNL     1       6.834   4.863  17.885  0.00  0.00    +0.000 A 
ATOM     31  C   UNL     1       5.723   4.031  18.039  0.00  0.00    +0.000 A 
ENDBRANCH  25  26
ENDBRANCH  24  25
ENDBRANCH  23  24
ENDBRANCH  17  21
ENDBRANCH   1  17
TORSDOF 8
ENDMDL
MODEL 4
REMARK VINA RESULT:      -8.0      5.317      8.175
REMARK  Name = 
REMARK  8 active torsions:
REMARK  status: ('A' for Active; 'I' for Inactive)
REMARK    1  A    between atoms: C_4  and  C_5
REMARK    2  A    between atoms: C_5  and  N_6
REMARK    3  A    between atoms: N_6  and  S_7
REMARK    4  A    between atoms: S_7  and  C_10
REMARK    5  A    between atoms: C_15  and  C_16
REMARK    6  A    between atoms: N_22  and  C_23
REMARK    7  A    between atoms: C_23  and  C_24
REMARK    8  A    between atoms: C_24  and  C_25
REMARK                            x       y       z     vdW  Elec       q    Type
REMARK                         _______ _______ _______ _____ _____    ______ ____
ROOT
ATOM      1  N   UNL     1       1.665   5.226  19.159  0.00  0.00    +0.000 NA
ATOM      2  H   UNL     1       0.818   5.443  18.629  0.00  0.00    +0.000 HD
ENDROOT
BRANCH   1   3
ATOM      3  S   UNL     1       2.823   6.427  18.861  0.00  0.00    +0.000 S 
ATOM      4  O   UNL     1       3.858   6.259  19.853  0.00  0.00    +0.000 OA
ATOM      5  O   UNL     1       3.106   6.401  17.443  0.00  0.00    +0.000 OA
BRANCH   3   6
ATOM      6  C   UNL     1       1.935   7.913  19.247  0.00  0.00    +0.000 A 
ATOM      7  C   UNL     1       1.588   8.796  18.221  0.00  0.00    +0.000 A 
ATOM      8  C   UNL     1       0.825   9.922  18.520  0.00  0.00    +0.000 A 
ATOM      9  C   UNL     1       0.412  10.156  19.833  0.00  0.00    +0.000 A 
ATOM     10  F   UNL     1      -0.334  11.241  20.076  0.00  0.00    +0.000 F 
ATOM     11  C   UNL     1       0.752   9.285  20.867  0.00  0.00    +0.000 A 
ATOM     12  C   UNL     1       1.531   8.154  20.567  0.00  0.00    +0.000 A 
BRANCH  11  13
ATOM     13  C   UNL     1       0.281   9.525  22.273  0.00  0.00    +0.000 C 
ATOM     14  F   UNL     1       1.189   9.249  23.245  0.00  0.00    +0.000 F 
ATOM     15  F   UNL     1      -0.083  10.827  22.462  0.00  0.00    +0.000 F 
ATOM     16  F   UNL     1      -0.824   8.789  22.574  0.00  0.00    +0.000 F 
ENDBRANCH  11  13
ENDBRANCH   3   6
ENDBRANCH   1   3
BRANCH   1  17
ATOM     17  C   UNL     1       1.482   4.822  20.563  0.00  0.00    +0.000 C 
BRANCH  17  21
ATOM     18  O   UNL     1       4.486   2.128  21.028  0.00  0.00    +0.000 OA
ATOM     19  C   UNL     1       3.339   2.305  20.663  0.00  0.00    +0.000 C 
ATOM     20  C   UNL     1       2.196   2.645  21.587  0.00  0.00    +0.000 C 
ATOM     21  C   UNL     1       1.190   3.317  20.649  0.00  0.00    +0.000 C 
ATOM     22  C   UNL     1       1.430   2.588  19.329  0.00  0.00    +0.000 C 
ATOM     23  N   UNL     1       2.823   2.211  19.377  0.00  0.00    +0.000 N 
BRANCH  23  24
ATOM     24  C   UNL     1       3.567   1.897  18.154  0.00  0.00    +0.000 C 
BRANCH  24  25
ATOM     25  C   UNL     1       3.539   2.999  17.090  0.00  0.00    +0.000 C 
BRANCH  25  26
ATOM     26  C   UNL     1       4.860   3.708  16.916  0.00  0.00    +0.000 A 
ATOM     27  C   UNL     1       5.634   4.034  18.039  0.00  0.00    +0.000 A 
ATOM     28  C   UNL     1       6.892   4.618  17.886  0.00  0.00    +0.000 A 
ATOM     29  C   UNL     1       7.383   4.891  16.612  0.00  0.00    +0.000 A 
ATOM     30  C   UNL     1       6.611   4.592  15.490  0.00  0.00    +0.000 A 
ATOM     31  C   UNL     1       5.353   4.006  15.640  0.00  0.00    +0.000 A 
ENDBRANCH  25  26
ENDBRANCH  24  25
ENDBRANCH  23  24
ENDBRANCH  17  21
ENDBRANCH   1  17
TORSDOF 8
ENDMDL
MODEL 5
REMARK VINA RESULT:      -8.0      0.715      1.193
REMARK  Name = 
REMARK  8 active torsions:
REMARK  status: ('A' for Active; 'I' for Inactive)
REMARK    1  A    between atoms: C_4  and  C_5
REMARK    2  A    between atoms: C_5  and  N_6
REMARK    3  A    between atoms: N_6  and  S_7
REMARK    4  A    between atoms: S_7  and  C_10
REMARK    5  A    between atoms: C_15  and  C_16
REMARK    6  A    between atoms: N_22  and  C_23
REMARK    7  A    between atoms: C_23  and  C_24
REMARK    8  A    between atoms: C_24  and  C_25
REMARK                            x       y       z     vdW  Elec       q    Type
REMARK                         _______ _______ _______ _____ _____    ______ ____
ROOT
ATOM      1  N   UNL     1       5.555   3.680  17.250  0.00  0.00    +0.000 NA
ATOM      2  H   UNL     1       4.975   3.125  16.618  0.00  0.00    +0.000 HD
ENDROOT
BRANCH   1   3
ATOM      3  S   UNL     1       5.740   5.237  16.605  0.00  0.00    +0.000 S 
ATOM      4  O   UNL     1       4.422   5.824  16.558  0.00  0.00    +0.000 OA
ATOM      5  O   UNL     1       6.836   5.861  17.313  0.00  0.00    +0.000 OA
BRANCH   3   6
ATOM      6  C   UNL     1       6.246   4.897  14.939  0.00  0.00    +0.000 A 
ATOM      7  C   UNL     1       7.536   5.241  14.525  0.00  0.00    +0.000 A 
ATOM      8  C   UNL     1       7.952   4.903  13.240  0.00  0.00    +0.000 A 
ATOM      9  C   UNL     1       7.084   4.225  12.382  0.00  0.00    +0.000 A 
ATOM     10  F   UNL     1       7.528   3.905  11.160  0.00  0.00    +0.000 F 
ATOM     11  C   UNL     1       5.794   3.878  12.780  0.00  0.00    +0.000 A 
ATOM     12  C   UNL     1       5.370   4.228  14.073  0.00  0.00    +0.000 A 
BRANCH  11  13
ATOM     13  C   UNL     1       4.874   3.123  11.863  0.00  0.00    +0.000 C 
ATOM     14  F   UNL     1       5.329   1.910  11.454  0.00  0.00    +0.000 F 
ATOM     15  F   UNL     1       3.666   2.887  12.453  0.00  0.00    +0.000 F 
ATOM     16  F   UNL     1       4.597   3.821  10.728  0.00  0.00    +0.000 F 
ENDBRANCH  11  13
ENDBRANCH   3   6
ENDBRANCH   1   3
BRANCH   1  17
ATOM     17  C   UNL     1       5.237   3.596  18.686  0.00  0.00    +0.000 C 
BRANCH  17  21
ATOM     18  O   UNL     1       1.435   4.224  17.403  0.00  0.00    +0.000 OA
ATOM     19  C   UNL     1       2.149   3.614  18.176  0.00  0.00    +0.000 C 
ATOM     20  C   UNL     1       3.147   2.562  17.759  0.00  0.00    +0.000 C 
ATOM     21  C   UNL     1       4.137   2.552  18.926  0.00  0.00    +0.000 C 
ATOM     22  C   UNL     1       3.246   2.890  20.119  0.00  0.00    +0.000 C 
ATOM     23  N   UNL     1       2.196   3.710  19.561  0.00  0.00    +0.000 N 
BRANCH  23  24
ATOM     24  C   UNL     1       1.399   4.602  20.406  0.00  0.00    +0.000 C 
BRANCH  24  25
ATOM     25  C   UNL     1       2.166   5.801  20.971  0.00  0.00    +0.000 C 
BRANCH  25  26
ATOM     26  C   UNL     1       1.765   7.120  20.360  0.00  0.00    +0.000 A 
ATOM     27  C   UNL     1       0.992   8.029  21.097  0.00  0.00    +0.000 A 
ATOM     28  C   UNL     1       0.681   9.284  20.572  0.00  0.00    +0.000 A 
ATOM     29  C   UNL     1       1.130   9.638  19.303  0.00  0.00    +0.000 A 
ATOM     30  C   UNL     1       1.880   8.734  18.552  0.00  0.00    +0.000 A 
ATOM     31  C   UNL     1       2.193   7.478  19.075  0.00  0.00    +0.000 A 
ENDBRANCH  25  26
ENDBRANCH  24  25
ENDBRANCH  23  24
ENDBRANCH  17  21
ENDBRANCH   1  17
TORSDOF 8
ENDMDL
MODEL 6
REMARK VINA RESULT:      -8.0      0.978      1.372
REMARK  Name = 
REMARK  8 active torsions:
REMARK  status: ('A' for Active; 'I' for Inactive)
REMARK    1  A    between atoms: C_4  and  C_5
REMARK    2  A    between atoms: C_5  and  N_6
REMARK    3  A    between atoms: N_6  and  S_7
REMARK    4  A    between atoms: S_7  and  C_10
REMARK    5  A    between atoms: C_15  and  C_16
REMARK    6  A    between atoms: N_22  and  C_23
REMARK    7  A    between atoms: C_23  and  C_24
REMARK    8  A    between atoms: C_24  and  C_25
REMARK                            x       y       z     vdW  Elec       q    Type
REMARK                         _______ _______ _______ _____ _____    ______ ____
ROOT
ATOM      1  N   UNL     1       4.217   3.311  16.973  0.00  0.00    +0.000 NA
ATOM      2  H   UNL     1       3.241   3.526  16.764  0.00  0.00    +0.000 HD
ENDROOT
BRANCH   1   3
ATOM      3  S   UNL     1       5.135   4.730  16.835  0.00  0.00    +0.000 S 
ATOM      4  O   UNL     1       4.200   5.830  16.850  0.00  0.00    +0.000 OA
ATOM      5  O   UNL     1       6.217   4.628  17.788  0.00  0.00    +0.000 OA
BRANCH   3   6
ATOM      6  C   UNL     1       5.793   4.596  15.194  0.00  0.00    +0.000 A 
ATOM      7  C   UNL     1       7.107   5.001  14.942  0.00  0.00    +0.000 A 
ATOM      8  C   UNL     1       7.643   4.822  13.668  0.00  0.00    +0.000 A 
ATOM      9  C   UNL     1       6.869   4.242  12.662  0.00  0.00    +0.000 A 
ATOM     10  F   UNL     1       7.427   4.074  11.456  0.00  0.00    +0.000 F 
ATOM     11  C   UNL     1       5.557   3.836  12.898  0.00  0.00    +0.000 A 
ATOM     12  C   UNL     1       5.012   4.026  14.179  0.00  0.00    +0.000 A 
BRANCH  11  13
ATOM     13  C   UNL     1       4.738   3.185  11.819  0.00  0.00    +0.000 C 
ATOM     14  F   UNL     1       4.594   3.913  10.681  0.00  0.00    +0.000 F 
ATOM     15  F   UNL     1       5.280   1.994  11.433  0.00  0.00    +0.000 F 
ATOM     16  F   UNL     1       3.477   2.895  12.240  0.00  0.00    +0.000 F 
ENDBRANCH  11  13
ENDBRANCH   3   6
ENDBRANCH   1   3
BRANCH   1  17
ATOM     17  C   UNL     1       4.472   2.475  18.158  0.00  0.00    +0.000 C 
BRANCH  17  21
ATOM     18  O   UNL     1       1.033   4.499  17.403  0.00  0.00    +0.000 OA
ATOM     19  C   UNL     1       1.616   3.753  18.167  0.00  0.00    +0.000 C 
ATOM     20  C   UNL     1       1.987   2.327  17.843  0.00  0.00    +0.000 C 
ATOM     21  C   UNL     1       3.145   2.051  18.805  0.00  0.00    +0.000 C 
ATOM     22  C   UNL     1       2.777   2.901  20.018  0.00  0.00    +0.000 C 
ATOM     23  N   UNL     1       2.031   4.008  19.467  0.00  0.00    +0.000 N 
BRANCH  23  24
ATOM     24  C   UNL     1       1.878   5.264  20.207  0.00  0.00    +0.000 C 
BRANCH  24  25
ATOM     25  C   UNL     1       2.787   6.400  19.729  0.00  0.00    +0.000 C 
BRANCH  25  26
ATOM     26  C   UNL     1       2.074   7.719  19.566  0.00  0.00    +0.000 A 
ATOM     27  C   UNL     1       2.080   8.371  18.324  0.00  0.00    +0.000 A 
ATOM     28  C   UNL     1       1.359   9.551  18.140  0.00  0.00    +0.000 A 
ATOM     29  C   UNL     1       0.635  10.097  19.197  0.00  0.00    +0.000 A 
ATOM     30  C   UNL     1       0.640   9.469  20.442  0.00  0.00    +0.000 A 
ATOM     31  C   UNL     1       1.361   8.287  20.629  0.00  0.00    +0.000 A 
ENDBRANCH  25  26
ENDBRANCH  24  25
ENDBRANCH  23  24
ENDBRANCH  17  21
ENDBRANCH   1  17
TORSDOF 8
ENDMDL
MODEL 7
REMARK VINA RESULT:      -7.9      2.772      4.100
REMARK  Name = 
REMARK  8 active torsions:
REMARK  status: ('A' for Active; 'I' for Inactive)
REMARK    1  A    between atoms: C_4  and  C_5
REMARK    2  A    between atoms: C_5  and  N_6
REMARK    3  A    between atoms: N_6  and  S_7
REMARK    4  A    between atoms: S_7  and  C_10
REMARK    5  A    between atoms: C_15  and  C_16
REMARK    6  A    between atoms: N_22  and  C_23
REMARK    7  A    between atoms: C_23  and  C_24
REMARK    8  A    between atoms: C_24  and  C_25
REMARK                            x       y       z     vdW  Elec       q    Type
REMARK                         _______ _______ _______ _____ _____    ______ ____
ROOT
ATOM      1  N   UNL     1       2.784   2.362  19.759  0.00  0.00    +0.000 NA
ATOM      2  H   UNL     1       2.285   2.712  18.940  0.00  0.00    +0.000 HD
ENDROOT
BRANCH   1   3
ATOM      3  S   UNL     1       4.366   1.954  19.306  0.00  0.00    +0.000 S 
ATOM      4  O   UNL     1       5.080   1.649  20.523  0.00  0.00    +0.000 OA
ATOM      5  O   UNL     1       4.264   1.008  18.217  0.00  0.00    +0.000 OA
BRANCH   3   6
ATOM      6  C   UNL     1       4.989   3.492  18.680  0.00  0.00    +0.000 A 
ATOM      7  C   UNL     1       5.564   4.413  19.561  0.00  0.00    +0.000 A 
ATOM      8  C   UNL     1       6.120   5.585  19.053  0.00  0.00    +0.000 A 
ATOM      9  C   UNL     1       6.100   5.828  17.678  0.00  0.00    +0.000 A 
ATOM     10  F   UNL     1       6.659   6.959  17.230  0.00  0.00    +0.000 F 
ATOM     11  C   UNL     1       5.528   4.919  16.789  0.00  0.00    +0.000 A 
ATOM     12  C   UNL     1       4.958   3.741  17.302  0.00  0.00    +0.000 A 
BRANCH  11  13
ATOM     13  C   UNL     1       5.537   5.171  15.309  0.00  0.00    +0.000 C 
ATOM     14  F   UNL     1       4.901   4.234  14.556  0.00  0.00    +0.000 F 
ATOM     15  F   UNL     1       4.942   6.360  15.001  0.00  0.00    +0.000 F 
ATOM     16  F   UNL     1       6.801   5.255  14.811  0.00  0.00    +0.000 F 
ENDBRANCH  11  13
ENDBRANCH   3   6
ENDBRANCH   1   3
BRANCH   1  17
ATOM     17  C   UNL     1       2.636   3.133  21.005  0.00  0.00    +0.000 C 
BRANCH  17  21
ATOM     18  O   UNL     1       1.341   4.440  17.384  0.00  0.00    +0.000 OA
ATOM     19  C   UNL     1       1.369   4.655  18.581  0.00  0.00    +0.000 C 
ATOM     20  C   UNL     1       0.661   3.812  19.612  0.00  0.00    +0.000 C 
ATOM     21  C   UNL     1       1.451   4.104  20.890  0.00  0.00    +0.000 C 
ATOM     22  C   UNL     1       1.888   5.553  20.685  0.00  0.00    +0.000 C 
ATOM     23  N   UNL     1       2.002   5.693  19.252  0.00  0.00    +0.000 N 
BRANCH  23  24
ATOM     24  C   UNL     1       2.810   6.760  18.656  0.00  0.00    +0.000 C 
BRANCH  24  25
ATOM     25  C   UNL     1       2.014   7.778  17.834  0.00  0.00    +0.000 C 
BRANCH  25  26
ATOM     26  C   UNL     1       1.691   9.045  18.586  0.00  0.00    +0.000 A 
ATOM     27  C   UNL     1       1.926  10.294  17.991  0.00  0.00    +0.000 A 
ATOM     28  C   UNL     1       1.559  11.470  18.646  0.00  0.00    +0.000 A 
ATOM     29  C   UNL     1       0.964  11.411  19.903  0.00  0.00    +0.000 A 
ATOM     30  C   UNL     1       0.748  10.176  20.514  0.00  0.00    +0.000 A 
ATOM     31  C   UNL     1       1.113   8.997  19.861  0.00  0.00    +0.000 A 
ENDBRANCH  25  26
ENDBRANCH  24  25
ENDBRANCH  23  24
ENDBRANCH  17  21
ENDBRANCH   1  17
TORSDOF 8
ENDMDL
MODEL 8
REMARK VINA RESULT:      -7.8      5.063      8.073
REMARK  Name = 
REMARK  8 active torsions:
REMARK  status: ('A' for Active; 'I' for Inactive)
REMARK    1  A    between atoms: C_4  and  C_5
REMARK    2  A    between atoms: C_5  and  N_6
REMARK    3  A    between atoms: N_6  and  S_7
REMARK    4  A    between atoms: S_7  and  C_10
REMARK    5  A    between atoms: C_15  and  C_16
REMARK    6  A    between atoms: N_22  and  C_23
REMARK    7  A    between atoms: C_23  and  C_24
REMARK    8  A    between atoms: C_24  and  C_25
REMARK                            x       y       z     vdW  Elec       q    Type
REMARK                         _______ _______ _______ _____ _____    ______ ____
ROOT
ATOM      1  N   UNL     1       1.809   5.714  18.160  0.00  0.00    +0.000 NA
ATOM      2  H   UNL     1       1.001   6.131  17.695  0.00  0.00    +0.000 HD
ENDROOT
BRANCH   1   3
ATOM      3  S   UNL     1       2.843   6.952  18.682  0.00  0.00    +0.000 S 
ATOM      4  O   UNL     1       3.810   6.340  19.562  0.00  0.00    +0.000 OA
ATOM      5  O   UNL     1       3.236   7.700  17.509  0.00  0.00    +0.000 OA
BRANCH   3   6
ATOM      6  C   UNL     1       1.764   7.953  19.672  0.00  0.00    +0.000 A 
ATOM      7  C   UNL     1       1.522   7.600  21.003  0.00  0.00    +0.000 A 
ATOM      8  C   UNL     1       0.735   8.432  21.796  0.00  0.00    +0.000 A 
ATOM      9  C   UNL     1       0.200   9.604  21.260  0.00  0.00    +0.000 A 
ATOM     10  F   UNL     1      -0.538  10.384  22.060  0.00  0.00    +0.000 F 
ATOM     11  C   UNL     1       0.430   9.967  19.934  0.00  0.00    +0.000 A 
ATOM     12  C   UNL     1       1.216   9.123  19.130  0.00  0.00    +0.000 A 
BRANCH  11  13
ATOM     13  C   UNL     1      -0.123  11.245  19.371  0.00  0.00    +0.000 C 
ATOM     14  F   UNL     1      -1.468  11.399  19.491  0.00  0.00    +0.000 F 
ATOM     15  F   UNL     1       0.432  12.337  19.972  0.00  0.00    +0.000 F 
ATOM     16  F   UNL     1       0.150  11.379  18.044  0.00  0.00    +0.000 F 
ENDBRANCH  11  13
ENDBRANCH   3   6
ENDBRANCH   1   3
BRANCH   1  17
ATOM     17  C   UNL     1       1.536   4.635  19.124  0.00  0.00    +0.000 C 
BRANCH  17  21
ATOM     18  O   UNL     1       4.800   2.299  19.744  0.00  0.00    +0.000 OA
ATOM     19  C   UNL     1       3.863   2.546  19.009  0.00  0.00    +0.000 C 
ATOM     20  C   UNL     1       2.418   2.298  19.362  0.00  0.00    +0.000 C 
ATOM     21  C   UNL     1       1.672   3.266  18.441  0.00  0.00    +0.000 C 
ATOM     22  C   UNL     1       2.569   3.304  17.206  0.00  0.00    +0.000 C 
ATOM     23  N   UNL     1       3.896   3.060  17.719  0.00  0.00    +0.000 N 
BRANCH  23  24
ATOM     24  C   UNL     1       5.087   3.448  16.959  0.00  0.00    +0.000 C 
BRANCH  24  25
ATOM     25  C   UNL     1       5.143   4.929  16.574  0.00  0.00    +0.000 C 
BRANCH  25  26
ATOM     26  C   UNL     1       6.189   5.713  17.327  0.00  0.00    +0.000 A 
ATOM     27  C   UNL     1       6.835   5.139  18.432  0.00  0.00    +0.000 A 
ATOM     28  C   UNL     1       7.858   5.823  19.088  0.00  0.00    +0.000 A 
ATOM     29  C   UNL     1       8.238   7.091  18.655  0.00  0.00    +0.000 A 
ATOM     30  C   UNL     1       7.587   7.680  17.572  0.00  0.00    +0.000 A 
ATOM     31  C   UNL     1       6.563   6.997  16.912  0.00  0.00    +0.000 A 
ENDBRANCH  25  26
ENDBRANCH  24  25
ENDBRANCH  23  24
ENDBRANCH  17  21
ENDBRANCH   1  17
TORSDOF 8
ENDMDL
MODEL 9
REMARK VINA RESULT:      -7.8      0.929      1.331
REMARK  Name = 
REMARK  8 active torsions:
REMARK  status: ('A' for Active; 'I' for Inactive)
REMARK    1  A    between atoms: C_4  and  C_5
REMARK    2  A    between atoms: C_5  and  N_6
REMARK    3  A    between atoms: N_6  and  S_7
REMARK    4  A    between atoms: S_7  and  C_10
REMARK    5  A    between atoms: C_15  and  C_16
REMARK    6  A    between atoms: N_22  and  C_23
REMARK    7  A    between atoms: C_23  and  C_24
REMARK    8  A    between atoms: C_24  and  C_25
REMARK                            x       y       z     vdW  Elec       q    Type
REMARK                         _______ _______ _______ _____ _____    ______ ____
ROOT
ATOM      1  N   UNL     1       5.526   3.280  16.782  0.00  0.00    +0.000 NA
ATOM      2  H   UNL     1       5.645   2.661  15.978  0.00  0.00    +0.000 HD
ENDROOT
BRANCH   1   3
ATOM      3  S   UNL     1       6.386   4.715  16.503  0.00  0.00    +0.000 S 
ATOM      4  O   UNL     1       5.493   5.802  16.825  0.00  0.00    +0.000 OA
ATOM      5  O   UNL     1       7.676   4.565  17.139  0.00  0.00    +0.000 OA
BRANCH   3   6
ATOM      6  C   UNL     1       6.602   4.690  14.743  0.00  0.00    +0.000 A 
ATOM      7  C   UNL     1       7.740   5.273  14.179  0.00  0.00    +0.000 A 
ATOM      8  C   UNL     1       7.941   5.183  12.803  0.00  0.00    +0.000 A 
ATOM      9  C   UNL     1       7.012   4.513  12.005  0.00  0.00    +0.000 A 
ATOM     10  F   UNL     1       7.251   4.435  10.690  0.00  0.00    +0.000 F 
ATOM     11  C   UNL     1       5.872   3.929  12.554  0.00  0.00    +0.000 A 
ATOM     12  C   UNL     1       5.663   4.028  13.940  0.00  0.00    +0.000 A 
BRANCH  11  13
ATOM     13  C   UNL     1       4.891   3.183  11.695  0.00  0.00    +0.000 C 
ATOM     14  F   UNL     1       5.309   1.966  11.257  0.00  0.00    +0.000 F 
ATOM     15  F   UNL     1       3.719   2.957  12.358  0.00  0.00    +0.000 F 
ATOM     16  F   UNL     1       4.551   3.885  10.579  0.00  0.00    +0.000 F 
ENDBRANCH  11  13
ENDBRANCH   3   6
ENDBRANCH   1   3
BRANCH   1  17
ATOM     17  C   UNL     1       4.159   3.426  17.309  0.00  0.00    +0.000 C 
BRANCH  17  21
ATOM     18  O   UNL     1       0.653   3.396  19.360  0.00  0.00    +0.000 OA
ATOM     19  C   UNL     1       1.867   3.395  19.440  0.00  0.00    +0.000 C 
ATOM     20  C   UNL     1       2.745   2.245  19.014  0.00  0.00    +0.000 C 
ATOM     21  C   UNL     1       4.093   2.924  18.759  0.00  0.00    +0.000 C 
ATOM     22  C   UNL     1       4.091   4.058  19.782  0.00  0.00    +0.000 C 
ATOM     23  N   UNL     1       2.695   4.388  19.947  0.00  0.00    +0.000 N 
BRANCH  23  24
ATOM     24  C   UNL     1       2.281   5.688  20.481  0.00  0.00    +0.000 C 
BRANCH  24  25
ATOM     25  C   UNL     1       2.343   6.841  19.474  0.00  0.00    +0.000 C 
BRANCH  25  26
ATOM     26  C   UNL     1       1.639   8.091  19.939  0.00  0.00    +0.000 A 
ATOM     27  C   UNL     1       1.426   9.150  19.045  0.00  0.00    +0.000 A 
ATOM     28  C   UNL     1       0.708  10.279  19.442  0.00  0.00    +0.000 A 
ATOM     29  C   UNL     1       0.206  10.365  20.737  0.00  0.00    +0.000 A 
ATOM     30  C   UNL     1       0.431   9.327  21.642  0.00  0.00    +0.000 A 
ATOM     31  C   UNL     1       1.149   8.196  21.247  0.00  0.00    +0.000 A 
ENDBRANCH  25  26
ENDBRANCH  24  25
ENDBRANCH  23  24
ENDBRANCH  17  21
ENDBRANCH   1  17
TORSDOF 8
ENDMDL
