MODEL 1
REMARK VINA RESULT:      -8.5      0.000      0.000
REMARK  Name = 
REMARK  5 active torsions:
REMARK  status: ('A' for Active; 'I' for Inactive)
REMARK    1  A    between atoms: C_2  and  O_3
REMARK    2  A    between atoms: C_2  and  C_19
REMARK    3  A    between atoms: O_3  and  C_4
REMARK    4  A    between atoms: C_4  and  C_5
REMARK    5  A    between atoms: C_9  and  C_10
REMARK                            x       y       z     vdW  Elec       q    Type
REMARK                         _______ _______ _______ _____ _____    ______ ____
ROOT
ATOM      1  C   UNL     1       3.017   7.857  17.163  0.00  0.00    +0.000 C 
ENDROOT
BRANCH   1   2
ATOM      2  C   UNL     1       2.283   8.194  18.435  0.00  0.00    +0.000 A 
ATOM      3  C   UNL     1       2.408   7.357  19.553  0.00  0.00    +0.000 A 
ATOM      4  C   UNL     1       1.622   7.561  20.682  0.00  0.00    +0.000 A 
ATOM      5  C   UNL     1       0.711   8.622  20.705  0.00  0.00    +0.000 A 
ATOM      6  C   UNL     1       0.669   9.548  19.659  0.00  0.00    +0.000 A 
ATOM      7  C   UNL     1       1.427   9.307  18.504  0.00  0.00    +0.000 A 
BRANCH   6   8
ATOM      8  C   UNL     1      -0.229  10.748  19.697  0.00  0.00    +0.000 C 
ATOM      9  O   UNL     1      -0.022  11.566  20.602  0.00  0.00    +0.000 OA
ATOM     10  N   UNL     1      -1.249  10.910  18.764  0.00  0.00    +0.000 N 
ATOM     11  C   UNL     1      -1.943  12.201  18.711  0.00  0.00    +0.000 C 
ATOM     12  C   UNL     1      -3.460  12.026  18.747  0.00  0.00    +0.000 C 
ATOM     13  C   UNL     1      -3.930  11.071  17.655  0.00  0.00    +0.000 C 
ATOM     14  C   UNL     1      -3.199   9.741  17.761  0.00  0.00    +0.000 C 
ATOM     15  C   UNL     1      -1.688   9.930  17.763  0.00  0.00    +0.000 C 
ENDBRANCH   6   8
ENDBRANCH   1   2
BRANCH   1  16
ATOM     16  O   UNL     1       4.413   7.643  17.411  0.00  0.00    +0.000 OA
BRANCH  16  18
ATOM     17  O   UNL     1       5.496   6.795  15.584  0.00  0.00    +0.000 OA
ATOM     18  C   UNL     1       5.014   6.662  16.699  0.00  0.00    +0.000 C 
BRANCH  18  19
ATOM     19  C   UNL     1       4.955   5.364  17.411  0.00  0.00    +0.000 A 
ATOM     20  C   UNL     1       3.775   4.706  17.438  0.00  0.00    +0.000 A 
ATOM     21  C   UNL     1       3.647   3.507  18.217  0.00  0.00    +0.000 A 
ATOM     22  C   UNL     1       4.586   3.178  19.111  0.00  0.00    +0.000 A 
ATOM     23  N   UNL     1       5.795   3.804  19.102  0.00  0.00    +0.000 N 
ATOM     24  C   UNL     1       6.117   4.761  18.153  0.00  0.00    +0.000 A 
ATOM     25  O   UNL     1       7.288   5.051  17.948  0.00  0.00    +0.000 OA
ATOM     26  C   UNL     1       4.314   1.864  19.753  0.00  0.00    +0.000 C 
ATOM     27  C   UNL     1       3.592   1.212  18.575  0.00  0.00    +0.000 C 
ATOM     28  C   UNL     1       2.724   2.352  17.998  0.00  0.00    +0.000 C 
ATOM     29  H   UNL     1       6.585   3.379  19.574  0.00  0.00    +0.000 HD
ENDBRANCH  18  19
ENDBRANCH  16  18
ENDBRANCH   1  16
TORSDOF 5
ENDMDL
MODEL 2
REMARK VINA RESULT:      -8.5      2.050      3.259
REMARK  Name = 
REMARK  5 active torsions:
REMARK  status: ('A' for Active; 'I' for Inactive)
REMARK    1  A    between atoms: C_2  and  O_3
REMARK    2  A    between atoms: C_2  and  C_19
REMARK    3  A    between atoms: O_3  and  C_4
REMARK    4  A    between atoms: C_4  and  C_5
REMARK    5  A    between atoms: C_9  and  C_10
REMARK                            x       y       z     vdW  Elec       q    Type
REMARK                         _______ _______ _______ _____ _____    ______ ____
ROOT
ATOM      1  C   UNL     1       2.169   6.319  20.671  0.00  0.00    +0.000 C 
ENDROOT
BRANCH   1   2
ATOM      2  C   UNL     1       1.919   7.443  19.699  0.00  0.00    +0.000 A 
ATOM      3  C   UNL     1       2.648   7.504  18.503  0.00  0.00    +0.000 A 
ATOM      4  C   UNL     1       2.547   8.611  17.666  0.00  0.00    +0.000 A 
ATOM      5  C   UNL     1       1.696   9.663  18.017  0.00  0.00    +0.000 A 
ATOM      6  C   UNL     1       0.858   9.561  19.130  0.00  0.00    +0.000 A 
ATOM      7  C   UNL     1       1.003   8.467  19.995  0.00  0.00    +0.000 A 
BRANCH   6   8
ATOM      8  C   UNL     1      -0.133  10.631  19.479  0.00  0.00    +0.000 C 
ATOM      9  O   UNL     1       0.059  11.239  20.539  0.00  0.00    +0.000 OA
ATOM     10  N   UNL     1      -1.217  10.903  18.648  0.00  0.00    +0.000 N 
ATOM     11  C   UNL     1      -2.017  12.102  18.922  0.00  0.00    +0.000 C 
ATOM     12  C   UNL     1      -3.510  11.781  18.975  0.00  0.00    +0.000 C 
ATOM     13  C   UNL     1      -3.963  11.058  17.711  0.00  0.00    +0.000 C 
ATOM     14  C   UNL     1      -3.119   9.813  17.479  0.00  0.00    +0.000 C 
ATOM     15  C   UNL     1      -1.632  10.139  17.466  0.00  0.00    +0.000 C 
ENDBRANCH   6   8
ENDBRANCH   1   2
BRANCH   1  16
ATOM     16  O   UNL     1       1.720   5.065  20.141  0.00  0.00    +0.000 OA
BRANCH  16  18
ATOM     17  O   UNL     1       2.721   3.166  20.928  0.00  0.00    +0.000 OA
ATOM     18  C   UNL     1       2.627   4.062  20.102  0.00  0.00    +0.000 C 
BRANCH  18  19
ATOM     19  C   UNL     1       3.558   4.218  18.961  0.00  0.00    +0.000 A 
ATOM     20  C   UNL     1       4.826   4.608  19.221  0.00  0.00    +0.000 A 
ATOM     21  C   UNL     1       5.722   4.886  18.135  0.00  0.00    +0.000 A 
ATOM     22  C   UNL     1       5.254   5.015  16.888  0.00  0.00    +0.000 A 
ATOM     23  N   UNL     1       3.991   4.613  16.582  0.00  0.00    +0.000 N 
ATOM     24  C   UNL     1       3.163   4.020  17.522  0.00  0.00    +0.000 A 
ATOM     25  O   UNL     1       2.192   3.368  17.160  0.00  0.00    +0.000 OA
ATOM     26  C   UNL     1       6.345   5.216  15.898  0.00  0.00    +0.000 C 
ATOM     27  C   UNL     1       7.427   4.421  16.627  0.00  0.00    +0.000 C 
ATOM     28  C   UNL     1       7.213   4.784  18.113  0.00  0.00    +0.000 C 
ATOM     29  H   UNL     1       3.735   4.448  15.615  0.00  0.00    +0.000 HD
ENDBRANCH  18  19
ENDBRANCH  16  18
ENDBRANCH   1  16
TORSDOF 5
ENDMDL
MODEL 3
REMARK VINA RESULT:      -8.5      2.122      3.365
REMARK  Name = 
REMARK  5 active torsions:
REMARK  status: ('A' for Active; 'I' for Inactive)
REMARK    1  A    between atoms: C_2  and  O_3
REMARK    2  A    between atoms: C_2  and  C_19
REMARK    3  A    between atoms: O_3  and  C_4
REMARK    4  A    between atoms: C_4  and  C_5
REMARK    5  A    between atoms: C_9  and  C_10
REMARK                            x       y       z     vdW  Elec       q    Type
REMARK                         _______ _______ _______ _____ _____    ______ ____
ROOT
ATOM      1  C   UNL     1       2.255   4.932  20.449  0.00  0.00    +0.000 C 
ENDROOT
BRANCH   1   2
ATOM      2  C   UNL     1       2.054   6.289  19.826  0.00  0.00    +0.000 A 
ATOM      3  C   UNL     1       2.413   6.500  18.487  0.00  0.00    +0.000 A 
ATOM      4  C   UNL     1       2.382   7.778  17.937  0.00  0.00    +0.000 A 
ATOM      5  C   UNL     1       1.974   8.857  18.726  0.00  0.00    +0.000 A 
ATOM      6  C   UNL     1       1.482   8.650  20.018  0.00  0.00    +0.000 A 
ATOM      7  C   UNL     1       1.564   7.368  20.581  0.00  0.00    +0.000 A 
BRANCH   6   8
ATOM      8  C   UNL     1       0.949   9.774  20.854  0.00  0.00    +0.000 C 
ATOM      9  O   UNL     1       1.260   9.769  22.052  0.00  0.00    +0.000 OA
ATOM     10  N   UNL     1       0.136  10.758  20.299  0.00  0.00    +0.000 N 
ATOM     11  C   UNL     1      -0.166  11.946  21.105  0.00  0.00    +0.000 C 
ATOM     12  C   UNL     1      -1.666  12.235  21.141  0.00  0.00    +0.000 C 
ATOM     13  C   UNL     1      -2.241  12.331  19.731  0.00  0.00    +0.000 C 
ATOM     14  C   UNL     1      -1.921  11.071  18.940  0.00  0.00    +0.000 C 
ATOM     15  C   UNL     1      -0.428  10.771  18.944  0.00  0.00    +0.000 C 
ENDBRANCH   6   8
ENDBRANCH   1   2
BRANCH   1  16
ATOM     16  O   UNL     1       2.517   3.937  19.450  0.00  0.00    +0.000 OA
BRANCH  16  18
ATOM     17  O   UNL     1       3.991   2.449  20.368  0.00  0.00    +0.000 OA
ATOM     18  C   UNL     1       3.704   3.293  19.531  0.00  0.00    +0.000 C 
BRANCH  18  19
ATOM     19  C   UNL     1       4.660   3.789  18.515  0.00  0.00    +0.000 A 
ATOM     20  C   UNL     1       4.352   3.611  17.211  0.00  0.00    +0.000 A 
ATOM     21  C   UNL     1       5.306   3.970  16.200  0.00  0.00    +0.000 A 
ATOM     22  C   UNL     1       6.576   4.231  16.529  0.00  0.00    +0.000 A 
ATOM     23  N   UNL     1       6.920   4.439  17.829  0.00  0.00    +0.000 N 
ATOM     24  C   UNL     1       5.979   4.434  18.846  0.00  0.00    +0.000 A 
ATOM     25  O   UNL     1       6.239   4.950  19.925  0.00  0.00    +0.000 OA
ATOM     26  C   UNL     1       7.382   4.664  15.357  0.00  0.00    +0.000 C 
ATOM     27  C   UNL     1       6.253   5.331  14.573  0.00  0.00    +0.000 C 
ATOM     28  C   UNL     1       5.048   4.390  14.789  0.00  0.00    +0.000 C 
ATOM     29  H   UNL     1       7.794   4.903  18.051  0.00  0.00    +0.000 HD
ENDBRANCH  18  19
ENDBRANCH  16  18
ENDBRANCH   1  16
TORSDOF 5
ENDMDL
MODEL 4
REMARK VINA RESULT:      -8.5      2.885      4.140
REMARK  Name = 
REMARK  5 active torsions:
REMARK  status: ('A' for Active; 'I' for Inactive)
REMARK    1  A    between atoms: C_2  and  O_3
REMARK    2  A    between atoms: C_2  and  C_19
REMARK    3  A    between atoms: O_3  and  C_4
REMARK    4  A    between atoms: C_4  and  C_5
REMARK    5  A    between atoms: C_9  and  C_10
REMARK                            x       y       z     vdW  Elec       q    Type
REMARK                         _______ _______ _______ _____ _____    ______ ____
ROOT
ATOM      1  C   UNL     1       3.476   6.187  19.113  0.00  0.00    +0.000 C 
ENDROOT
BRANCH   1   2
ATOM      2  C   UNL     1       2.499   7.333  19.048  0.00  0.00    +0.000 A 
ATOM      3  C   UNL     1       2.456   8.145  17.905  0.00  0.00    +0.000 A 
ATOM      4  C   UNL     1       1.676   9.297  17.883  0.00  0.00    +0.000 A 
ATOM      5  C   UNL     1       0.918   9.637  19.008  0.00  0.00    +0.000 A 
ATOM      6  C   UNL     1       0.839   8.771  20.102  0.00  0.00    +0.000 A 
ATOM      7  C   UNL     1       1.666   7.639  20.137  0.00  0.00    +0.000 A 
BRANCH   6   8
ATOM      8  C   UNL     1      -0.039   9.062  21.282  0.00  0.00    +0.000 C 
ATOM      9  O   UNL     1      -0.720   8.121  21.710  0.00  0.00    +0.000 OA
ATOM     10  N   UNL     1      -0.085  10.334  21.845  0.00  0.00    +0.000 N 
ATOM     11  C   UNL     1      -0.782  10.501  23.126  0.00  0.00    +0.000 C 
ATOM     12  C   UNL     1      -1.782  11.654  23.075  0.00  0.00    +0.000 C 
ATOM     13  C   UNL     1      -1.114  12.943  22.607  0.00  0.00    +0.000 C 
ATOM     14  C   UNL     1      -0.423  12.727  21.269  0.00  0.00    +0.000 C 
ATOM     15  C   UNL     1       0.543  11.551  21.320  0.00  0.00    +0.000 C 
ENDBRANCH   6   8
ENDBRANCH   1   2
BRANCH   1  16
ATOM     16  O   UNL     1       3.702   5.624  17.815  0.00  0.00    +0.000 OA
BRANCH  16  18
ATOM     17  O   UNL     1       4.900   3.827  18.567  0.00  0.00    +0.000 OA
ATOM     18  C   UNL     1       4.666   4.679  17.722  0.00  0.00    +0.000 C 
BRANCH  18  19
ATOM     19  C   UNL     1       5.468   4.844  16.488  0.00  0.00    +0.000 A 
ATOM     20  C   UNL     1       5.347   3.908  15.520  0.00  0.00    +0.000 A 
ATOM     21  C   UNL     1       6.195   3.968  14.363  0.00  0.00    +0.000 A 
ATOM     22  C   UNL     1       7.264   4.772  14.349  0.00  0.00    +0.000 A 
ATOM     23  N   UNL     1       7.410   5.740  15.294  0.00  0.00    +0.000 N 
ATOM     24  C   UNL     1       6.451   5.962  16.269  0.00  0.00    +0.000 A 
ATOM     25  O   UNL     1       6.428   7.025  16.876  0.00  0.00    +0.000 OA
ATOM     26  C   UNL     1       7.962   4.754  13.035  0.00  0.00    +0.000 C 
ATOM     27  C   UNL     1       6.738   4.479  12.163  0.00  0.00    +0.000 C 
ATOM     28  C   UNL     1       5.922   3.458  12.985  0.00  0.00    +0.000 C 
ATOM     29  H   UNL     1       8.048   6.511  15.131  0.00  0.00    +0.000 HD
ENDBRANCH  18  19
ENDBRANCH  16  18
ENDBRANCH   1  16
TORSDOF 5
ENDMDL
MODEL 5
REMARK VINA RESULT:      -8.4      6.718      8.471
REMARK  Name = 
REMARK  5 active torsions:
REMARK  status: ('A' for Active; 'I' for Inactive)
REMARK    1  A    between atoms: C_2  and  O_3
REMARK    2  A    between atoms: C_2  and  C_19
REMARK    3  A    between atoms: O_3  and  C_4
REMARK    4  A    between atoms: C_4  and  C_5
REMARK    5  A    between atoms: C_9  and  C_10
REMARK                            x       y       z     vdW  Elec       q    Type
REMARK                         _______ _______ _______ _____ _____    ______ ____
ROOT
ATOM      1  C   UNL     1       7.899   9.507  17.538  0.00  0.00    +0.000 C 
ENDROOT
BRANCH   1   2
ATOM      2  C   UNL     1       8.883  10.320  18.338  0.00  0.00    +0.000 A 
ATOM      3  C   UNL     1       9.072  10.040  19.699  0.00  0.00    +0.000 A 
ATOM      4  C   UNL     1       9.856  10.872  20.492  0.00  0.00    +0.000 A 
ATOM      5  C   UNL     1      10.471  11.989  19.920  0.00  0.00    +0.000 A 
ATOM      6  C   UNL     1      10.409  12.208  18.541  0.00  0.00    +0.000 A 
ATOM      7  C   UNL     1       9.577  11.395  17.758  0.00  0.00    +0.000 A 
BRANCH   6   8
ATOM      8  C   UNL     1      11.136  13.343  17.884  0.00  0.00    +0.000 C 
ATOM      9  O   UNL     1      12.333  13.158  17.626  0.00  0.00    +0.000 OA
ATOM     10  N   UNL     1      10.488  14.542  17.600  0.00  0.00    +0.000 N 
ATOM     11  C   UNL     1      11.182  15.524  16.760  0.00  0.00    +0.000 C 
ATOM     12  C   UNL     1      11.179  16.912  17.397  0.00  0.00    +0.000 C 
ATOM     13  C   UNL     1       9.762  17.352  17.752  0.00  0.00    +0.000 C 
ATOM     14  C   UNL     1       9.090  16.313  18.639  0.00  0.00    +0.000 C 
ATOM     15  C   UNL     1       9.133  14.927  18.011  0.00  0.00    +0.000 C 
ENDBRANCH   6   8
ENDBRANCH   1   2
BRANCH   1  16
ATOM     16  O   UNL     1       7.617   8.256  18.179  0.00  0.00    +0.000 OA
BRANCH  16  18
ATOM     17  O   UNL     1       8.113   6.992  16.339  0.00  0.00    +0.000 OA
ATOM     18  C   UNL     1       7.489   7.176  17.374  0.00  0.00    +0.000 C 
BRANCH  18  19
ATOM     19  C   UNL     1       6.435   6.258  17.864  0.00  0.00    +0.000 A 
ATOM     20  C   UNL     1       5.164   6.717  17.912  0.00  0.00    +0.000 A 
ATOM     21  C   UNL     1       4.135   5.901  18.492  0.00  0.00    +0.000 A 
ATOM     22  C   UNL     1       4.454   4.818  19.209  0.00  0.00    +0.000 A 
ATOM     23  N   UNL     1       5.718   4.314  19.170  0.00  0.00    +0.000 N 
ATOM     24  C   UNL     1       6.700   4.863  18.362  0.00  0.00    +0.000 A 
ATOM     25  O   UNL     1       7.697   4.212  18.080  0.00  0.00    +0.000 OA
ATOM     26  C   UNL     1       3.251   4.063  19.651  0.00  0.00    +0.000 C 
ATOM     27  C   UNL     1       2.350   4.415  18.469  0.00  0.00    +0.000 C 
ATOM     28  C   UNL     1       2.672   5.899  18.188  0.00  0.00    +0.000 C 
ATOM     29  H   UNL     1       5.890   3.363  19.474  0.00  0.00    +0.000 HD
ENDBRANCH  18  19
ENDBRANCH  16  18
ENDBRANCH   1  16
TORSDOF 5
ENDMDL
MODEL 6
REMARK VINA RESULT:      -8.3      2.595      4.249
REMARK  Name = 
REMARK  5 active torsions:
REMARK  status: ('A' for Active; 'I' for Inactive)
REMARK    1  A    between atoms: C_2  and  O_3
REMARK    2  A    between atoms: C_2  and  C_19
REMARK    3  A    between atoms: O_3  and  C_4
REMARK    4  A    between atoms: C_4  and  C_5
REMARK    5  A    between atoms: C_9  and  C_10
REMARK                            x       y       z     vdW  Elec       q    Type
REMARK                         _______ _______ _______ _____ _____    ______ ____
ROOT
ATOM      1  C   UNL     1       1.382   3.336  17.891  0.00  0.00    +0.000 C 
ENDROOT
BRANCH   1   2
ATOM      2  C   UNL     1       1.708   4.531  18.750  0.00  0.00    +0.000 A 
ATOM      3  C   UNL     1       1.704   4.405  20.147  0.00  0.00    +0.000 A 
ATOM      4  C   UNL     1       1.848   5.524  20.961  0.00  0.00    +0.000 A 
ATOM      5  C   UNL     1       2.014   6.783  20.376  0.00  0.00    +0.000 A 
ATOM      6  C   UNL     1       2.160   6.913  18.992  0.00  0.00    +0.000 A 
ATOM      7  C   UNL     1       1.963   5.788  18.178  0.00  0.00    +0.000 A 
BRANCH   6   8
ATOM      8  C   UNL     1       2.433   8.236  18.344  0.00  0.00    +0.000 C 
ATOM      9  O   UNL     1       3.396   8.284  17.568  0.00  0.00    +0.000 OA
ATOM     10  N   UNL     1       1.644   9.348  18.623  0.00  0.00    +0.000 N 
ATOM     11  C   UNL     1       1.816  10.547  17.795  0.00  0.00    +0.000 C 
ATOM     12  C   UNL     1       2.001  11.799  18.649  0.00  0.00    +0.000 C 
ATOM     13  C   UNL     1       0.866  11.950  19.657  0.00  0.00    +0.000 C 
ATOM     14  C   UNL     1       0.739  10.693  20.506  0.00  0.00    +0.000 C 
ATOM     15  C   UNL     1       0.593   9.447  19.643  0.00  0.00    +0.000 C 
ENDBRANCH   6   8
ENDBRANCH   1   2
BRANCH   1  16
ATOM     16  O   UNL     1       2.470   3.017  17.014  0.00  0.00    +0.000 OA
BRANCH  16  18
ATOM     17  O   UNL     1       3.832   1.585  18.165  0.00  0.00    +0.000 OA
ATOM     18  C   UNL     1       3.634   2.649  17.597  0.00  0.00    +0.000 C 
BRANCH  18  19
ATOM     19  C   UNL     1       4.638   3.736  17.532  0.00  0.00    +0.000 A 
ATOM     20  C   UNL     1       5.184   4.170  18.689  0.00  0.00    +0.000 A 
ATOM     21  C   UNL     1       6.069   5.300  18.679  0.00  0.00    +0.000 A 
ATOM     22  C   UNL     1       6.158   6.080  17.596  0.00  0.00    +0.000 A 
ATOM     23  N   UNL     1       5.640   5.668  16.407  0.00  0.00    +0.000 N 
ATOM     24  C   UNL     1       5.049   4.424  16.257  0.00  0.00    +0.000 A 
ATOM     25  O   UNL     1       4.907   3.943  15.141  0.00  0.00    +0.000 OA
ATOM     26  C   UNL     1       7.187   7.142  17.752  0.00  0.00    +0.000 C 
ATOM     27  C   UNL     1       8.130   6.373  18.676  0.00  0.00    +0.000 C 
ATOM     28  C   UNL     1       7.178   5.619  19.630  0.00  0.00    +0.000 C 
ATOM     29  H   UNL     1       5.942   6.110  15.546  0.00  0.00    +0.000 HD
ENDBRANCH  18  19
ENDBRANCH  16  18
ENDBRANCH   1  16
TORSDOF 5
ENDMDL
MODEL 7
REMARK VINA RESULT:      -8.3      2.935      9.661
REMARK  Name = 
REMARK  5 active torsions:
REMARK  status: ('A' for Active; 'I' for Inactive)
REMARK    1  A    between atoms: C_2  and  O_3
REMARK    2  A    between atoms: C_2  and  C_19
REMARK    3  A    between atoms: O_3  and  C_4
REMARK    4  A    between atoms: C_4  and  C_5
REMARK    5  A    between atoms: C_9  and  C_10
REMARK                            x       y       z     vdW  Elec       q    Type
REMARK                         _______ _______ _______ _____ _____    ______ ____
ROOT
ATOM      1  C   UNL     1       0.393   8.515  21.413  0.00  0.00    +0.000 C 
ENDROOT
BRANCH   1   2
ATOM      2  C   UNL     1       1.187   8.523  20.133  0.00  0.00    +0.000 A 
ATOM      3  C   UNL     1       1.020   9.572  19.218  0.00  0.00    +0.000 A 
ATOM      4  C   UNL     1       1.623   9.523  17.965  0.00  0.00    +0.000 A 
ATOM      5  C   UNL     1       2.415   8.422  17.625  0.00  0.00    +0.000 A 
ATOM      6  C   UNL     1       2.706   7.434  18.570  0.00  0.00    +0.000 A 
ATOM      7  C   UNL     1       2.054   7.465  19.811  0.00  0.00    +0.000 A 
BRANCH   6   8
ATOM      8  C   UNL     1       3.627   6.291  18.266  0.00  0.00    +0.000 C 
ATOM      9  O   UNL     1       4.716   6.579  17.753  0.00  0.00    +0.000 OA
ATOM     10  N   UNL     1       3.255   4.978  18.537  0.00  0.00    +0.000 N 
ATOM     11  C   UNL     1       4.276   3.930  18.430  0.00  0.00    +0.000 C 
ATOM     12  C   UNL     1       3.794   2.759  17.576  0.00  0.00    +0.000 C 
ATOM     13  C   UNL     1       2.462   2.219  18.084  0.00  0.00    +0.000 C 
ATOM     14  C   UNL     1       1.429   3.335  18.160  0.00  0.00    +0.000 C 
ATOM     15  C   UNL     1       1.936   4.512  18.982  0.00  0.00    +0.000 C 
ENDBRANCH   6   8
ENDBRANCH   1   2
BRANCH   1  16
ATOM     16  O   UNL     1      -0.362   9.725  21.563  0.00  0.00    +0.000 OA
BRANCH  16  18
ATOM     17  O   UNL     1       0.256   9.880  23.760  0.00  0.00    +0.000 OA
ATOM     18  C   UNL     1      -0.300  10.334  22.770  0.00  0.00    +0.000 C 
BRANCH  18  19
ATOM     19  C   UNL     1      -1.061  11.604  22.774  0.00  0.00    +0.000 A 
ATOM     20  C   UNL     1      -2.291  11.609  23.334  0.00  0.00    +0.000 A 
ATOM     21  C   UNL     1      -3.106  12.787  23.250  0.00  0.00    +0.000 A 
ATOM     22  C   UNL     1      -2.779  13.779  22.415  0.00  0.00    +0.000 A 
ATOM     23  N   UNL     1      -1.542  13.821  21.848  0.00  0.00    +0.000 N 
ATOM     24  C   UNL     1      -0.569  12.879  22.143  0.00  0.00    +0.000 A 
ATOM     25  O   UNL     1       0.608  13.118  21.906  0.00  0.00    +0.000 OA
ATOM     26  C   UNL     1      -3.698  14.942  22.537  0.00  0.00    +0.000 C 
ATOM     27  C   UNL     1      -4.041  14.772  24.016  0.00  0.00    +0.000 C 
ATOM     28  C   UNL     1      -4.176  13.243  24.189  0.00  0.00    +0.000 C 
ATOM     29  H   UNL     1      -1.199  14.689  21.453  0.00  0.00    +0.000 HD
ENDBRANCH  18  19
ENDBRANCH  16  18
ENDBRANCH   1  16
TORSDOF 5
ENDMDL
MODEL 8
REMARK VINA RESULT:      -8.3      2.004      8.591
REMARK  Name = 
REMARK  5 active torsions:
REMARK  status: ('A' for Active; 'I' for Inactive)
REMARK    1  A    between atoms: C_2  and  O_3
REMARK    2  A    between atoms: C_2  and  C_19
REMARK    3  A    between atoms: O_3  and  C_4
REMARK    4  A    between atoms: C_4  and  C_5
REMARK    5  A    between atoms: C_9  and  C_10
REMARK                            x       y       z     vdW  Elec       q    Type
REMARK                         _______ _______ _______ _____ _____    ______ ____
ROOT
ATOM      1  C   UNL     1       1.347   6.269  20.685  0.00  0.00    +0.000 C 
ENDROOT
BRANCH   1   2
ATOM      2  C   UNL     1       2.264   5.131  20.319  0.00  0.00    +0.000 A 
ATOM      3  C   UNL     1       1.885   3.812  20.606  0.00  0.00    +0.000 A 
ATOM      4  C   UNL     1       2.778   2.761  20.421  0.00  0.00    +0.000 A 
ATOM      5  C   UNL     1       4.059   3.025  19.928  0.00  0.00    +0.000 A 
ATOM      6  C   UNL     1       4.410   4.311  19.506  0.00  0.00    +0.000 A 
ATOM      7  C   UNL     1       3.523   5.371  19.744  0.00  0.00    +0.000 A 
BRANCH   6   8
ATOM      8  C   UNL     1       5.742   4.607  18.886  0.00  0.00    +0.000 C 
ATOM      9  O   UNL     1       6.594   5.120  19.623  0.00  0.00    +0.000 OA
ATOM     10  N   UNL     1       5.987   4.328  17.545  0.00  0.00    +0.000 N 
ATOM     11  C   UNL     1       7.367   4.427  17.056  0.00  0.00    +0.000 C 
ATOM     12  C   UNL     1       7.455   5.275  15.788  0.00  0.00    +0.000 C 
ATOM     13  C   UNL     1       6.496   4.765  14.717  0.00  0.00    +0.000 C 
ATOM     14  C   UNL     1       5.077   4.697  15.262  0.00  0.00    +0.000 C 
ATOM     15  C   UNL     1       5.008   3.882  16.546  0.00  0.00    +0.000 C 
ENDBRANCH   6   8
ENDBRANCH   1   2
BRANCH   1  16
ATOM     16  O   UNL     1       2.000   7.534  20.525  0.00  0.00    +0.000 OA
BRANCH  16  18
ATOM     17  O   UNL     1       1.431   8.835  22.317  0.00  0.00    +0.000 OA
ATOM     18  C   UNL     1       1.415   8.600  21.118  0.00  0.00    +0.000 C 
BRANCH  18  19
ATOM     19  C   UNL     1       0.676   9.427  20.136  0.00  0.00    +0.000 A 
ATOM     20  C   UNL     1      -0.397  10.126  20.571  0.00  0.00    +0.000 A 
ATOM     21  C   UNL     1      -1.208  10.841  19.628  0.00  0.00    +0.000 A 
ATOM     22  C   UNL     1      -1.076  10.620  18.315  0.00  0.00    +0.000 A 
ATOM     23  N   UNL     1       0.001   9.940  17.837  0.00  0.00    +0.000 N 
ATOM     24  C   UNL     1       1.014   9.493  18.671  0.00  0.00    +0.000 A 
ATOM     25  O   UNL     1       2.108   9.201  18.205  0.00  0.00    +0.000 OA
ATOM     26  C   UNL     1      -1.943  11.517  17.505  0.00  0.00    +0.000 C 
ATOM     27  C   UNL     1      -1.944  12.710  18.459  0.00  0.00    +0.000 C 
ATOM     28  C   UNL     1      -2.039  12.062  19.858  0.00  0.00    +0.000 C 
ATOM     29  H   UNL     1       0.248  10.012  16.857  0.00  0.00    +0.000 HD
ENDBRANCH  18  19
ENDBRANCH  16  18
ENDBRANCH   1  16
TORSDOF 5
ENDMDL
MODEL 9
REMARK VINA RESULT:      -8.2      2.478      3.374
REMARK  Name = 
REMARK  5 active torsions:
REMARK  status: ('A' for Active; 'I' for Inactive)
REMARK    1  A    between atoms: C_2  and  O_3
REMARK    2  A    between atoms: C_2  and  C_19
REMARK    3  A    between atoms: O_3  and  C_4
REMARK    4  A    between atoms: C_4  and  C_5
REMARK    5  A    between atoms: C_9  and  C_10
REMARK                            x       y       z     vdW  Elec       q    Type
REMARK                         _______ _______ _______ _____ _____    ______ ____
ROOT
ATOM      1  C   UNL     1       3.509   6.408  17.733  0.00  0.00    +0.000 C 
ENDROOT
BRANCH   1   2
ATOM      2  C   UNL     1       2.689   6.907  18.894  0.00  0.00    +0.000 A 
ATOM      3  C   UNL     1       2.360   6.032  19.940  0.00  0.00    +0.000 A 
ATOM      4  C   UNL     1       1.478   6.425  20.942  0.00  0.00    +0.000 A 
ATOM      5  C   UNL     1       0.929   7.710  20.911  0.00  0.00    +0.000 A 
ATOM      6  C   UNL     1       1.349   8.642  19.958  0.00  0.00    +0.000 A 
ATOM      7  C   UNL     1       2.199   8.223  18.924  0.00  0.00    +0.000 A 
BRANCH   6   8
ATOM      8  C   UNL     1       0.851  10.056  19.956  0.00  0.00    +0.000 C 
ATOM      9  O   UNL     1       1.168  10.756  20.926  0.00  0.00    +0.000 OA
ATOM     10  N   UNL     1       0.059  10.536  18.917  0.00  0.00    +0.000 N 
ATOM     11  C   UNL     1      -0.208  11.977  18.856  0.00  0.00    +0.000 C 
ATOM     12  C   UNL     1      -1.700  12.266  18.697  0.00  0.00    +0.000 C 
ATOM     13  C   UNL     1      -2.281  11.519  17.502  0.00  0.00    +0.000 C 
ATOM     14  C   UNL     1      -1.998  10.028  17.618  0.00  0.00    +0.000 C 
ATOM     15  C   UNL     1      -0.513   9.754  17.814  0.00  0.00    +0.000 C 
ENDBRANCH   6   8
ENDBRANCH   1   2
BRANCH   1  16
ATOM     16  O   UNL     1       3.814   5.015  17.874  0.00  0.00    +0.000 OA
BRANCH  16  18
ATOM     17  O   UNL     1       5.730   4.351  18.933  0.00  0.00    +0.000 OA
ATOM     18  C   UNL     1       5.125   4.681  17.923  0.00  0.00    +0.000 C 
BRANCH  18  19
ATOM     19  C   UNL     1       5.772   4.836  16.600  0.00  0.00    +0.000 A 
ATOM     20  C   UNL     1       5.499   3.918  15.646  0.00  0.00    +0.000 A 
ATOM     21  C   UNL     1       6.198   3.965  14.393  0.00  0.00    +0.000 A 
ATOM     22  C   UNL     1       7.283   4.734  14.252  0.00  0.00    +0.000 A 
ATOM     23  N   UNL     1       7.579   5.684  15.180  0.00  0.00    +0.000 N 
ATOM     24  C   UNL     1       6.757   5.925  16.270  0.00  0.00    +0.000 A 
ATOM     25  O   UNL     1       6.847   6.980  16.884  0.00  0.00    +0.000 OA
ATOM     26  C   UNL     1       7.811   4.711  12.861  0.00  0.00    +0.000 C 
ATOM     27  C   UNL     1       6.479   4.487  12.147  0.00  0.00    +0.000 C 
ATOM     28  C   UNL     1       5.737   3.483  13.056  0.00  0.00    +0.000 C 
ATOM     29  H   UNL     1       8.217   6.436  14.945  0.00  0.00    +0.000 HD
ENDBRANCH  18  19
ENDBRANCH  16  18
ENDBRANCH   1  16
TORSDOF 5
ENDMDL
