MODEL 1
REMARK VINA RESULT:      -7.8      0.000      0.000
REMARK  Name = 
REMARK  5 active torsions:
REMARK  status: ('A' for Active; 'I' for Inactive)
REMARK    1  A    between atoms: C_1  and  C_2
REMARK    2  A    between atoms: C_4  and  C_5
REMARK    3  A    between atoms: C_8  and  S_9
REMARK    4  A    between atoms: S_9  and  N_12
REMARK    5  A    between atoms: C_15  and  N_16
REMARK                            x       y       z     vdW  Elec       q    Type
REMARK                         _______ _______ _______ _____ _____    ______ ____
ROOT
ATOM      1  S   UNL     1       6.738   5.445  16.587  0.00  0.00    +0.000 S 
ATOM      2  O   UNL     1       6.847   5.750  15.172  0.00  0.00    +0.000 OA
ATOM      3  O   UNL     1       7.407   4.293  17.136  0.00  0.00    +0.000 OA
ENDROOT
BRANCH   1   7
ATOM      4  C   UNL     1       8.622   9.074  18.726  0.00  0.00    +0.000 A 
ATOM      5  C   UNL     1       8.726   7.782  19.256  0.00  0.00    +0.000 A 
ATOM      6  C   UNL     1       8.102   6.686  18.642  0.00  0.00    +0.000 A 
ATOM      7  C   UNL     1       7.343   6.875  17.477  0.00  0.00    +0.000 A 
ATOM      8  C   UNL     1       7.243   8.153  16.926  0.00  0.00    +0.000 A 
ATOM      9  C   UNL     1       7.870   9.248  17.547  0.00  0.00    +0.000 A 
BRANCH   4  13
ATOM     10  C   UNL     1      11.712  12.813  19.723  0.00  0.00    +0.000 C 
ATOM     11  C   UNL     1      10.655  11.783  19.750  0.00  0.00    +0.000 A 
ATOM     12  N   UNL     1      10.302  10.923  18.815  0.00  0.00    +0.000 NA
ATOM     13  C   UNL     1       9.296  10.178  19.397  0.00  0.00    +0.000 A 
ATOM     14  C   UNL     1       9.082  10.640  20.676  0.00  0.00    +0.000 A 
ATOM     15  O   UNL     1       9.948  11.668  20.914  0.00  0.00    +0.000 OA
ENDBRANCH   4  13
ENDBRANCH   1   7
BRANCH   1  16
ATOM     16  N   UNL     1       5.076   5.309  16.974  0.00  0.00    +0.000 NA
ATOM     17  C   UNL     1       4.554   3.931  17.113  0.00  0.00    +0.000 C 
ATOM     18  C   UNL     1       3.036   3.900  17.260  0.00  0.00    +0.000 C 
ATOM     19  C   UNL     1       2.498   4.821  18.376  0.00  0.00    +0.000 C 
ATOM     20  C   UNL     1       3.041   6.228  18.061  0.00  0.00    +0.000 C 
ATOM     21  C   UNL     1       4.560   6.288  17.955  0.00  0.00    +0.000 C 
BRANCH  19  22
ATOM     22  N   UNL     1       2.806   4.333  19.742  0.00  0.00    +0.000 NA
ATOM     23  C   UNL     1       2.973   2.853  19.785  0.00  0.00    +0.000 C 
ATOM     24  C   UNL     1       1.983   2.343  20.770  0.00  0.00    +0.000 C 
ATOM     25  C   UNL     1       1.291   3.348  21.301  0.00  0.00    +0.000 C 
ATOM     26  C   UNL     1       1.736   4.644  20.727  0.00  0.00    +0.000 C 
ENDBRANCH  19  22
ENDBRANCH   1  16
TORSDOF 4
ENDMDL
MODEL 2
REMARK VINA RESULT:      -7.7      4.891      6.173
REMARK  Name = 
REMARK  5 active torsions:
REMARK  status: ('A' for Active; 'I' for Inactive)
REMARK    1  A    between atoms: C_1  and  C_2
REMARK    2  A    between atoms: C_4  and  C_5
REMARK    3  A    between atoms: C_8  and  S_9
REMARK    4  A    between atoms: S_9  and  N_12
REMARK    5  A    between atoms: C_15  and  N_16
REMARK                            x       y       z     vdW  Elec       q    Type
REMARK                         _______ _______ _______ _____ _____    ______ ____
ROOT
ATOM      1  S   UNL     1       4.625   5.809  17.720  0.00  0.00    +0.000 S 
ATOM      2  O   UNL     1       4.808   6.082  16.306  0.00  0.00    +0.000 OA
ATOM      3  O   UNL     1       5.720   5.980  18.641  0.00  0.00    +0.000 OA
ENDROOT
BRANCH   1   7
ATOM      4  C   UNL     1       1.450   8.748  19.324  0.00  0.00    +0.000 A 
ATOM      5  C   UNL     1       1.982   7.738  20.135  0.00  0.00    +0.000 A 
ATOM      6  C   UNL     1       2.901   6.804  19.633  0.00  0.00    +0.000 A 
ATOM      7  C   UNL     1       3.295   6.864  18.288  0.00  0.00    +0.000 A 
ATOM      8  C   UNL     1       2.788   7.874  17.471  0.00  0.00    +0.000 A 
ATOM      9  C   UNL     1       1.866   8.806  17.979  0.00  0.00    +0.000 A 
BRANCH   4  13
ATOM     10  C   UNL     1      -1.096  11.519  22.543  0.00  0.00    +0.000 C 
ATOM     11  C   UNL     1      -0.542  10.866  21.341  0.00  0.00    +0.000 A 
ATOM     12  N   UNL     1       0.453  10.008  21.240  0.00  0.00    +0.000 NA
ATOM     13  C   UNL     1       0.505   9.699  19.895  0.00  0.00    +0.000 A 
ATOM     14  C   UNL     1      -0.477  10.406  19.238  0.00  0.00    +0.000 A 
ATOM     15  O   UNL     1      -1.154  11.157  20.154  0.00  0.00    +0.000 OA
ENDBRANCH   4  13
ENDBRANCH   1   7
BRANCH   1  16
ATOM     16  N   UNL     1       4.062   4.200  17.881  0.00  0.00    +0.000 NA
ATOM     17  C   UNL     1       4.567   3.452  19.055  0.00  0.00    +0.000 C 
ATOM     18  C   UNL     1       4.177   1.978  19.012  0.00  0.00    +0.000 C 
ATOM     19  C   UNL     1       2.667   1.739  18.798  0.00  0.00    +0.000 C 
ATOM     20  C   UNL     1       2.297   2.495  17.508  0.00  0.00    +0.000 C 
ATOM     21  C   UNL     1       2.638   3.979  17.549  0.00  0.00    +0.000 C 
BRANCH  19  22
ATOM     22  N   UNL     1       1.842   2.094  19.979  0.00  0.00    +0.000 NA
ATOM     23  C   UNL     1       0.781   3.086  19.644  0.00  0.00    +0.000 C 
ATOM     24  C   UNL     1       0.996   4.255  20.536  0.00  0.00    +0.000 C 
ATOM     25  C   UNL     1       2.033   4.043  21.343  0.00  0.00    +0.000 C 
ATOM     26  C   UNL     1       2.631   2.709  21.079  0.00  0.00    +0.000 C 
ENDBRANCH  19  22
ENDBRANCH   1  16
TORSDOF 4
ENDMDL
MODEL 3
REMARK VINA RESULT:      -7.7      4.848      6.204
REMARK  Name = 
REMARK  5 active torsions:
REMARK  status: ('A' for Active; 'I' for Inactive)
REMARK    1  A    between atoms: C_1  and  C_2
REMARK    2  A    between atoms: C_4  and  C_5
REMARK    3  A    between atoms: C_8  and  S_9
REMARK    4  A    between atoms: S_9  and  N_12
REMARK    5  A    between atoms: C_15  and  N_16
REMARK                            x       y       z     vdW  Elec       q    Type
REMARK                         _______ _______ _______ _____ _____    ______ ____
ROOT
ATOM      1  S   UNL     1       4.724   5.810  17.806  0.00  0.00    +0.000 S 
ATOM      2  O   UNL     1       5.003   6.068  16.404  0.00  0.00    +0.000 OA
ATOM      3  O   UNL     1       5.755   5.988  18.797  0.00  0.00    +0.000 OA
ENDROOT
BRANCH   1   7
ATOM      4  C   UNL     1       1.457   8.775  19.156  0.00  0.00    +0.000 A 
ATOM      5  C   UNL     1       1.937   7.780  20.017  0.00  0.00    +0.000 A 
ATOM      6  C   UNL     1       2.885   6.839  19.590  0.00  0.00    +0.000 A 
ATOM      7  C   UNL     1       3.361   6.874  18.271  0.00  0.00    +0.000 A 
ATOM      8  C   UNL     1       2.906   7.868  17.406  0.00  0.00    +0.000 A 
ATOM      9  C   UNL     1       1.955   8.809  17.838  0.00  0.00    +0.000 A 
BRANCH   4  13
ATOM     10  C   UNL     1      -2.120  12.194  19.351  0.00  0.00    +0.000 C 
ATOM     11  C   UNL     1      -1.073  11.199  19.653  0.00  0.00    +0.000 A 
ATOM     12  N   UNL     1      -0.393  10.426  18.830  0.00  0.00    +0.000 NA
ATOM     13  C   UNL     1       0.478   9.735  19.650  0.00  0.00    +0.000 A 
ATOM     14  C   UNL     1       0.270  10.129  20.953  0.00  0.00    +0.000 A 
ATOM     15  O   UNL     1      -0.721  11.067  20.967  0.00  0.00    +0.000 OA
ENDBRANCH   4  13
ENDBRANCH   1   7
BRANCH   1  16
ATOM     16  N   UNL     1       4.146   4.204  17.945  0.00  0.00    +0.000 NA
ATOM     17  C   UNL     1       4.614   3.449  19.130  0.00  0.00    +0.000 C 
ATOM     18  C   UNL     1       4.216   1.978  19.070  0.00  0.00    +0.000 C 
ATOM     19  C   UNL     1       2.711   1.749  18.814  0.00  0.00    +0.000 C 
ATOM     20  C   UNL     1       2.381   2.512  17.517  0.00  0.00    +0.000 C 
ATOM     21  C   UNL     1       2.731   3.993  17.573  0.00  0.00    +0.000 C 
BRANCH  19  22
ATOM     22  N   UNL     1       1.856   2.105  19.973  0.00  0.00    +0.000 NA
ATOM     23  C   UNL     1       0.812   3.106  19.613  0.00  0.00    +0.000 C 
ATOM     24  C   UNL     1       1.011   4.270  20.516  0.00  0.00    +0.000 C 
ATOM     25  C   UNL     1       2.023   4.047  21.350  0.00  0.00    +0.000 C 
ATOM     26  C   UNL     1       2.619   2.710  21.097  0.00  0.00    +0.000 C 
ENDBRANCH  19  22
ENDBRANCH   1  16
TORSDOF 4
ENDMDL
MODEL 4
REMARK VINA RESULT:      -7.5      6.605      8.868
REMARK  Name = 
REMARK  5 active torsions:
REMARK  status: ('A' for Active; 'I' for Inactive)
REMARK    1  A    between atoms: C_1  and  C_2
REMARK    2  A    between atoms: C_4  and  C_5
REMARK    3  A    between atoms: C_8  and  S_9
REMARK    4  A    between atoms: S_9  and  N_12
REMARK    5  A    between atoms: C_15  and  N_16
REMARK                            x       y       z     vdW  Elec       q    Type
REMARK                         _______ _______ _______ _____ _____    ______ ____
ROOT
ATOM      1  S   UNL     1       0.390   9.491  20.931  0.00  0.00    +0.000 S 
ATOM      2  O   UNL     1      -0.570   8.566  21.507  0.00  0.00    +0.000 OA
ATOM      3  O   UNL     1       1.183  10.340  21.783  0.00  0.00    +0.000 OA
ENDROOT
BRANCH   1   7
ATOM      4  C   UNL     1       3.043   6.793  18.292  0.00  0.00    +0.000 A 
ATOM      5  C   UNL     1       2.674   6.407  19.586  0.00  0.00    +0.000 A 
ATOM      6  C   UNL     1       1.920   7.252  20.414  0.00  0.00    +0.000 A 
ATOM      7  C   UNL     1       1.530   8.518  19.953  0.00  0.00    +0.000 A 
ATOM      8  C   UNL     1       1.875   8.911  18.660  0.00  0.00    +0.000 A 
ATOM      9  C   UNL     1       2.632   8.061  17.835  0.00  0.00    +0.000 A 
BRANCH   4  13
ATOM     10  C   UNL     1       6.230   4.985  14.960  0.00  0.00    +0.000 C 
ATOM     11  C   UNL     1       5.221   5.174  16.020  0.00  0.00    +0.000 A 
ATOM     12  N   UNL     1       4.789   6.289  16.574  0.00  0.00    +0.000 NA
ATOM     13  C   UNL     1       3.821   5.876  17.468  0.00  0.00    +0.000 A 
ATOM     14  C   UNL     1       3.721   4.504  17.413  0.00  0.00    +0.000 A 
ATOM     15  O   UNL     1       4.613   4.043  16.488  0.00  0.00    +0.000 OA
ENDBRANCH   4  13
ENDBRANCH   1   7
BRANCH   1  16
ATOM     16  N   UNL     1      -0.444  10.502  19.828  0.00  0.00    +0.000 NA
ATOM     17  C   UNL     1      -1.162   9.811  18.733  0.00  0.00    +0.000 C 
ATOM     18  C   UNL     1      -1.705  10.787  17.693  0.00  0.00    +0.000 C 
ATOM     19  C   UNL     1      -2.553  11.929  18.292  0.00  0.00    +0.000 C 
ATOM     20  C   UNL     1      -1.661  12.611  19.346  0.00  0.00    +0.000 C 
ATOM     21  C   UNL     1      -1.146  11.661  20.420  0.00  0.00    +0.000 C 
BRANCH  19  22
ATOM     22  N   UNL     1      -3.872  11.478  18.800  0.00  0.00    +0.000 NA
ATOM     23  C   UNL     1      -4.775  11.035  17.701  0.00  0.00    +0.000 C 
ATOM     24  C   UNL     1      -6.002  11.869  17.797  0.00  0.00    +0.000 C 
ATOM     25  C   UNL     1      -5.913  12.715  18.821  0.00  0.00    +0.000 C 
ATOM     26  C   UNL     1      -4.615  12.545  19.522  0.00  0.00    +0.000 C 
ENDBRANCH  19  22
ENDBRANCH   1  16
TORSDOF 4
ENDMDL
MODEL 5
REMARK VINA RESULT:      -7.3      4.553      7.240
REMARK  Name = 
REMARK  5 active torsions:
REMARK  status: ('A' for Active; 'I' for Inactive)
REMARK    1  A    between atoms: C_1  and  C_2
REMARK    2  A    between atoms: C_4  and  C_5
REMARK    3  A    between atoms: C_8  and  S_9
REMARK    4  A    between atoms: S_9  and  N_12
REMARK    5  A    between atoms: C_15  and  N_16
REMARK                            x       y       z     vdW  Elec       q    Type
REMARK                         _______ _______ _______ _____ _____    ______ ____
ROOT
ATOM      1  S   UNL     1       2.922   5.410  18.837  0.00  0.00    +0.000 S 
ATOM      2  O   UNL     1       3.805   5.120  19.952  0.00  0.00    +0.000 OA
ATOM      3  O   UNL     1       1.770   4.581  18.586  0.00  0.00    +0.000 OA
ENDROOT
BRANCH   1   7
ATOM      4  C   UNL     1       1.048   9.596  19.341  0.00  0.00    +0.000 A 
ATOM      5  C   UNL     1       1.463   9.131  18.087  0.00  0.00    +0.000 A 
ATOM      6  C   UNL     1       2.089   7.885  17.939  0.00  0.00    +0.000 A 
ATOM      7  C   UNL     1       2.324   7.082  19.065  0.00  0.00    +0.000 A 
ATOM      8  C   UNL     1       1.901   7.522  20.319  0.00  0.00    +0.000 A 
ATOM      9  C   UNL     1       1.275   8.772  20.462  0.00  0.00    +0.000 A 
BRANCH   4  13
ATOM     10  C   UNL     1      -2.279  13.149  20.255  0.00  0.00    +0.000 C 
ATOM     11  C   UNL     1      -1.086  12.369  19.872  0.00  0.00    +0.000 A 
ATOM     12  N   UNL     1      -0.851  11.079  20.009  0.00  0.00    +0.000 NA
ATOM     13  C   UNL     1       0.394  10.895  19.441  0.00  0.00    +0.000 A 
ATOM     14  C   UNL     1       0.861  12.108  18.988  0.00  0.00    +0.000 A 
ATOM     15  O   UNL     1      -0.079  13.060  19.258  0.00  0.00    +0.000 OA
ENDBRANCH   4  13
ENDBRANCH   1   7
BRANCH   1  16
ATOM     16  N   UNL     1       3.863   5.431  17.407  0.00  0.00    +0.000 NA
ATOM     17  C   UNL     1       4.494   6.726  17.065  0.00  0.00    +0.000 C 
ATOM     18  C   UNL     1       5.142   6.706  15.684  0.00  0.00    +0.000 C 
ATOM     19  C   UNL     1       6.119   5.530  15.471  0.00  0.00    +0.000 C 
ATOM     20  C   UNL     1       5.315   4.252  15.774  0.00  0.00    +0.000 C 
ATOM     21  C   UNL     1       4.697   4.233  17.166  0.00  0.00    +0.000 C 
BRANCH  19  22
ATOM     22  N   UNL     1       7.379   5.663  16.243  0.00  0.00    +0.000 NA
ATOM     23  C   UNL     1       7.545   4.567  17.238  0.00  0.00    +0.000 C 
ATOM     24  C   UNL     1       7.686   5.217  18.568  0.00  0.00    +0.000 C 
ATOM     25  C   UNL     1       7.637   6.541  18.448  0.00  0.00    +0.000 C 
ATOM     26  C   UNL     1       7.453   6.927  17.025  0.00  0.00    +0.000 C 
ENDBRANCH  19  22
ENDBRANCH   1  16
TORSDOF 4
ENDMDL
MODEL 6
REMARK VINA RESULT:      -7.2      4.649      6.240
REMARK  Name = 
REMARK  5 active torsions:
REMARK  status: ('A' for Active; 'I' for Inactive)
REMARK    1  A    between atoms: C_1  and  C_2
REMARK    2  A    between atoms: C_4  and  C_5
REMARK    3  A    between atoms: C_8  and  S_9
REMARK    4  A    between atoms: S_9  and  N_12
REMARK    5  A    between atoms: C_15  and  N_16
REMARK                            x       y       z     vdW  Elec       q    Type
REMARK                         _______ _______ _______ _____ _____    ______ ____
ROOT
ATOM      1  S   UNL     1       5.044   5.555  18.063  0.00  0.00    +0.000 S 
ATOM      2  O   UNL     1       5.511   5.827  16.716  0.00  0.00    +0.000 OA
ATOM      3  O   UNL     1       5.975   5.521  19.163  0.00  0.00    +0.000 OA
ENDROOT
BRANCH   1   7
ATOM      4  C   UNL     1       1.640   8.554  18.901  0.00  0.00    +0.000 A 
ATOM      5  C   UNL     1       2.342   8.571  17.690  0.00  0.00    +0.000 A 
ATOM      6  C   UNL     1       3.418   7.702  17.456  0.00  0.00    +0.000 A 
ATOM      7  C   UNL     1       3.819   6.800  18.453  0.00  0.00    +0.000 A 
ATOM      8  C   UNL     1       3.118   6.758  19.659  0.00  0.00    +0.000 A 
ATOM      9  C   UNL     1       2.041   7.632  19.888  0.00  0.00    +0.000 A 
BRANCH   4  13
ATOM     10  C   UNL     1      -2.068  11.722  18.041  0.00  0.00    +0.000 C 
ATOM     11  C   UNL     1      -1.064  10.822  18.642  0.00  0.00    +0.000 A 
ATOM     12  N   UNL     1      -0.175  10.050  18.051  0.00  0.00    +0.000 NA
ATOM     13  C   UNL     1       0.523   9.471  19.092  0.00  0.00    +0.000 A 
ATOM     14  C   UNL     1       0.004   9.927  20.283  0.00  0.00    +0.000 A 
ATOM     15  O   UNL     1      -1.014  10.793  20.007  0.00  0.00    +0.000 OA
ENDBRANCH   4  13
ENDBRANCH   1   7
BRANCH   1  16
ATOM     16  N   UNL     1       4.215   4.057  18.044  0.00  0.00    +0.000 NA
ATOM     17  C   UNL     1       4.566   3.109  19.126  0.00  0.00    +0.000 C 
ATOM     18  C   UNL     1       3.933   1.736  18.918  0.00  0.00    +0.000 C 
ATOM     19  C   UNL     1       2.408   1.782  18.682  0.00  0.00    +0.000 C 
ATOM     20  C   UNL     1       2.193   2.728  17.485  0.00  0.00    +0.000 C 
ATOM     21  C   UNL     1       2.780   4.119  17.692  0.00  0.00    +0.000 C 
BRANCH  19  22
ATOM     22  N   UNL     1       1.635   2.139  19.896  0.00  0.00    +0.000 NA
ATOM     23  C   UNL     1       0.701   3.275  19.653  0.00  0.00    +0.000 C 
ATOM     24  C   UNL     1       1.059   4.335  20.632  0.00  0.00    +0.000 C 
ATOM     25  C   UNL     1       2.064   3.936  21.407  0.00  0.00    +0.000 C 
ATOM     26  C   UNL     1       2.496   2.565  21.032  0.00  0.00    +0.000 C 
ENDBRANCH  19  22
ENDBRANCH   1  16
TORSDOF 4
ENDMDL
MODEL 7
REMARK VINA RESULT:      -7.2      6.956      9.347
REMARK  Name = 
REMARK  5 active torsions:
REMARK  status: ('A' for Active; 'I' for Inactive)
REMARK    1  A    between atoms: C_1  and  C_2
REMARK    2  A    between atoms: C_4  and  C_5
REMARK    3  A    between atoms: C_8  and  S_9
REMARK    4  A    between atoms: S_9  and  N_12
REMARK    5  A    between atoms: C_15  and  N_16
REMARK                            x       y       z     vdW  Elec       q    Type
REMARK                         _______ _______ _______ _____ _____    ______ ____
ROOT
ATOM      1  S   UNL     1       0.195  10.965  19.433  0.00  0.00    +0.000 S 
ATOM      2  O   UNL     1      -0.332  10.944  20.786  0.00  0.00    +0.000 OA
ATOM      3  O   UNL     1       0.966  12.091  18.970  0.00  0.00    +0.000 OA
ENDROOT
BRANCH   1   7
ATOM      4  C   UNL     1       2.553   7.031  18.931  0.00  0.00    +0.000 A 
ATOM      5  C   UNL     1       2.057   7.427  20.180  0.00  0.00    +0.000 A 
ATOM      6  C   UNL     1       1.394   8.652  20.348  0.00  0.00    +0.000 A 
ATOM      7  C   UNL     1       1.228   9.514  19.254  0.00  0.00    +0.000 A 
ATOM      8  C   UNL     1       1.701   9.126  18.000  0.00  0.00    +0.000 A 
ATOM      9  C   UNL     1       2.365   7.899  17.837  0.00  0.00    +0.000 A 
BRANCH   4  13
ATOM     10  C   UNL     1       4.000   2.362  19.727  0.00  0.00    +0.000 C 
ATOM     11  C   UNL     1       3.793   3.728  19.208  0.00  0.00    +0.000 A 
ATOM     12  N   UNL     1       2.963   4.663  19.623  0.00  0.00    +0.000 NA
ATOM     13  C   UNL     1       3.228   5.745  18.807  0.00  0.00    +0.000 A 
ATOM     14  C   UNL     1       4.219   5.399  17.916  0.00  0.00    +0.000 A 
ATOM     15  O   UNL     1       4.590   4.108  18.164  0.00  0.00    +0.000 OA
ENDBRANCH   4  13
ENDBRANCH   1   7
BRANCH   1  16
ATOM     16  N   UNL     1      -1.114  10.756  18.350  0.00  0.00    +0.000 NA
ATOM     17  C   UNL     1      -2.202   9.866  18.815  0.00  0.00    +0.000 C 
ATOM     18  C   UNL     1      -3.223   9.581  17.717  0.00  0.00    +0.000 C 
ATOM     19  C   UNL     1      -3.783  10.851  17.041  0.00  0.00    +0.000 C 
ATOM     20  C   UNL     1      -2.558  11.634  16.532  0.00  0.00    +0.000 C 
ATOM     21  C   UNL     1      -1.549  11.968  17.623  0.00  0.00    +0.000 C 
BRANCH  19  22
ATOM     22  N   UNL     1      -4.694  11.630  17.915  0.00  0.00    +0.000 NA
ATOM     23  C   UNL     1      -5.611  10.752  18.695  0.00  0.00    +0.000 C 
ATOM     24  C   UNL     1      -6.995  11.174  18.354  0.00  0.00    +0.000 C 
ATOM     25  C   UNL     1      -6.975  12.188  17.493  0.00  0.00    +0.000 C 
ATOM     26  C   UNL     1      -5.576  12.558  17.158  0.00  0.00    +0.000 C 
ENDBRANCH  19  22
ENDBRANCH   1  16
TORSDOF 4
ENDMDL
MODEL 8
REMARK VINA RESULT:      -7.2      4.907      7.244
REMARK  Name = 
REMARK  5 active torsions:
REMARK  status: ('A' for Active; 'I' for Inactive)
REMARK    1  A    between atoms: C_1  and  C_2
REMARK    2  A    between atoms: C_4  and  C_5
REMARK    3  A    between atoms: C_8  and  S_9
REMARK    4  A    between atoms: S_9  and  N_12
REMARK    5  A    between atoms: C_15  and  N_16
REMARK                            x       y       z     vdW  Elec       q    Type
REMARK                         _______ _______ _______ _____ _____    ______ ____
ROOT
ATOM      1  S   UNL     1       2.912   5.833  18.956  0.00  0.00    +0.000 S 
ATOM      2  O   UNL     1       2.837   5.180  20.251  0.00  0.00    +0.000 OA
ATOM      3  O   UNL     1       2.261   5.251  17.810  0.00  0.00    +0.000 OA
ENDROOT
BRANCH   1   7
ATOM      4  C   UNL     1       0.858   9.944  19.363  0.00  0.00    +0.000 A 
ATOM      5  C   UNL     1       1.413   9.526  18.147  0.00  0.00    +0.000 A 
ATOM      6  C   UNL     1       2.093   8.303  18.035  0.00  0.00    +0.000 A 
ATOM      7  C   UNL     1       2.238   7.478  19.161  0.00  0.00    +0.000 A 
ATOM      8  C   UNL     1       1.676   7.873  20.375  0.00  0.00    +0.000 A 
ATOM      9  C   UNL     1       0.997   9.099  20.481  0.00  0.00    +0.000 A 
BRANCH   4  13
ATOM     10  C   UNL     1      -0.310  14.724  18.802  0.00  0.00    +0.000 C 
ATOM     11  C   UNL     1      -0.283  13.286  19.135  0.00  0.00    +0.000 A 
ATOM     12  N   UNL     1       0.609  12.371  18.813  0.00  0.00    +0.000 NA
ATOM     13  C   UNL     1       0.154  11.219  19.425  0.00  0.00    +0.000 A 
ATOM     14  C   UNL     1      -1.017  11.501  20.091  0.00  0.00    +0.000 A 
ATOM     15  O   UNL     1      -1.307  12.823  19.913  0.00  0.00    +0.000 OA
ENDBRANCH   4  13
ENDBRANCH   1   7
BRANCH   1  16
ATOM     16  N   UNL     1       4.565   6.038  18.561  0.00  0.00    +0.000 NA
ATOM     17  C   UNL     1       5.483   4.984  19.048  0.00  0.00    +0.000 C 
ATOM     18  C   UNL     1       6.948   5.346  18.825  0.00  0.00    +0.000 C 
ATOM     19  C   UNL     1       7.276   5.752  17.373  0.00  0.00    +0.000 C 
ATOM     20  C   UNL     1       6.315   6.906  17.028  0.00  0.00    +0.000 C 
ATOM     21  C   UNL     1       4.844   6.549  17.201  0.00  0.00    +0.000 C 
BRANCH  19  22
ATOM     22  N   UNL     1       7.240   4.615  16.421  0.00  0.00    +0.000 NA
ATOM     23  C   UNL     1       7.427   5.058  15.011  0.00  0.00    +0.000 C 
ATOM     24  C   UNL     1       6.234   4.591  14.257  0.00  0.00    +0.000 C 
ATOM     25  C   UNL     1       5.405   3.927  15.059  0.00  0.00    +0.000 C 
ATOM     26  C   UNL     1       5.948   3.879  16.440  0.00  0.00    +0.000 C 
ENDBRANCH  19  22
ENDBRANCH   1  16
TORSDOF 4
ENDMDL
MODEL 9
REMARK VINA RESULT:      -7.1      6.719      9.065
REMARK  Name = 
REMARK  5 active torsions:
REMARK  status: ('A' for Active; 'I' for Inactive)
REMARK    1  A    between atoms: C_1  and  C_2
REMARK    2  A    between atoms: C_4  and  C_5
REMARK    3  A    between atoms: C_8  and  S_9
REMARK    4  A    between atoms: S_9  and  N_12
REMARK    5  A    between atoms: C_15  and  N_16
REMARK                            x       y       z     vdW  Elec       q    Type
REMARK                         _______ _______ _______ _____ _____    ______ ____
ROOT
ATOM      1  S   UNL     1       0.564   9.312  21.442  0.00  0.00    +0.000 S 
ATOM      2  O   UNL     1      -0.494   8.563  22.096  0.00  0.00    +0.000 OA
ATOM      3  O   UNL     1       1.618   9.914  22.220  0.00  0.00    +0.000 OA
ENDROOT
BRANCH   1   7
ATOM      4  C   UNL     1       2.896   6.572  18.554  0.00  0.00    +0.000 A 
ATOM      5  C   UNL     1       2.607   7.901  18.221  0.00  0.00    +0.000 A 
ATOM      6  C   UNL     1       1.845   8.719  19.069  0.00  0.00    +0.000 A 
ATOM      7  C   UNL     1       1.344   8.203  20.274  0.00  0.00    +0.000 A 
ATOM      8  C   UNL     1       1.638   6.886  20.628  0.00  0.00    +0.000 A 
ATOM      9  C   UNL     1       2.401   6.071  19.774  0.00  0.00    +0.000 A 
BRANCH   4  13
ATOM     10  C   UNL     1       6.094   5.206  15.028  0.00  0.00    +0.000 C 
ATOM     11  C   UNL     1       5.100   5.256  16.117  0.00  0.00    +0.000 A 
ATOM     12  N   UNL     1       4.628   6.299  16.771  0.00  0.00    +0.000 NA
ATOM     13  C   UNL     1       3.699   5.766  17.642  0.00  0.00    +0.000 A 
ATOM     14  C   UNL     1       3.662   4.400  17.473  0.00  0.00    +0.000 A 
ATOM     15  O   UNL     1       4.555   4.062  16.498  0.00  0.00    +0.000 OA
ENDBRANCH   4  13
ENDBRANCH   1   7
BRANCH   1  16
ATOM     16  N   UNL     1      -0.162  10.553  20.511  0.00  0.00    +0.000 NA
ATOM     17  C   UNL     1      -1.105  10.106  19.461  0.00  0.00    +0.000 C 
ATOM     18  C   UNL     1      -1.548  11.253  18.558  0.00  0.00    +0.000 C 
ATOM     19  C   UNL     1      -2.095  12.476  19.325  0.00  0.00    +0.000 C 
ATOM     20  C   UNL     1      -0.987  12.886  20.314  0.00  0.00    +0.000 C 
ATOM     21  C   UNL     1      -0.564  11.766  21.255  0.00  0.00    +0.000 C 
BRANCH  19  22
ATOM     22  N   UNL     1      -3.420  12.236  19.948  0.00  0.00    +0.000 NA
ATOM     23  C   UNL     1      -4.468  11.927  18.935  0.00  0.00    +0.000 C 
ATOM     24  C   UNL     1      -5.542  12.939  19.114  0.00  0.00    +0.000 C 
ATOM     25  C   UNL     1      -5.241  13.769  20.109  0.00  0.00    +0.000 C 
ATOM     26  C   UNL     1      -3.929  13.409  20.706  0.00  0.00    +0.000 C 
ENDBRANCH  19  22
ENDBRANCH   1  16
TORSDOF 4
ENDMDL
