MODEL 1
REMARK VINA RESULT:      -8.7      0.000      0.000
REMARK  Name = 
REMARK  6 active torsions:
REMARK  status: ('A' for Active; 'I' for Inactive)
REMARK    1  A    between atoms: C_1  and  C_2
REMARK    2  A    between atoms: C_2  and  S_3
REMARK    3  A    between atoms: C_2  and  C_10
REMARK    4  A    between atoms: S_3  and  C_4
REMARK    5  A    between atoms: N_8  and  C_9
REMARK    6  A    between atoms: C_14  and  C_15
REMARK                            x       y       z     vdW  Elec       q    Type
REMARK                         _______ _______ _______ _____ _____    ______ ____
ROOT
ATOM      1  C   UNL     1       2.378   6.864  19.508  0.00  0.00    +0.000 A 
ATOM      2  C   UNL     1       2.373   7.216  18.144  0.00  0.00    +0.000 A 
ATOM      3  C   UNL     1       1.930   8.472  17.712  0.00  0.00    +0.000 A 
ATOM      4  C   UNL     1       1.439   9.399  18.630  0.00  0.00    +0.000 A 
ATOM      5  C   UNL     1       1.381   9.084  19.990  0.00  0.00    +0.000 A 
ATOM      6  C   UNL     1       1.863   7.822  20.408  0.00  0.00    +0.000 A 
ENDROOT
BRANCH   5   7
ATOM      7  C   UNL     1       0.711  10.003  20.947  0.00  0.00    +0.000 C 
ATOM      8  C   UNL     1       0.261   9.560  22.139  0.00  0.00    +0.000 C 
ATOM      9  C   UNL     1      -0.631  10.227  23.150  0.00  0.00    +0.000 C 
ATOM     10  C   UNL     1      -1.370  11.493  22.786  0.00  0.00    +0.000 A 
ATOM     11  C   UNL     1      -2.639  11.731  23.346  0.00  0.00    +0.000 A 
ATOM     12  C   UNL     1      -3.316  12.928  23.109  0.00  0.00    +0.000 A 
ATOM     13  C   UNL     1      -2.728  13.911  22.319  0.00  0.00    +0.000 A 
ATOM     14  C   UNL     1      -1.464  13.697  21.771  0.00  0.00    +0.000 A 
ATOM     15  C   UNL     1      -0.777  12.497  22.008  0.00  0.00    +0.000 A 
ATOM     16  N   UNL     1       0.477  12.252  21.398  0.00  0.00    +0.000 N 
ATOM     17  O   UNL     1       0.483  11.260  20.410  0.00  0.00    +0.000 OA
ATOM     18  H   UNL     1       0.848  13.112  21.002  0.00  0.00    +0.000 HD
ENDBRANCH   5   7
BRANCH   1  20
ATOM     19  C   UNL     1       1.765   4.693  20.643  0.00  0.00    +0.000 C 
ATOM     20  C   UNL     1       2.889   5.466  19.933  0.00  0.00    +0.000 C 
BRANCH  20  21
ATOM     21  S   UNL     1       3.555   4.458  18.538  0.00  0.00    +0.000 S 
BRANCH  21  22
ATOM     22  C   UNL     1       5.262   4.726  18.558  0.00  0.00    +0.000 A 
ATOM     23  N   UNL     1       6.005   5.112  19.569  0.00  0.00    +0.000 NA
ATOM     24  N   UNL     1       7.318   5.095  19.160  0.00  0.00    +0.000 NA
ATOM     25  C   UNL     1       7.338   4.721  17.900  0.00  0.00    +0.000 A 
ATOM     26  N   UNL     1       6.064   4.509  17.467  0.00  0.00    +0.000 N 
ATOM     27  C   UNL     1       5.701   4.160  16.121  0.00  0.00    +0.000 C 
ENDBRANCH  21  22
ENDBRANCH  20  21
ENDBRANCH   1  20
TORSDOF 4
ENDMDL
MODEL 2
REMARK VINA RESULT:      -8.6      3.127      9.438
REMARK  Name = 
REMARK  6 active torsions:
REMARK  status: ('A' for Active; 'I' for Inactive)
REMARK    1  A    between atoms: C_1  and  C_2
REMARK    2  A    between atoms: C_2  and  S_3
REMARK    3  A    between atoms: C_2  and  C_10
REMARK    4  A    between atoms: S_3  and  C_4
REMARK    5  A    between atoms: N_8  and  C_9
REMARK    6  A    between atoms: C_14  and  C_15
REMARK                            x       y       z     vdW  Elec       q    Type
REMARK                         _______ _______ _______ _____ _____    ______ ____
ROOT
ATOM      1  C   UNL     1       0.118  10.050  20.863  0.00  0.00    +0.000 A 
ATOM      2  C   UNL     1       0.239  11.106  19.939  0.00  0.00    +0.000 A 
ATOM      3  C   UNL     1       0.942  10.953  18.738  0.00  0.00    +0.000 A 
ATOM      4  C   UNL     1       1.581   9.749  18.445  0.00  0.00    +0.000 A 
ATOM      5  C   UNL     1       1.530   8.684  19.349  0.00  0.00    +0.000 A 
ATOM      6  C   UNL     1       0.788   8.850  20.541  0.00  0.00    +0.000 A 
ENDROOT
BRANCH   5   7
ATOM      7  C   UNL     1       2.341   7.460  19.116  0.00  0.00    +0.000 C 
ATOM      8  C   UNL     1       3.081   7.318  17.998  0.00  0.00    +0.000 C 
ATOM      9  C   UNL     1       3.782   6.108  17.444  0.00  0.00    +0.000 C 
ATOM     10  C   UNL     1       3.504   4.742  18.026  0.00  0.00    +0.000 A 
ATOM     11  C   UNL     1       3.543   3.616  17.181  0.00  0.00    +0.000 A 
ATOM     12  C   UNL     1       3.383   2.329  17.693  0.00  0.00    +0.000 A 
ATOM     13  C   UNL     1       3.195   2.145  19.059  0.00  0.00    +0.000 A 
ATOM     14  C   UNL     1       3.171   3.250  19.911  0.00  0.00    +0.000 A 
ATOM     15  C   UNL     1       3.334   4.547  19.403  0.00  0.00    +0.000 A 
ATOM     16  N   UNL     1       3.244   5.671  20.257  0.00  0.00    +0.000 N 
ATOM     17  O   UNL     1       2.117   6.481  20.071  0.00  0.00    +0.000 OA
ATOM     18  H   UNL     1       3.279   5.376  21.230  0.00  0.00    +0.000 HD
ENDBRANCH   5   7
BRANCH   1  20
ATOM     19  C   UNL     1       0.024   9.558  23.338  0.00  0.00    +0.000 C 
ATOM     20  C   UNL     1      -0.679  10.271  22.171  0.00  0.00    +0.000 C 
BRANCH  20  21
ATOM     21  S   UNL     1      -0.946  12.047  22.594  0.00  0.00    +0.000 S 
BRANCH  21  22
ATOM     22  C   UNL     1      -2.660  12.239  22.694  0.00  0.00    +0.000 A 
ATOM     23  N   UNL     1      -3.434  12.040  23.736  0.00  0.00    +0.000 NA
ATOM     24  N   UNL     1      -4.712  12.412  23.391  0.00  0.00    +0.000 NA
ATOM     25  C   UNL     1      -4.688  12.807  22.138  0.00  0.00    +0.000 A 
ATOM     26  N   UNL     1      -3.423  12.684  21.646  0.00  0.00    +0.000 N 
ATOM     27  C   UNL     1      -3.041  12.956  20.288  0.00  0.00    +0.000 C 
ENDBRANCH  21  22
ENDBRANCH  20  21
ENDBRANCH   1  20
TORSDOF 4
ENDMDL
MODEL 3
REMARK VINA RESULT:      -8.5      2.721      4.561
REMARK  Name = 
REMARK  6 active torsions:
REMARK  status: ('A' for Active; 'I' for Inactive)
REMARK    1  A    between atoms: C_1  and  C_2
REMARK    2  A    between atoms: C_2  and  S_3
REMARK    3  A    between atoms: C_2  and  C_10
REMARK    4  A    between atoms: S_3  and  C_4
REMARK    5  A    between atoms: N_8  and  C_9
REMARK    6  A    between atoms: C_14  and  C_15
REMARK                            x       y       z     vdW  Elec       q    Type
REMARK                         _______ _______ _______ _____ _____    ______ ____
ROOT
ATOM      1  C   UNL     1       4.985   5.231  18.014  0.00  0.00    +0.000 A 
ATOM      2  C   UNL     1       4.747   4.240  18.986  0.00  0.00    +0.000 A 
ATOM      3  C   UNL     1       3.659   4.319  19.863  0.00  0.00    +0.000 A 
ATOM      4  C   UNL     1       2.799   5.415  19.821  0.00  0.00    +0.000 A 
ATOM      5  C   UNL     1       3.015   6.448  18.904  0.00  0.00    +0.000 A 
ATOM      6  C   UNL     1       4.101   6.332  18.007  0.00  0.00    +0.000 A 
ENDROOT
BRANCH   5   7
ATOM      7  C   UNL     1       2.200   7.689  18.964  0.00  0.00    +0.000 C 
ATOM      8  C   UNL     1       1.988   8.437  17.861  0.00  0.00    +0.000 C 
ATOM      9  C   UNL     1       1.409   9.818  17.720  0.00  0.00    +0.000 C 
ATOM     10  C   UNL     1       1.202  10.679  18.945  0.00  0.00    +0.000 A 
ATOM     11  C   UNL     1       1.349  12.074  18.834  0.00  0.00    +0.000 A 
ATOM     12  C   UNL     1       1.078  12.912  19.916  0.00  0.00    +0.000 A 
ATOM     13  C   UNL     1       0.641  12.370  21.120  0.00  0.00    +0.000 A 
ATOM     14  C   UNL     1       0.474  10.990  21.239  0.00  0.00    +0.000 A 
ATOM     15  C   UNL     1       0.742  10.142  20.155  0.00  0.00    +0.000 A 
ATOM     16  N   UNL     1       0.636   8.738  20.295  0.00  0.00    +0.000 N 
ATOM     17  O   UNL     1       1.846   8.035  20.259  0.00  0.00    +0.000 OA
ATOM     18  H   UNL     1       0.149   8.507  21.158  0.00  0.00    +0.000 HD
ENDBRANCH   5   7
BRANCH   1  20
ATOM     19  C   UNL     1       7.428   4.616  17.851  0.00  0.00    +0.000 C 
ATOM     20  C   UNL     1       6.197   5.090  17.062  0.00  0.00    +0.000 C 
BRANCH  20  21
ATOM     21  S   UNL     1       5.898   3.961  15.633  0.00  0.00    +0.000 S 
BRANCH  21  22
ATOM     22  C   UNL     1       6.824   4.620  14.331  0.00  0.00    +0.000 A 
ATOM     23  N   UNL     1       7.767   5.531  14.394  0.00  0.00    +0.000 NA
ATOM     24  N   UNL     1       8.300   5.676  13.134  0.00  0.00    +0.000 NA
ATOM     25  C   UNL     1       7.649   4.864  12.330  0.00  0.00    +0.000 A 
ATOM     26  N   UNL     1       6.687   4.202  13.033  0.00  0.00    +0.000 N 
ATOM     27  C   UNL     1       5.738   3.287  12.462  0.00  0.00    +0.000 C 
ENDBRANCH  21  22
ENDBRANCH  20  21
ENDBRANCH   1  20
TORSDOF 4
ENDMDL
MODEL 4
REMARK VINA RESULT:      -8.4      2.477      4.231
REMARK  Name = 
REMARK  6 active torsions:
REMARK  status: ('A' for Active; 'I' for Inactive)
REMARK    1  A    between atoms: C_1  and  C_2
REMARK    2  A    between atoms: C_2  and  S_3
REMARK    3  A    between atoms: C_2  and  C_10
REMARK    4  A    between atoms: S_3  and  C_4
REMARK    5  A    between atoms: N_8  and  C_9
REMARK    6  A    between atoms: C_14  and  C_15
REMARK                            x       y       z     vdW  Elec       q    Type
REMARK                         _______ _______ _______ _____ _____    ______ ____
ROOT
ATOM      1  C   UNL     1       4.290   4.313  16.730  0.00  0.00    +0.000 A 
ATOM      2  C   UNL     1       3.470   3.194  16.975  0.00  0.00    +0.000 A 
ATOM      3  C   UNL     1       2.255   3.311  17.661  0.00  0.00    +0.000 A 
ATOM      4  C   UNL     1       1.844   4.546  18.159  0.00  0.00    +0.000 A 
ATOM      5  C   UNL     1       2.641   5.680  17.981  0.00  0.00    +0.000 A 
ATOM      6  C   UNL     1       3.848   5.545  17.258  0.00  0.00    +0.000 A 
ENDROOT
BRANCH   5   7
ATOM      7  C   UNL     1       2.286   6.961  18.648  0.00  0.00    +0.000 C 
ATOM      8  C   UNL     1       2.155   7.035  19.988  0.00  0.00    +0.000 C 
ATOM      9  C   UNL     1       1.591   8.131  20.850  0.00  0.00    +0.000 C 
ATOM     10  C   UNL     1       0.829   9.273  20.218  0.00  0.00    +0.000 A 
ATOM     11  C   UNL     1      -0.234   9.863  20.926  0.00  0.00    +0.000 A 
ATOM     12  C   UNL     1      -0.904  10.976  20.420  0.00  0.00    +0.000 A 
ATOM     13  C   UNL     1      -0.512  11.527  19.204  0.00  0.00    +0.000 A 
ATOM     14  C   UNL     1       0.551  10.963  18.498  0.00  0.00    +0.000 A 
ATOM     15  C   UNL     1       1.231   9.844  19.003  0.00  0.00    +0.000 A 
ATOM     16  N   UNL     1       2.266   9.233  18.256  0.00  0.00    +0.000 N 
ATOM     17  O   UNL     1       1.970   7.964  17.744  0.00  0.00    +0.000 OA
ATOM     18  H   UNL     1       2.550   9.838  17.489  0.00  0.00    +0.000 HD
ENDBRANCH   5   7
BRANCH   1  20
ATOM     19  C   UNL     1       5.325   3.752  14.496  0.00  0.00    +0.000 C 
ATOM     20  C   UNL     1       5.618   4.129  15.958  0.00  0.00    +0.000 C 
BRANCH  20  21
ATOM     21  S   UNL     1       6.725   5.606  16.012  0.00  0.00    +0.000 S 
BRANCH  21  22
ATOM     22  C   UNL     1       7.322   5.667  17.633  0.00  0.00    +0.000 A 
ATOM     23  N   UNL     1       7.437   4.676  18.487  0.00  0.00    +0.000 NA
ATOM     24  N   UNL     1       8.053   5.161  19.617  0.00  0.00    +0.000 NA
ATOM     25  C   UNL     1       8.275   6.443  19.431  0.00  0.00    +0.000 A 
ATOM     26  N   UNL     1       7.802   6.815  18.208  0.00  0.00    +0.000 N 
ATOM     27  C   UNL     1       7.809   8.158  17.699  0.00  0.00    +0.000 C 
ENDBRANCH  21  22
ENDBRANCH  20  21
ENDBRANCH   1  20
TORSDOF 4
ENDMDL
MODEL 5
REMARK VINA RESULT:      -8.4      3.848      9.131
REMARK  Name = 
REMARK  6 active torsions:
REMARK  status: ('A' for Active; 'I' for Inactive)
REMARK    1  A    between atoms: C_1  and  C_2
REMARK    2  A    between atoms: C_2  and  S_3
REMARK    3  A    between atoms: C_2  and  C_10
REMARK    4  A    between atoms: S_3  and  C_4
REMARK    5  A    between atoms: N_8  and  C_9
REMARK    6  A    between atoms: C_14  and  C_15
REMARK                            x       y       z     vdW  Elec       q    Type
REMARK                         _______ _______ _______ _____ _____    ______ ____
ROOT
ATOM      1  C   UNL     1      -0.131  10.666  20.223  0.00  0.00    +0.000 A 
ATOM      2  C   UNL     1      -0.307  10.773  21.616  0.00  0.00    +0.000 A 
ATOM      3  C   UNL     1       0.279   9.860  22.502  0.00  0.00    +0.000 A 
ATOM      4  C   UNL     1       1.025   8.787  22.016  0.00  0.00    +0.000 A 
ATOM      5  C   UNL     1       1.194   8.610  20.640  0.00  0.00    +0.000 A 
ATOM      6  C   UNL     1       0.621   9.561  19.765  0.00  0.00    +0.000 A 
ENDROOT
BRANCH   5   7
ATOM      7  C   UNL     1       1.849   7.384  20.115  0.00  0.00    +0.000 C 
ATOM      8  C   UNL     1       2.443   7.376  18.904  0.00  0.00    +0.000 C 
ATOM      9  C   UNL     1       2.955   6.227  18.080  0.00  0.00    +0.000 C 
ATOM     10  C   UNL     1       2.609   4.807  18.466  0.00  0.00    +0.000 A 
ATOM     11  C   UNL     1       2.442   3.843  17.455  0.00  0.00    +0.000 A 
ATOM     12  C   UNL     1       2.212   2.504  17.770  0.00  0.00    +0.000 A 
ATOM     13  C   UNL     1       2.160   2.105  19.102  0.00  0.00    +0.000 A 
ATOM     14  C   UNL     1       2.340   3.047  20.115  0.00  0.00    +0.000 A 
ATOM     15  C   UNL     1       2.574   4.395  19.805  0.00  0.00    +0.000 A 
ATOM     16  N   UNL     1       2.691   5.360  20.832  0.00  0.00    +0.000 N 
ATOM     17  O   UNL     1       1.636   6.277  20.921  0.00  0.00    +0.000 OA
ATOM     18  H   UNL     1       2.804   4.902  21.733  0.00  0.00    +0.000 HD
ENDBRANCH   5   7
BRANCH   1  20
ATOM     19  C   UNL     1       0.224  12.803  18.927  0.00  0.00    +0.000 C 
ATOM     20  C   UNL     1      -0.792  11.708  19.289  0.00  0.00    +0.000 C 
BRANCH  20  21
ATOM     21  S   UNL     1      -1.507  10.985  17.749  0.00  0.00    +0.000 S 
BRANCH  21  22
ATOM     22  C   UNL     1      -3.177  11.429  17.770  0.00  0.00    +0.000 A 
ATOM     23  N   UNL     1      -3.871  11.902  18.779  0.00  0.00    +0.000 NA
ATOM     24  N   UNL     1      -5.130  12.212  18.318  0.00  0.00    +0.000 NA
ATOM     25  C   UNL     1      -5.175  11.897  17.043  0.00  0.00    +0.000 A 
ATOM     26  N   UNL     1      -3.978  11.369  16.660  0.00  0.00    +0.000 N 
ATOM     27  C   UNL     1      -3.692  10.848  15.352  0.00  0.00    +0.000 C 
ENDBRANCH  21  22
ENDBRANCH  20  21
ENDBRANCH   1  20
TORSDOF 4
ENDMDL
MODEL 6
REMARK VINA RESULT:      -8.4      2.736      4.186
REMARK  Name = 
REMARK  6 active torsions:
REMARK  status: ('A' for Active; 'I' for Inactive)
REMARK    1  A    between atoms: C_1  and  C_2
REMARK    2  A    between atoms: C_2  and  S_3
REMARK    3  A    between atoms: C_2  and  C_10
REMARK    4  A    between atoms: S_3  and  C_4
REMARK    5  A    between atoms: N_8  and  C_9
REMARK    6  A    between atoms: C_14  and  C_15
REMARK                            x       y       z     vdW  Elec       q    Type
REMARK                         _______ _______ _______ _____ _____    ______ ____
ROOT
ATOM      1  C   UNL     1       4.456   5.170  17.431  0.00  0.00    +0.000 A 
ATOM      2  C   UNL     1       3.666   4.021  17.632  0.00  0.00    +0.000 A 
ATOM      3  C   UNL     1       2.373   4.103  18.163  0.00  0.00    +0.000 A 
ATOM      4  C   UNL     1       1.848   5.335  18.548  0.00  0.00    +0.000 A 
ATOM      5  C   UNL     1       2.607   6.501  18.412  0.00  0.00    +0.000 A 
ATOM      6  C   UNL     1       3.897   6.399  17.844  0.00  0.00    +0.000 A 
ENDROOT
BRANCH   5   7
ATOM      7  C   UNL     1       2.115   7.788  18.969  0.00  0.00    +0.000 C 
ATOM      8  C   UNL     1       1.844   7.920  20.284  0.00  0.00    +0.000 C 
ATOM      9  C   UNL     1       1.136   9.020  21.025  0.00  0.00    +0.000 C 
ATOM     10  C   UNL     1       0.378  10.080  20.259  0.00  0.00    +0.000 A 
ATOM     11  C   UNL     1      -0.783  10.637  20.827  0.00  0.00    +0.000 A 
ATOM     12  C   UNL     1      -1.460  11.681  20.196  0.00  0.00    +0.000 A 
ATOM     13  C   UNL     1      -0.979  12.195  18.996  0.00  0.00    +0.000 A 
ATOM     14  C   UNL     1       0.181  11.664  18.430  0.00  0.00    +0.000 A 
ATOM     15  C   UNL     1       0.868  10.615  19.060  0.00  0.00    +0.000 A 
ATOM     16  N   UNL     1       2.006  10.033  18.453  0.00  0.00    +0.000 N 
ATOM     17  O   UNL     1       1.836   8.724  17.985  0.00  0.00    +0.000 OA
ATOM     18  H   UNL     1       2.331  10.616  17.686  0.00  0.00    +0.000 HD
ENDBRANCH   5   7
BRANCH   1  20
ATOM     19  C   UNL     1       6.880   4.681  17.943  0.00  0.00    +0.000 C 
ATOM     20  C   UNL     1       5.875   5.024  16.831  0.00  0.00    +0.000 C 
BRANCH  20  21
ATOM     21  S   UNL     1       5.990   3.773  15.479  0.00  0.00    +0.000 S 
BRANCH  21  22
ATOM     22  C   UNL     1       6.877   4.550  14.215  0.00  0.00    +0.000 A 
ATOM     23  N   UNL     1       7.766   5.509  14.327  0.00  0.00    +0.000 NA
ATOM     24  N   UNL     1       8.289   5.749  13.077  0.00  0.00    +0.000 NA
ATOM     25  C   UNL     1       7.687   4.943  12.232  0.00  0.00    +0.000 A 
ATOM     26  N   UNL     1       6.765   4.191  12.897  0.00  0.00    +0.000 N 
ATOM     27  C   UNL     1       5.870   3.254  12.277  0.00  0.00    +0.000 C 
ENDBRANCH  21  22
ENDBRANCH  20  21
ENDBRANCH   1  20
TORSDOF 4
ENDMDL
MODEL 7
REMARK VINA RESULT:      -8.2      1.165      1.657
REMARK  Name = 
REMARK  6 active torsions:
REMARK  status: ('A' for Active; 'I' for Inactive)
REMARK    1  A    between atoms: C_1  and  C_2
REMARK    2  A    between atoms: C_2  and  S_3
REMARK    3  A    between atoms: C_2  and  C_10
REMARK    4  A    between atoms: S_3  and  C_4
REMARK    5  A    between atoms: N_8  and  C_9
REMARK    6  A    between atoms: C_14  and  C_15
REMARK                            x       y       z     vdW  Elec       q    Type
REMARK                         _______ _______ _______ _____ _____    ______ ____
ROOT
ATOM      1  C   UNL     1       2.764   6.687  19.341  0.00  0.00    +0.000 A 
ATOM      2  C   UNL     1       3.245   6.978  18.050  0.00  0.00    +0.000 A 
ATOM      3  C   UNL     1       2.895   8.160  17.386  0.00  0.00    +0.000 A 
ATOM      4  C   UNL     1       2.020   9.068  17.980  0.00  0.00    +0.000 A 
ATOM      5  C   UNL     1       1.480   8.807  19.242  0.00  0.00    +0.000 A 
ATOM      6  C   UNL     1       1.871   7.623  19.907  0.00  0.00    +0.000 A 
ENDROOT
BRANCH   5   7
ATOM      7  C   UNL     1       0.426   9.690  19.807  0.00  0.00    +0.000 C 
ATOM      8  C   UNL     1      -0.509  10.253  19.014  0.00  0.00    +0.000 C 
ATOM      9  C   UNL     1      -1.508  11.337  19.309  0.00  0.00    +0.000 C 
ATOM     10  C   UNL     1      -1.396  12.142  20.582  0.00  0.00    +0.000 A 
ATOM     11  C   UNL     1      -1.790  13.493  20.576  0.00  0.00    +0.000 A 
ATOM     12  C   UNL     1      -1.788  14.247  21.750  0.00  0.00    +0.000 A 
ATOM     13  C   UNL     1      -1.406  13.658  22.951  0.00  0.00    +0.000 A 
ATOM     14  C   UNL     1      -1.029  12.315  22.976  0.00  0.00    +0.000 A 
ATOM     15  C   UNL     1      -1.031  11.551  21.799  0.00  0.00    +0.000 A 
ATOM     16  N   UNL     1      -0.587  10.207  21.813  0.00  0.00    +0.000 N 
ATOM     17  O   UNL     1       0.624   9.967  21.150  0.00  0.00    +0.000 OA
ATOM     18  H   UNL     1      -0.508   9.873  22.770  0.00  0.00    +0.000 HD
ENDBRANCH   5   7
BRANCH   1  20
ATOM     19  C   UNL     1       1.987   4.753  20.767  0.00  0.00    +0.000 C 
ATOM     20  C   UNL     1       3.190   5.370  20.034  0.00  0.00    +0.000 C 
BRANCH  20  21
ATOM     21  S   UNL     1       3.927   4.126  18.887  0.00  0.00    +0.000 S 
BRANCH  21  22
ATOM     22  C   UNL     1       5.585   4.585  18.723  0.00  0.00    +0.000 A 
ATOM     23  N   UNL     1       6.393   5.033  19.656  0.00  0.00    +0.000 NA
ATOM     24  N   UNL     1       7.644   5.173  19.101  0.00  0.00    +0.000 NA
ATOM     25  C   UNL     1       7.559   4.828  17.836  0.00  0.00    +0.000 A 
ATOM     26  N   UNL     1       6.274   4.482  17.543  0.00  0.00    +0.000 N 
ATOM     27  C   UNL     1       5.799   4.121  16.236  0.00  0.00    +0.000 C 
ENDBRANCH  21  22
ENDBRANCH  20  21
ENDBRANCH   1  20
TORSDOF 4
ENDMDL
MODEL 8
REMARK VINA RESULT:      -8.2      1.563      1.770
REMARK  Name = 
REMARK  6 active torsions:
REMARK  status: ('A' for Active; 'I' for Inactive)
REMARK    1  A    between atoms: C_1  and  C_2
REMARK    2  A    between atoms: C_2  and  S_3
REMARK    3  A    between atoms: C_2  and  C_10
REMARK    4  A    between atoms: S_3  and  C_4
REMARK    5  A    between atoms: N_8  and  C_9
REMARK    6  A    between atoms: C_14  and  C_15
REMARK                            x       y       z     vdW  Elec       q    Type
REMARK                         _______ _______ _______ _____ _____    ______ ____
ROOT
ATOM      1  C   UNL     1       2.231   7.425  19.453  0.00  0.00    +0.000 A 
ATOM      2  C   UNL     1       2.170   7.834  18.106  0.00  0.00    +0.000 A 
ATOM      3  C   UNL     1       1.649   9.081  17.741  0.00  0.00    +0.000 A 
ATOM      4  C   UNL     1       1.135   9.940  18.711  0.00  0.00    +0.000 A 
ATOM      5  C   UNL     1       1.131   9.564  20.057  0.00  0.00    +0.000 A 
ATOM      6  C   UNL     1       1.691   8.314  20.406  0.00  0.00    +0.000 A 
ENDROOT
BRANCH   5   7
ATOM      7  C   UNL     1       0.439  10.404  21.070  0.00  0.00    +0.000 C 
ATOM      8  C   UNL     1      -0.070   9.861  22.195  0.00  0.00    +0.000 C 
ATOM      9  C   UNL     1      -0.990  10.450  23.228  0.00  0.00    +0.000 C 
ATOM     10  C   UNL     1      -1.688  11.762  22.957  0.00  0.00    +0.000 A 
ATOM     11  C   UNL     1      -2.975  11.976  23.486  0.00  0.00    +0.000 A 
ATOM     12  C   UNL     1      -3.617  13.205  23.337  0.00  0.00    +0.000 A 
ATOM     13  C   UNL     1      -2.977  14.245  22.670  0.00  0.00    +0.000 A 
ATOM     14  C   UNL     1      -1.695  14.053  22.155  0.00  0.00    +0.000 A 
ATOM     15  C   UNL     1      -1.043  12.821  22.303  0.00  0.00    +0.000 A 
ATOM     16  N   UNL     1       0.230  12.606  21.725  0.00  0.00    +0.000 N 
ATOM     17  O   UNL     1       0.259  11.712  20.647  0.00  0.00    +0.000 OA
ATOM     18  H   UNL     1       0.635  13.490  21.428  0.00  0.00    +0.000 HD
ENDBRANCH   5   7
BRANCH   1  20
ATOM     19  C   UNL     1       1.716   5.108  20.315  0.00  0.00    +0.000 C 
ATOM     20  C   UNL     1       2.826   6.040  19.802  0.00  0.00    +0.000 C 
BRANCH  20  21
ATOM     21  S   UNL     1       3.720   5.235  18.402  0.00  0.00    +0.000 S 
BRANCH  21  22
ATOM     22  C   UNL     1       4.126   3.654  18.971  0.00  0.00    +0.000 A 
ATOM     23  N   UNL     1       5.073   3.321  19.817  0.00  0.00    +0.000 NA
ATOM     24  N   UNL     1       4.968   1.971  20.059  0.00  0.00    +0.000 NA
ATOM     25  C   UNL     1       3.973   1.512  19.334  0.00  0.00    +0.000 A 
ATOM     26  N   UNL     1       3.432   2.530  18.606  0.00  0.00    +0.000 N 
ATOM     27  C   UNL     1       2.372   2.380  17.647  0.00  0.00    +0.000 C 
ENDBRANCH  21  22
ENDBRANCH  20  21
ENDBRANCH   1  20
TORSDOF 4
ENDMDL
MODEL 9
REMARK VINA RESULT:      -8.2      3.423      8.524
REMARK  Name = 
REMARK  6 active torsions:
REMARK  status: ('A' for Active; 'I' for Inactive)
REMARK    1  A    between atoms: C_1  and  C_2
REMARK    2  A    between atoms: C_2  and  S_3
REMARK    3  A    between atoms: C_2  and  C_10
REMARK    4  A    between atoms: S_3  and  C_4
REMARK    5  A    between atoms: N_8  and  C_9
REMARK    6  A    between atoms: C_14  and  C_15
REMARK                            x       y       z     vdW  Elec       q    Type
REMARK                         _______ _______ _______ _____ _____    ______ ____
ROOT
ATOM      1  C   UNL     1       0.058  10.810  20.127  0.00  0.00    +0.000 A 
ATOM      2  C   UNL     1      -0.346  10.850  21.476  0.00  0.00    +0.000 A 
ATOM      3  C   UNL     1       0.019   9.847  22.382  0.00  0.00    +0.000 A 
ATOM      4  C   UNL     1       0.765   8.750  21.954  0.00  0.00    +0.000 A 
ATOM      5  C   UNL     1       1.154   8.639  20.616  0.00  0.00    +0.000 A 
ATOM      6  C   UNL     1       0.802   9.679  19.726  0.00  0.00    +0.000 A 
ENDROOT
BRANCH   5   7
ATOM      7  C   UNL     1       1.807   7.398  20.123  0.00  0.00    +0.000 C 
ATOM      8  C   UNL     1       2.452   7.373  18.939  0.00  0.00    +0.000 C 
ATOM      9  C   UNL     1       2.975   6.210  18.141  0.00  0.00    +0.000 C 
ATOM     10  C   UNL     1       2.586   4.800  18.518  0.00  0.00    +0.000 A 
ATOM     11  C   UNL     1       2.444   3.834  17.504  0.00  0.00    +0.000 A 
ATOM     12  C   UNL     1       2.175   2.501  17.815  0.00  0.00    +0.000 A 
ATOM     13  C   UNL     1       2.060   2.109  19.145  0.00  0.00    +0.000 A 
ATOM     14  C   UNL     1       2.214   3.052  20.162  0.00  0.00    +0.000 A 
ATOM     15  C   UNL     1       2.487   4.394  19.856  0.00  0.00    +0.000 A 
ATOM     16  N   UNL     1       2.579   5.362  20.884  0.00  0.00    +0.000 N 
ATOM     17  O   UNL     1       1.539   6.299  20.924  0.00  0.00    +0.000 OA
ATOM     18  H   UNL     1       2.645   4.906  21.791  0.00  0.00    +0.000 HD
ENDBRANCH   5   7
BRANCH   1  20
ATOM     19  C   UNL     1      -1.705  11.601  18.501  0.00  0.00    +0.000 C 
ATOM     20  C   UNL     1      -0.365  11.950  19.171  0.00  0.00    +0.000 C 
BRANCH  20  21
ATOM     21  S   UNL     1      -0.485  13.603  19.984  0.00  0.00    +0.000 S 
BRANCH  21  22
ATOM     22  C   UNL     1       1.088  13.906  20.632  0.00  0.00    +0.000 A 
ATOM     23  N   UNL     1       1.428  14.036  21.894  0.00  0.00    +0.000 NA
ATOM     24  N   UNL     1       2.797  14.164  21.951  0.00  0.00    +0.000 NA
ATOM     25  C   UNL     1       3.253  14.132  20.719  0.00  0.00    +0.000 A 
ATOM     26  N   UNL     1       2.210  14.003  19.851  0.00  0.00    +0.000 N 
ATOM     27  C   UNL     1       2.330  14.006  18.419  0.00  0.00    +0.000 C 
ENDBRANCH  21  22
ENDBRANCH  20  21
ENDBRANCH   1  20
TORSDOF 4
ENDMDL
