MODEL 1
REMARK VINA RESULT:      -8.4      0.000      0.000
REMARK  Name = 
REMARK  4 active torsions:
REMARK  status: ('A' for Active; 'I' for Inactive)
REMARK    1  A    between atoms: C_1  and  C_2
REMARK    2  A    between atoms: C_4  and  C_5
REMARK    3  A    between atoms: N_7  and  C_8
REMARK    4  A    between atoms: C_10  and  C_11
REMARK                            x       y       z     vdW  Elec       q    Type
REMARK                         _______ _______ _______ _____ _____    ______ ____
ROOT
ATOM      1  C   UNL     1       2.365   7.252  18.810  0.00  0.00    +0.000 C 
ATOM      2  O   UNL     1       2.372   8.188  18.019  0.00  0.00    +0.000 OA
ATOM      3  N   UNL     1       2.138   7.435  20.166  0.00  0.00    +0.000 N 
ATOM      4  H   UNL     1       2.045   6.624  20.767  0.00  0.00    +0.000 HD
ENDROOT
BRANCH   1   8
ATOM      5  C   UNL     1       1.143   2.378  18.717  0.00  0.00    +0.000 C 
ATOM      6  C   UNL     1       1.999   3.539  18.311  0.00  0.00    +0.000 A 
ATOM      7  C   UNL     1       1.724   4.835  18.715  0.00  0.00    +0.000 A 
ATOM      8  C   UNL     1       2.602   5.854  18.322  0.00  0.00    +0.000 A 
ATOM      9  C   UNL     1       3.746   5.550  17.527  0.00  0.00    +0.000 A 
ATOM     10  C   UNL     1       4.720   6.475  17.062  0.00  0.00    +0.000 A 
ATOM     11  C   UNL     1       5.811   6.075  16.290  0.00  0.00    +0.000 A 
ATOM     12  C   UNL     1       5.952   4.742  15.950  0.00  0.00    +0.000 A 
ATOM     13  C   UNL     1       5.001   3.821  16.391  0.00  0.00    +0.000 A 
ATOM     14  C   UNL     1       3.914   4.195  17.167  0.00  0.00    +0.000 A 
ATOM     15  N   UNL     1       3.064   3.229  17.543  0.00  0.00    +0.000 NA
ENDBRANCH   1   8
BRANCH   3  16
ATOM     16  C   UNL     1       1.648   8.688  20.683  0.00  0.00    +0.000 C 
ATOM     17  C   UNL     1       1.125   8.863  22.081  0.00  0.00    +0.000 C 
ATOM     18  C   UNL     1       0.161   8.879  20.928  0.00  0.00    +0.000 C 
BRANCH  18  19
ATOM     19  C   UNL     1      -0.523  10.147  20.471  0.00  0.00    +0.000 A 
ATOM     20  C   UNL     1      -0.726  11.220  21.359  0.00  0.00    +0.000 A 
ATOM     21  C   UNL     1      -1.248  12.446  20.931  0.00  0.00    +0.000 A 
ATOM     22  C   UNL     1      -1.579  12.626  19.592  0.00  0.00    +0.000 A 
ATOM     23  C   UNL     1      -1.408  11.572  18.704  0.00  0.00    +0.000 A 
ATOM     24  F   UNL     1      -1.716  11.745  17.413  0.00  0.00    +0.000 F 
ATOM     25  C   UNL     1      -0.892  10.347  19.130  0.00  0.00    +0.000 A 
ENDBRANCH  18  19
ENDBRANCH   3  16
TORSDOF 3
ENDMDL
MODEL 2
REMARK VINA RESULT:      -8.3      1.149      1.245
REMARK  Name = 
REMARK  4 active torsions:
REMARK  status: ('A' for Active; 'I' for Inactive)
REMARK    1  A    between atoms: C_1  and  C_2
REMARK    2  A    between atoms: C_4  and  C_5
REMARK    3  A    between atoms: N_7  and  C_8
REMARK    4  A    between atoms: C_10  and  C_11
REMARK                            x       y       z     vdW  Elec       q    Type
REMARK                         _______ _______ _______ _____ _____    ______ ____
ROOT
ATOM      1  C   UNL     1       2.045   7.454  19.947  0.00  0.00    +0.000 C 
ATOM      2  O   UNL     1       2.069   8.262  19.026  0.00  0.00    +0.000 OA
ATOM      3  N   UNL     1       1.773   7.833  21.254  0.00  0.00    +0.000 N 
ATOM      4  H   UNL     1       1.669   7.119  21.965  0.00  0.00    +0.000 HD
ENDROOT
BRANCH   1   8
ATOM      5  C   UNL     1       1.534   2.607  21.176  0.00  0.00    +0.000 C 
ATOM      6  C   UNL     1       2.057   3.707  20.302  0.00  0.00    +0.000 A 
ATOM      7  C   UNL     1       1.743   5.037  20.523  0.00  0.00    +0.000 A 
ATOM      8  C   UNL     1       2.311   6.003  19.680  0.00  0.00    +0.000 A 
ATOM      9  C   UNL     1       3.187   5.610  18.626  0.00  0.00    +0.000 A 
ATOM     10  C   UNL     1       3.836   6.474  17.702  0.00  0.00    +0.000 A 
ATOM     11  C   UNL     1       4.683   5.990  16.705  0.00  0.00    +0.000 A 
ATOM     12  C   UNL     1       4.895   4.627  16.594  0.00  0.00    +0.000 A 
ATOM     13  C   UNL     1       4.260   3.764  17.487  0.00  0.00    +0.000 A 
ATOM     14  C   UNL     1       3.421   4.224  18.492  0.00  0.00    +0.000 A 
ATOM     15  N   UNL     1       2.868   3.308  19.300  0.00  0.00    +0.000 NA
ENDBRANCH   1   8
BRANCH   3  16
ATOM     16  C   UNL     1       1.255   9.142  21.563  0.00  0.00    +0.000 C 
ATOM     17  C   UNL     1       0.466   9.451  22.804  0.00  0.00    +0.000 C 
ATOM     18  C   UNL     1      -0.238   9.407  21.477  0.00  0.00    +0.000 C 
BRANCH  18  19
ATOM     19  C   UNL     1      -0.746  10.657  20.796  0.00  0.00    +0.000 A 
ATOM     20  C   UNL     1      -0.895  11.861  21.510  0.00  0.00    +0.000 A 
ATOM     21  C   UNL     1      -1.248  13.058  20.877  0.00  0.00    +0.000 A 
ATOM     22  C   UNL     1      -1.460  13.075  19.503  0.00  0.00    +0.000 A 
ATOM     23  C   UNL     1      -1.339  11.894  18.783  0.00  0.00    +0.000 A 
ATOM     24  F   UNL     1      -1.532  11.910  17.458  0.00  0.00    +0.000 F 
ATOM     25  C   UNL     1      -0.993  10.698  19.413  0.00  0.00    +0.000 A 
ENDBRANCH  18  19
ENDBRANCH   3  16
TORSDOF 3
ENDMDL
MODEL 3
REMARK VINA RESULT:      -8.3      3.834      8.149
REMARK  Name = 
REMARK  4 active torsions:
REMARK  status: ('A' for Active; 'I' for Inactive)
REMARK    1  A    between atoms: C_1  and  C_2
REMARK    2  A    between atoms: C_4  and  C_5
REMARK    3  A    between atoms: N_7  and  C_8
REMARK    4  A    between atoms: C_10  and  C_11
REMARK                            x       y       z     vdW  Elec       q    Type
REMARK                         _______ _______ _______ _____ _____    ______ ____
ROOT
ATOM      1  C   UNL     1       4.245   3.838  17.775  0.00  0.00    +0.000 C 
ATOM      2  O   UNL     1       3.749   3.326  16.777  0.00  0.00    +0.000 OA
ATOM      3  N   UNL     1       5.606   4.092  17.873  0.00  0.00    +0.000 N 
ATOM      4  H   UNL     1       5.957   4.603  18.675  0.00  0.00    +0.000 HD
ENDROOT
BRANCH   1   8
ATOM      5  C   UNL     1       1.630   2.580  21.879  0.00  0.00    +0.000 C 
ATOM      6  C   UNL     1       2.132   3.578  20.879  0.00  0.00    +0.000 A 
ATOM      7  C   UNL     1       2.991   3.224  19.852  0.00  0.00    +0.000 A 
ATOM      8  C   UNL     1       3.377   4.214  18.937  0.00  0.00    +0.000 A 
ATOM      9  C   UNL     1       2.889   5.547  19.074  0.00  0.00    +0.000 A 
ATOM     10  C   UNL     1       3.188   6.646  18.223  0.00  0.00    +0.000 A 
ATOM     11  C   UNL     1       2.654   7.917  18.439  0.00  0.00    +0.000 A 
ATOM     12  C   UNL     1       1.815   8.127  19.520  0.00  0.00    +0.000 A 
ATOM     13  C   UNL     1       1.516   7.062  20.369  0.00  0.00    +0.000 A 
ATOM     14  C   UNL     1       2.029   5.789  20.168  0.00  0.00    +0.000 A 
ATOM     15  N   UNL     1       1.672   4.836  21.040  0.00  0.00    +0.000 NA
ENDBRANCH   1   8
BRANCH   3  16
ATOM     16  C   UNL     1       6.470   4.008  16.724  0.00  0.00    +0.000 C 
ATOM     17  C   UNL     1       7.632   4.932  16.488  0.00  0.00    +0.000 C 
ATOM     18  C   UNL     1       6.399   5.071  15.640  0.00  0.00    +0.000 C 
BRANCH  18  19
ATOM     19  C   UNL     1       6.376   4.665  14.184  0.00  0.00    +0.000 A 
ATOM     20  C   UNL     1       7.486   4.897  13.351  0.00  0.00    +0.000 A 
ATOM     21  C   UNL     1       7.534   4.424  12.034  0.00  0.00    +0.000 A 
ATOM     22  C   UNL     1       6.462   3.703  11.521  0.00  0.00    +0.000 A 
ATOM     23  C   UNL     1       5.347   3.483  12.319  0.00  0.00    +0.000 A 
ATOM     24  F   UNL     1       4.318   2.780  11.831  0.00  0.00    +0.000 F 
ATOM     25  C   UNL     1       5.296   3.958  13.631  0.00  0.00    +0.000 A 
ENDBRANCH  18  19
ENDBRANCH   3  16
TORSDOF 3
ENDMDL
MODEL 4
REMARK VINA RESULT:      -8.3      0.972      1.379
REMARK  Name = 
REMARK  4 active torsions:
REMARK  status: ('A' for Active; 'I' for Inactive)
REMARK    1  A    between atoms: C_1  and  C_2
REMARK    2  A    between atoms: C_4  and  C_5
REMARK    3  A    between atoms: N_7  and  C_8
REMARK    4  A    between atoms: C_10  and  C_11
REMARK                            x       y       z     vdW  Elec       q    Type
REMARK                         _______ _______ _______ _____ _____    ______ ____
ROOT
ATOM      1  C   UNL     1       2.367   7.245  18.792  0.00  0.00    +0.000 C 
ATOM      2  O   UNL     1       2.360   8.178  17.998  0.00  0.00    +0.000 OA
ATOM      3  N   UNL     1       2.162   7.433  20.152  0.00  0.00    +0.000 N 
ATOM      4  H   UNL     1       2.080   6.624  20.757  0.00  0.00    +0.000 HD
ENDROOT
BRANCH   1   8
ATOM      5  C   UNL     1       1.118   2.377  18.699  0.00  0.00    +0.000 C 
ATOM      6  C   UNL     1       1.982   3.534  18.295  0.00  0.00    +0.000 A 
ATOM      7  C   UNL     1       1.712   4.831  18.697  0.00  0.00    +0.000 A 
ATOM      8  C   UNL     1       2.598   5.846  18.306  0.00  0.00    +0.000 A 
ATOM      9  C   UNL     1       3.742   5.534  17.514  0.00  0.00    +0.000 A 
ATOM     10  C   UNL     1       4.722   6.454  17.051  0.00  0.00    +0.000 A 
ATOM     11  C   UNL     1       5.813   6.047  16.282  0.00  0.00    +0.000 A 
ATOM     12  C   UNL     1       5.947   4.713  15.943  0.00  0.00    +0.000 A 
ATOM     13  C   UNL     1       4.991   3.797  16.383  0.00  0.00    +0.000 A 
ATOM     14  C   UNL     1       3.903   4.178  17.155  0.00  0.00    +0.000 A 
ATOM     15  N   UNL     1       3.047   3.217  17.530  0.00  0.00    +0.000 NA
ENDBRANCH   1   8
BRANCH   3  16
ATOM     16  C   UNL     1       1.680   8.687  20.672  0.00  0.00    +0.000 C 
ATOM     17  C   UNL     1       1.180   8.867  22.078  0.00  0.00    +0.000 C 
ATOM     18  C   UNL     1       0.196   8.877  20.941  0.00  0.00    +0.000 C 
BRANCH  18  19
ATOM     19  C   UNL     1      -0.497  10.143  20.492  0.00  0.00    +0.000 A 
ATOM     20  C   UNL     1      -0.954  10.287  19.168  0.00  0.00    +0.000 A 
ATOM     21  C   UNL     1      -1.703  11.397  18.761  0.00  0.00    +0.000 A 
ATOM     22  C   UNL     1      -2.013  12.394  19.678  0.00  0.00    +0.000 A 
ATOM     23  C   UNL     1      -1.553  12.282  20.984  0.00  0.00    +0.000 A 
ATOM     24  F   UNL     1      -1.859  13.236  21.872  0.00  0.00    +0.000 F 
ATOM     25  C   UNL     1      -0.802  11.179  21.391  0.00  0.00    +0.000 A 
ENDBRANCH  18  19
ENDBRANCH   3  16
TORSDOF 3
ENDMDL
MODEL 5
REMARK VINA RESULT:      -8.2      1.513      1.876
REMARK  Name = 
REMARK  4 active torsions:
REMARK  status: ('A' for Active; 'I' for Inactive)
REMARK    1  A    between atoms: C_1  and  C_2
REMARK    2  A    between atoms: C_4  and  C_5
REMARK    3  A    between atoms: N_7  and  C_8
REMARK    4  A    between atoms: C_10  and  C_11
REMARK                            x       y       z     vdW  Elec       q    Type
REMARK                         _______ _______ _______ _____ _____    ______ ____
ROOT
ATOM      1  C   UNL     1       2.099   7.241  19.966  0.00  0.00    +0.000 C 
ATOM      2  O   UNL     1       2.162   7.997  19.003  0.00  0.00    +0.000 OA
ATOM      3  N   UNL     1       1.792   7.695  21.240  0.00  0.00    +0.000 N 
ATOM      4  H   UNL     1       1.656   7.023  21.986  0.00  0.00    +0.000 HD
ENDROOT
BRANCH   1   8
ATOM      5  C   UNL     1       1.618   2.490  21.534  0.00  0.00    +0.000 C 
ATOM      6  C   UNL     1       2.114   3.526  20.571  0.00  0.00    +0.000 A 
ATOM      7  C   UNL     1       1.811   4.870  20.712  0.00  0.00    +0.000 A 
ATOM      8  C   UNL     1       2.352   5.774  19.788  0.00  0.00    +0.000 A 
ATOM      9  C   UNL     1       3.191   5.308  18.734  0.00  0.00    +0.000 A 
ATOM     10  C   UNL     1       3.810   6.105  17.733  0.00  0.00    +0.000 A 
ATOM     11  C   UNL     1       4.621   5.552  16.742  0.00  0.00    +0.000 A 
ATOM     12  C   UNL     1       4.826   4.183  16.716  0.00  0.00    +0.000 A 
ATOM     13  C   UNL     1       4.220   3.384  17.686  0.00  0.00    +0.000 A 
ATOM     14  C   UNL     1       3.417   3.914  18.685  0.00  0.00    +0.000 A 
ATOM     15  N   UNL     1       2.890   3.058  19.571  0.00  0.00    +0.000 NA
ENDBRANCH   1   8
BRANCH   3  16
ATOM     16  C   UNL     1       1.283   9.025  21.461  0.00  0.00    +0.000 C 
ATOM     17  C   UNL     1       0.449   9.410  22.650  0.00  0.00    +0.000 C 
ATOM     18  C   UNL     1      -0.201   9.308  21.299  0.00  0.00    +0.000 C 
BRANCH  18  19
ATOM     19  C   UNL     1      -0.659  10.529  20.534  0.00  0.00    +0.000 A 
ATOM     20  C   UNL     1      -0.807  10.493  19.135  0.00  0.00    +0.000 A 
ATOM     21  C   UNL     1      -1.342  11.571  18.420  0.00  0.00    +0.000 A 
ATOM     22  C   UNL     1      -1.744  12.717  19.097  0.00  0.00    +0.000 A 
ATOM     23  C   UNL     1      -1.585  12.781  20.475  0.00  0.00    +0.000 A 
ATOM     24  F   UNL     1      -1.980  13.879  21.131  0.00  0.00    +0.000 F 
ATOM     25  C   UNL     1      -1.047  11.709  21.189  0.00  0.00    +0.000 A 
ENDBRANCH  18  19
ENDBRANCH   3  16
TORSDOF 3
ENDMDL
MODEL 6
REMARK VINA RESULT:      -8.1      2.087      2.580
REMARK  Name = 
REMARK  4 active torsions:
REMARK  status: ('A' for Active; 'I' for Inactive)
REMARK    1  A    between atoms: C_1  and  C_2
REMARK    2  A    between atoms: C_4  and  C_5
REMARK    3  A    between atoms: N_7  and  C_8
REMARK    4  A    between atoms: C_10  and  C_11
REMARK                            x       y       z     vdW  Elec       q    Type
REMARK                         _______ _______ _______ _____ _____    ______ ____
ROOT
ATOM      1  C   UNL     1       2.326   8.058  18.199  0.00  0.00    +0.000 C 
ATOM      2  O   UNL     1       2.620   8.467  17.082  0.00  0.00    +0.000 OA
ATOM      3  N   UNL     1       1.471   8.758  19.039  0.00  0.00    +0.000 N 
ATOM      4  H   UNL     1       1.181   8.335  19.913  0.00  0.00    +0.000 HD
ENDROOT
BRANCH   1   8
ATOM      5  C   UNL     1       2.158   4.112  21.307  0.00  0.00    +0.000 C 
ATOM      6  C   UNL     1       2.787   4.904  20.201  0.00  0.00    +0.000 A 
ATOM      7  C   UNL     1       2.213   6.062  19.705  0.00  0.00    +0.000 A 
ATOM      8  C   UNL     1       2.891   6.762  18.698  0.00  0.00    +0.000 A 
ATOM      9  C   UNL     1       4.140   6.281  18.205  0.00  0.00    +0.000 A 
ATOM     10  C   UNL     1       4.938   6.885  17.196  0.00  0.00    +0.000 A 
ATOM     11  C   UNL     1       6.153   6.337  16.785  0.00  0.00    +0.000 A 
ATOM     12  C   UNL     1       6.598   5.161  17.363  0.00  0.00    +0.000 A 
ATOM     13  C   UNL     1       5.825   4.550  18.350  0.00  0.00    +0.000 A 
ATOM     14  C   UNL     1       4.618   5.082  18.779  0.00  0.00    +0.000 A 
ATOM     15  N   UNL     1       3.958   4.418  19.738  0.00  0.00    +0.000 NA
ENDBRANCH   1   8
BRANCH   3  16
ATOM     16  C   UNL     1       0.683   9.863  18.557  0.00  0.00    +0.000 C 
ATOM     17  C   UNL     1       0.361  11.077  19.382  0.00  0.00    +0.000 C 
ATOM     18  C   UNL     1      -0.725  10.081  19.085  0.00  0.00    +0.000 C 
BRANCH  18  19
ATOM     19  C   UNL     1      -1.853  10.385  18.126  0.00  0.00    +0.000 A 
ATOM     20  C   UNL     1      -2.888  11.270  18.483  0.00  0.00    +0.000 A 
ATOM     21  C   UNL     1      -3.876  11.659  17.572  0.00  0.00    +0.000 A 
ATOM     22  C   UNL     1      -3.849  11.165  16.272  0.00  0.00    +0.000 A 
ATOM     23  C   UNL     1      -2.849  10.274  15.906  0.00  0.00    +0.000 A 
ATOM     24  F   UNL     1      -2.814   9.805  14.652  0.00  0.00    +0.000 F 
ATOM     25  C   UNL     1      -1.866   9.881  16.815  0.00  0.00    +0.000 A 
ENDBRANCH  18  19
ENDBRANCH   3  16
TORSDOF 3
ENDMDL
MODEL 7
REMARK VINA RESULT:      -8.1      0.781      2.776
REMARK  Name = 
REMARK  4 active torsions:
REMARK  status: ('A' for Active; 'I' for Inactive)
REMARK    1  A    between atoms: C_1  and  C_2
REMARK    2  A    between atoms: C_4  and  C_5
REMARK    3  A    between atoms: N_7  and  C_8
REMARK    4  A    between atoms: C_10  and  C_11
REMARK                            x       y       z     vdW  Elec       q    Type
REMARK                         _______ _______ _______ _____ _____    ______ ____
ROOT
ATOM      1  C   UNL     1       2.526   7.353  18.914  0.00  0.00    +0.000 C 
ATOM      2  O   UNL     1       2.383   8.250  18.090  0.00  0.00    +0.000 OA
ATOM      3  N   UNL     1       2.293   7.551  20.267  0.00  0.00    +0.000 N 
ATOM      4  H   UNL     1       2.330   6.758  20.897  0.00  0.00    +0.000 HD
ENDROOT
BRANCH   1   8
ATOM      5  C   UNL     1       5.166   4.380  15.838  0.00  0.00    +0.000 C 
ATOM      6  C   UNL     1       4.222   4.604  16.981  0.00  0.00    +0.000 A 
ATOM      7  C   UNL     1       3.886   5.873  17.422  0.00  0.00    +0.000 A 
ATOM      8  C   UNL     1       2.962   5.989  18.471  0.00  0.00    +0.000 A 
ATOM      9  C   UNL     1       2.393   4.821  19.058  0.00  0.00    +0.000 A 
ATOM     10  C   UNL     1       1.446   4.787  20.119  0.00  0.00    +0.000 A 
ATOM     11  C   UNL     1       0.943   3.587  20.623  0.00  0.00    +0.000 A 
ATOM     12  C   UNL     1       1.382   2.388  20.091  0.00  0.00    +0.000 A 
ATOM     13  C   UNL     1       2.316   2.402  19.055  0.00  0.00    +0.000 A 
ATOM     14  C   UNL     1       2.823   3.583  18.533  0.00  0.00    +0.000 A 
ATOM     15  N   UNL     1       3.711   3.484  17.534  0.00  0.00    +0.000 NA
ENDBRANCH   1   8
BRANCH   3  16
ATOM     16  C   UNL     1       1.629   8.736  20.749  0.00  0.00    +0.000 C 
ATOM     17  C   UNL     1       0.892   8.802  22.057  0.00  0.00    +0.000 C 
ATOM     18  C   UNL     1       0.111   8.799  20.773  0.00  0.00    +0.000 C 
BRANCH  18  19
ATOM     19  C   UNL     1      -0.602  10.031  20.264  0.00  0.00    +0.000 A 
ATOM     20  C   UNL     1      -0.826  11.137  21.106  0.00  0.00    +0.000 A 
ATOM     21  C   UNL     1      -1.376  12.332  20.626  0.00  0.00    +0.000 A 
ATOM     22  C   UNL     1      -1.715  12.445  19.283  0.00  0.00    +0.000 A 
ATOM     23  C   UNL     1      -1.523  11.358  18.440  0.00  0.00    +0.000 A 
ATOM     24  F   UNL     1      -1.839  11.468  17.144  0.00  0.00    +0.000 F 
ATOM     25  C   UNL     1      -0.980  10.164  18.917  0.00  0.00    +0.000 A 
ENDBRANCH  18  19
ENDBRANCH   3  16
TORSDOF 3
ENDMDL
MODEL 8
REMARK VINA RESULT:      -8.1      1.992      2.686
REMARK  Name = 
REMARK  4 active torsions:
REMARK  status: ('A' for Active; 'I' for Inactive)
REMARK    1  A    between atoms: C_1  and  C_2
REMARK    2  A    between atoms: C_4  and  C_5
REMARK    3  A    between atoms: N_7  and  C_8
REMARK    4  A    between atoms: C_10  and  C_11
REMARK                            x       y       z     vdW  Elec       q    Type
REMARK                         _______ _______ _______ _____ _____    ______ ____
ROOT
ATOM      1  C   UNL     1       2.225   8.112  18.263  0.00  0.00    +0.000 C 
ATOM      2  O   UNL     1       2.408   8.492  17.112  0.00  0.00    +0.000 OA
ATOM      3  N   UNL     1       1.490   8.855  19.176  0.00  0.00    +0.000 N 
ATOM      4  H   UNL     1       1.283   8.457  20.085  0.00  0.00    +0.000 HD
ENDROOT
BRANCH   1   8
ATOM      5  C   UNL     1       2.147   4.132  21.332  0.00  0.00    +0.000 C 
ATOM      6  C   UNL     1       2.736   4.931  20.209  0.00  0.00    +0.000 A 
ATOM      7  C   UNL     1       2.154   6.100  19.750  0.00  0.00    +0.000 A 
ATOM      8  C   UNL     1       2.797   6.805  18.723  0.00  0.00    +0.000 A 
ATOM      9  C   UNL     1       4.019   6.317  18.174  0.00  0.00    +0.000 A 
ATOM     10  C   UNL     1       4.780   6.925  17.138  0.00  0.00    +0.000 A 
ATOM     11  C   UNL     1       5.972   6.369  16.671  0.00  0.00    +0.000 A 
ATOM     12  C   UNL     1       6.428   5.182  17.217  0.00  0.00    +0.000 A 
ATOM     13  C   UNL     1       5.690   4.568  18.229  0.00  0.00    +0.000 A 
ATOM     14  C   UNL     1       4.508   5.107  18.714  0.00  0.00    +0.000 A 
ATOM     15  N   UNL     1       3.882   4.439  19.693  0.00  0.00    +0.000 NA
ENDBRANCH   1   8
BRANCH   3  16
ATOM     16  C   UNL     1       0.692   9.980  18.759  0.00  0.00    +0.000 C 
ATOM     17  C   UNL     1       0.237  11.067  19.692  0.00  0.00    +0.000 C 
ATOM     18  C   UNL     1      -0.766  10.073  19.177  0.00  0.00    +0.000 C 
BRANCH  18  19
ATOM     19  C   UNL     1      -1.820  10.449  18.161  0.00  0.00    +0.000 A 
ATOM     20  C   UNL     1      -1.851   9.843  16.891  0.00  0.00    +0.000 A 
ATOM     21  C   UNL     1      -2.885  10.087  15.980  0.00  0.00    +0.000 A 
ATOM     22  C   UNL     1      -3.919  10.950  16.325  0.00  0.00    +0.000 A 
ATOM     23  C   UNL     1      -3.896  11.576  17.564  0.00  0.00    +0.000 A 
ATOM     24  F   UNL     1      -4.896  12.400  17.903  0.00  0.00    +0.000 F 
ATOM     25  C   UNL     1      -2.863  11.338  18.472  0.00  0.00    +0.000 A 
ENDBRANCH  18  19
ENDBRANCH   3  16
TORSDOF 3
ENDMDL
MODEL 9
REMARK VINA RESULT:      -8.1      3.292      7.937
REMARK  Name = 
REMARK  4 active torsions:
REMARK  status: ('A' for Active; 'I' for Inactive)
REMARK    1  A    between atoms: C_1  and  C_2
REMARK    2  A    between atoms: C_4  and  C_5
REMARK    3  A    between atoms: N_7  and  C_8
REMARK    4  A    between atoms: C_10  and  C_11
REMARK                            x       y       z     vdW  Elec       q    Type
REMARK                         _______ _______ _______ _____ _____    ______ ____
ROOT
ATOM      1  C   UNL     1       1.083   9.276  19.382  0.00  0.00    +0.000 C 
ATOM      2  O   UNL     1       1.158   9.005  20.575  0.00  0.00    +0.000 OA
ATOM      3  N   UNL     1       1.864   8.636  18.430  0.00  0.00    +0.000 N 
ATOM      4  H   UNL     1       1.700   8.824  17.448  0.00  0.00    +0.000 HD
ENDROOT
BRANCH   1   8
ATOM      5  C   UNL     1      -3.224  10.583  17.146  0.00  0.00    +0.000 C 
ATOM      6  C   UNL     1      -1.931  10.911  17.829  0.00  0.00    +0.000 A 
ATOM      7  C   UNL     1      -1.088   9.929  18.323  0.00  0.00    +0.000 A 
ATOM      8  C   UNL     1       0.122  10.325  18.909  0.00  0.00    +0.000 A 
ATOM      9  C   UNL     1       0.463  11.707  18.988  0.00  0.00    +0.000 A 
ATOM     10  C   UNL     1       1.651  12.252  19.548  0.00  0.00    +0.000 A 
ATOM     11  C   UNL     1       1.895  13.625  19.573  0.00  0.00    +0.000 A 
ATOM     12  C   UNL     1       0.952  14.494  19.052  0.00  0.00    +0.000 A 
ATOM     13  C   UNL     1      -0.223  13.977  18.506  0.00  0.00    +0.000 A 
ATOM     14  C   UNL     1      -0.482  12.615  18.462  0.00  0.00    +0.000 A 
ATOM     15  N   UNL     1      -1.639  12.226  17.909  0.00  0.00    +0.000 NA
ENDBRANCH   1   8
BRANCH   3  16
ATOM     16  C   UNL     1       2.617   7.450  18.751  0.00  0.00    +0.000 C 
ATOM     17  C   UNL     1       3.615   6.821  17.820  0.00  0.00    +0.000 C 
ATOM     18  C   UNL     1       2.297   6.137  18.056  0.00  0.00    +0.000 C 
BRANCH  18  19
ATOM     19  C   UNL     1       2.188   4.863  18.861  0.00  0.00    +0.000 A 
ATOM     20  C   UNL     1       1.404   4.809  20.029  0.00  0.00    +0.000 A 
ATOM     21  C   UNL     1       1.192   3.613  20.723  0.00  0.00    +0.000 A 
ATOM     22  C   UNL     1       1.765   2.434  20.259  0.00  0.00    +0.000 A 
ATOM     23  C   UNL     1       2.561   2.469  19.121  0.00  0.00    +0.000 A 
ATOM     24  F   UNL     1       3.105   1.334  18.666  0.00  0.00    +0.000 F 
ATOM     25  C   UNL     1       2.777   3.662  18.430  0.00  0.00    +0.000 A 
ENDBRANCH  18  19
ENDBRANCH   3  16
TORSDOF 3
ENDMDL
