MODEL 1
REMARK VINA RESULT:      -9.1      0.000      0.000
REMARK  Name = 
REMARK  4 active torsions:
REMARK  status: ('A' for Active; 'I' for Inactive)
REMARK    1  A    between atoms: C_2  and  C_22
REMARK    2  A    between atoms: N_3  and  C_4
REMARK    3  A    between atoms: C_10  and  C_11
REMARK    4  A    between atoms: C_20  and  O_21
REMARK                            x       y       z     vdW  Elec       q    Type
REMARK                         _______ _______ _______ _____ _____    ______ ____
ROOT
ATOM      1  C   UNL     1       3.842   4.709  17.310  0.00  0.00    +0.000 A 
ATOM      2  C   UNL     1       4.644   4.039  16.371  0.00  0.00    +0.000 A 
ATOM      3  C   UNL     1       5.526   4.738  15.552  0.00  0.00    +0.000 A 
ATOM      4 CL   UNL     1       6.510   3.892  14.424  0.00  0.00    +0.000 Cl
ATOM      5  C   UNL     1       5.623   6.116  15.653  0.00  0.00    +0.000 A 
ATOM      6  C   UNL     1       4.813   6.797  16.563  0.00  0.00    +0.000 A 
ATOM      7  C   UNL     1       3.882   6.134  17.397  0.00  0.00    +0.000 A 
ENDROOT
BRANCH   7   8
ATOM      8  C   UNL     1       3.031   6.925  18.338  0.00  0.00    +0.000 A 
ATOM      9  N   UNL     1       2.395   8.006  17.799  0.00  0.00    +0.000 NA
ATOM     10  C   UNL     1       1.578   8.727  18.602  0.00  0.00    +0.000 A 
ATOM     11  C   UNL     1       0.903   9.827  18.089  0.00  0.00    +0.000 A 
ATOM     12  C   UNL     1       0.060  10.600  18.890  0.00  0.00    +0.000 A 
ATOM     13  C   UNL     1      -0.120  10.264  20.225  0.00  0.00    +0.000 A 
ATOM     14  C   UNL     1       0.548   9.158  20.751  0.00  0.00    +0.000 A 
ATOM     15  C   UNL     1       1.397   8.387  19.964  0.00  0.00    +0.000 A 
ATOM     16  N   UNL     1       2.039   7.345  20.516  0.00  0.00    +0.000 NA
ATOM     17  C   UNL     1       2.843   6.642  19.694  0.00  0.00    +0.000 A 
BRANCH  17  18
ATOM     18  O   UNL     1       3.474   5.643  20.360  0.00  0.00    +0.000 OA
ATOM     19  H   UNL     1       2.763   4.975  20.378  0.00  0.00    +0.000 HD
ENDBRANCH  17  18
ENDBRANCH   7   8
BRANCH   1  22
ATOM     20  O   UNL     1       0.920   4.178  17.106  0.00  0.00    +0.000 OA
ATOM     21  C   UNL     1       1.609   3.768  18.042  0.00  0.00    +0.000 C 
ATOM     22  N   UNL     1       2.982   3.981  18.175  0.00  0.00    +0.000 N 
ATOM     23  H   UNL     1       3.465   3.402  18.868  0.00  0.00    +0.000 HD
BRANCH  21  24
ATOM     24  C   UNL     1       1.003   2.928  19.181  0.00  0.00    +0.000 C 
ATOM     25  F   UNL     1       1.934   2.157  19.816  0.00  0.00    +0.000 F 
ATOM     26  F   UNL     1       0.424   3.697  20.144  0.00  0.00    +0.000 F 
ATOM     27  F   UNL     1       0.043   2.068  18.739  0.00  0.00    +0.000 F 
ENDBRANCH  21  24
ENDBRANCH   1  22
TORSDOF 4
ENDMDL
MODEL 2
REMARK VINA RESULT:      -8.9      0.948      1.204
REMARK  Name = 
REMARK  4 active torsions:
REMARK  status: ('A' for Active; 'I' for Inactive)
REMARK    1  A    between atoms: C_2  and  C_22
REMARK    2  A    between atoms: N_3  and  C_4
REMARK    3  A    between atoms: C_10  and  C_11
REMARK    4  A    between atoms: C_20  and  O_21
REMARK                            x       y       z     vdW  Elec       q    Type
REMARK                         _______ _______ _______ _____ _____    ______ ____
ROOT
ATOM      1  C   UNL     1       3.457   4.860  17.411  0.00  0.00    +0.000 A 
ATOM      2  C   UNL     1       4.273   4.121  16.537  0.00  0.00    +0.000 A 
ATOM      3  C   UNL     1       5.335   4.722  15.868  0.00  0.00    +0.000 A 
ATOM      4 CL   UNL     1       6.329   3.792  14.818  0.00  0.00    +0.000 Cl
ATOM      5  C   UNL     1       5.601   6.068  16.056  0.00  0.00    +0.000 A 
ATOM      6  C   UNL     1       4.783   6.820  16.901  0.00  0.00    +0.000 A 
ATOM      7  C   UNL     1       3.676   6.261  17.582  0.00  0.00    +0.000 A 
ENDROOT
BRANCH   7   8
ATOM      8  C   UNL     1       2.828   7.125  18.458  0.00  0.00    +0.000 A 
ATOM      9  N   UNL     1       2.297   8.234  17.866  0.00  0.00    +0.000 NA
ATOM     10  C   UNL     1       1.487   9.024  18.607  0.00  0.00    +0.000 A 
ATOM     11  C   UNL     1       0.916  10.155  18.039  0.00  0.00    +0.000 A 
ATOM     12  C   UNL     1       0.083  10.998  18.776  0.00  0.00    +0.000 A 
ATOM     13  C   UNL     1      -0.193  10.702  20.105  0.00  0.00    +0.000 A 
ATOM     14  C   UNL     1       0.368   9.566  20.687  0.00  0.00    +0.000 A 
ATOM     15  C   UNL     1       1.207   8.725  19.963  0.00  0.00    +0.000 A 
ATOM     16  N   UNL     1       1.746   7.654  20.568  0.00  0.00    +0.000 NA
ATOM     17  C   UNL     1       2.545   6.883  19.806  0.00  0.00    +0.000 A 
BRANCH  17  18
ATOM     18  O   UNL     1       3.069   5.859  20.524  0.00  0.00    +0.000 OA
ATOM     19  H   UNL     1       2.361   5.197  20.418  0.00  0.00    +0.000 HD
ENDBRANCH  17  18
ENDBRANCH   7   8
BRANCH   1  22
ATOM     20  O   UNL     1       3.574   2.923  19.668  0.00  0.00    +0.000 OA
ATOM     21  C   UNL     1       2.513   3.311  19.176  0.00  0.00    +0.000 C 
ATOM     22  N   UNL     1       2.407   4.225  18.127  0.00  0.00    +0.000 N 
ATOM     23  H   UNL     1       1.479   4.629  17.970  0.00  0.00    +0.000 HD
BRANCH  21  24
ATOM     24  C   UNL     1       1.152   2.827  19.710  0.00  0.00    +0.000 C 
ATOM     25  F   UNL     1       0.372   3.852  20.162  0.00  0.00    +0.000 F 
ATOM     26  F   UNL     1       0.420   2.179  18.761  0.00  0.00    +0.000 F 
ATOM     27  F   UNL     1       1.281   1.965  20.757  0.00  0.00    +0.000 F 
ENDBRANCH  21  24
ENDBRANCH   1  22
TORSDOF 4
ENDMDL
MODEL 3
REMARK VINA RESULT:      -8.5      3.696      5.250
REMARK  Name = 
REMARK  4 active torsions:
REMARK  status: ('A' for Active; 'I' for Inactive)
REMARK    1  A    between atoms: C_2  and  C_22
REMARK    2  A    between atoms: N_3  and  C_4
REMARK    3  A    between atoms: C_10  and  C_11
REMARK    4  A    between atoms: C_20  and  O_21
REMARK                            x       y       z     vdW  Elec       q    Type
REMARK                         _______ _______ _______ _____ _____    ______ ____
ROOT
ATOM      1  C   UNL     1       6.386   4.913  15.895  0.00  0.00    +0.000 A 
ATOM      2  C   UNL     1       7.165   5.030  14.731  0.00  0.00    +0.000 A 
ATOM      3  C   UNL     1       6.710   4.539  13.511  0.00  0.00    +0.000 A 
ATOM      4 CL   UNL     1       7.676   4.710  12.099  0.00  0.00    +0.000 Cl
ATOM      5  C   UNL     1       5.473   3.922  13.429  0.00  0.00    +0.000 A 
ATOM      6  C   UNL     1       4.699   3.776  14.582  0.00  0.00    +0.000 A 
ATOM      7  C   UNL     1       5.130   4.234  15.850  0.00  0.00    +0.000 A 
ENDROOT
BRANCH   7   8
ATOM      8  C   UNL     1       4.262   4.031  17.049  0.00  0.00    +0.000 A 
ATOM      9  N   UNL     1       3.798   5.167  17.647  0.00  0.00    +0.000 NA
ATOM     10  C   UNL     1       2.971   5.033  18.710  0.00  0.00    +0.000 A 
ATOM     11  C   UNL     1       2.467   6.164  19.339  0.00  0.00    +0.000 A 
ATOM     12  C   UNL     1       1.620   6.064  20.444  0.00  0.00    +0.000 A 
ATOM     13  C   UNL     1       1.263   4.811  20.926  0.00  0.00    +0.000 A 
ATOM     14  C   UNL     1       1.757   3.668  20.301  0.00  0.00    +0.000 A 
ATOM     15  C   UNL     1       2.609   3.756  19.205  0.00  0.00    +0.000 A 
ATOM     16  N   UNL     1       3.082   2.631  18.646  0.00  0.00    +0.000 NA
ATOM     17  C   UNL     1       3.899   2.792  17.588  0.00  0.00    +0.000 A 
BRANCH  17  18
ATOM     18  O   UNL     1       4.353   1.599  17.130  0.00  0.00    +0.000 OA
ATOM     19  H   UNL     1       4.897   1.321  17.889  0.00  0.00    +0.000 HD
ENDBRANCH  17  18
ENDBRANCH   7   8
BRANCH   1  22
ATOM     20  O   UNL     1       8.469   3.932  17.781  0.00  0.00    +0.000 OA
ATOM     21  C   UNL     1       7.815   4.957  17.983  0.00  0.00    +0.000 C 
ATOM     22  N   UNL     1       6.838   5.462  17.124  0.00  0.00    +0.000 N 
ATOM     23  H   UNL     1       6.539   6.427  17.297  0.00  0.00    +0.000 HD
BRANCH  21  24
ATOM     24  C   UNL     1       8.042   5.823  19.236  0.00  0.00    +0.000 C 
ATOM     25  F   UNL     1       6.901   6.000  19.964  0.00  0.00    +0.000 F 
ATOM     26  F   UNL     1       8.957   5.280  20.086  0.00  0.00    +0.000 F 
ATOM     27  F   UNL     1       8.489   7.073  18.930  0.00  0.00    +0.000 F 
ENDBRANCH  21  24
ENDBRANCH   1  22
TORSDOF 4
ENDMDL
MODEL 4
REMARK VINA RESULT:      -8.4      3.855      5.463
REMARK  Name = 
REMARK  4 active torsions:
REMARK  status: ('A' for Active; 'I' for Inactive)
REMARK    1  A    between atoms: C_2  and  C_22
REMARK    2  A    between atoms: N_3  and  C_4
REMARK    3  A    between atoms: C_10  and  C_11
REMARK    4  A    between atoms: C_20  and  O_21
REMARK                            x       y       z     vdW  Elec       q    Type
REMARK                         _______ _______ _______ _____ _____    ______ ____
ROOT
ATOM      1  C   UNL     1       6.349   5.032  15.912  0.00  0.00    +0.000 A 
ATOM      2  C   UNL     1       7.190   4.948  14.789  0.00  0.00    +0.000 A 
ATOM      3  C   UNL     1       6.709   4.491  13.566  0.00  0.00    +0.000 A 
ATOM      4 CL   UNL     1       7.755   4.415  12.203  0.00  0.00    +0.000 Cl
ATOM      5  C   UNL     1       5.385   4.109  13.439  0.00  0.00    +0.000 A 
ATOM      6  C   UNL     1       4.544   4.163  14.552  0.00  0.00    +0.000 A 
ATOM      7  C   UNL     1       4.992   4.593  15.823  0.00  0.00    +0.000 A 
ENDROOT
BRANCH   7   8
ATOM      8  C   UNL     1       4.046   4.610  16.980  0.00  0.00    +0.000 A 
ATOM      9  N   UNL     1       3.562   3.395  17.370  0.00  0.00    +0.000 NA
ATOM     10  C   UNL     1       2.736   3.355  18.441  0.00  0.00    +0.000 A 
ATOM     11  C   UNL     1       2.231   2.136  18.878  0.00  0.00    +0.000 A 
ATOM     12  C   UNL     1       1.369   2.058  19.973  0.00  0.00    +0.000 A 
ATOM     13  C   UNL     1       1.010   3.216  20.650  0.00  0.00    +0.000 A 
ATOM     14  C   UNL     1       1.513   4.445  20.226  0.00  0.00    +0.000 A 
ATOM     15  C   UNL     1       2.366   4.535  19.130  0.00  0.00    +0.000 A 
ATOM     16  N   UNL     1       2.809   5.740  18.740  0.00  0.00    +0.000 NA
ATOM     17  C   UNL     1       3.633   5.752  17.674  0.00  0.00    +0.000 A 
BRANCH  17  18
ATOM     18  O   UNL     1       3.985   7.018  17.338  0.00  0.00    +0.000 OA
ATOM     19  H   UNL     1       3.634   7.057  16.430  0.00  0.00    +0.000 HD
ENDBRANCH  17  18
ENDBRANCH   7   8
BRANCH   1  22
ATOM     20  O   UNL     1       8.409   3.941  17.763  0.00  0.00    +0.000 OA
ATOM     21  C   UNL     1       7.800   4.990  17.984  0.00  0.00    +0.000 C 
ATOM     22  N   UNL     1       6.837   5.546  17.142  0.00  0.00    +0.000 N 
ATOM     23  H   UNL     1       6.580   6.521  17.329  0.00  0.00    +0.000 HD
BRANCH  21  24
ATOM     24  C   UNL     1       8.077   5.831  19.244  0.00  0.00    +0.000 C 
ATOM     25  F   UNL     1       9.010   5.260  20.061  0.00  0.00    +0.000 F 
ATOM     26  F   UNL     1       8.542   7.077  18.947  0.00  0.00    +0.000 F 
ATOM     27  F   UNL     1       6.964   6.003  20.010  0.00  0.00    +0.000 F 
ENDBRANCH  21  24
ENDBRANCH   1  22
TORSDOF 4
ENDMDL
MODEL 5
REMARK VINA RESULT:      -8.4      2.806      5.760
REMARK  Name = 
REMARK  4 active torsions:
REMARK  status: ('A' for Active; 'I' for Inactive)
REMARK    1  A    between atoms: C_2  and  C_22
REMARK    2  A    between atoms: N_3  and  C_4
REMARK    3  A    between atoms: C_10  and  C_11
REMARK    4  A    between atoms: C_20  and  O_21
REMARK                            x       y       z     vdW  Elec       q    Type
REMARK                         _______ _______ _______ _____ _____    ______ ____
ROOT
ATOM      1  C   UNL     1       2.044   6.844  20.169  0.00  0.00    +0.000 A 
ATOM      2  C   UNL     1       1.336   7.795  20.924  0.00  0.00    +0.000 A 
ATOM      3  C   UNL     1       0.987   9.028  20.380  0.00  0.00    +0.000 A 
ATOM      4 CL   UNL     1       0.105  10.166  21.319  0.00  0.00    +0.000 Cl
ATOM      5  C   UNL     1       1.339   9.336  19.076  0.00  0.00    +0.000 A 
ATOM      6  C   UNL     1       2.065   8.411  18.323  0.00  0.00    +0.000 A 
ATOM      7  C   UNL     1       2.467   7.157  18.841  0.00  0.00    +0.000 A 
ENDROOT
BRANCH   7   8
ATOM      8  C   UNL     1       3.259   6.219  17.988  0.00  0.00    +0.000 A 
ATOM      9  N   UNL     1       4.528   6.620  17.683  0.00  0.00    +0.000 NA
ATOM     10  C   UNL     1       5.299   5.784  16.951  0.00  0.00    +0.000 A 
ATOM     11  C   UNL     1       6.600   6.148  16.630  0.00  0.00    +0.000 A 
ATOM     12  C   UNL     1       7.421   5.316  15.867  0.00  0.00    +0.000 A 
ATOM     13  C   UNL     1       6.938   4.092  15.424  0.00  0.00    +0.000 A 
ATOM     14  C   UNL     1       5.635   3.711  15.743  0.00  0.00    +0.000 A 
ATOM     15  C   UNL     1       4.806   4.537  16.495  0.00  0.00    +0.000 A 
ATOM     16  N   UNL     1       3.550   4.143  16.761  0.00  0.00    +0.000 NA
ATOM     17  C   UNL     1       2.806   4.992  17.495  0.00  0.00    +0.000 A 
BRANCH  17  18
ATOM     18  O   UNL     1       1.546   4.518  17.667  0.00  0.00    +0.000 OA
ATOM     19  H   UNL     1       1.707   3.563  17.555  0.00  0.00    +0.000 HD
ENDBRANCH  17  18
ENDBRANCH   7   8
BRANCH   1  22
ATOM     20  O   UNL     1       0.418   4.353  20.256  0.00  0.00    +0.000 OA
ATOM     21  C   UNL     1       1.547   4.431  20.744  0.00  0.00    +0.000 C 
ATOM     22  N   UNL     1       2.351   5.571  20.717  0.00  0.00    +0.000 N 
ATOM     23  H   UNL     1       3.339   5.434  20.952  0.00  0.00    +0.000 HD
BRANCH  21  24
ATOM     24  C   UNL     1       2.212   3.224  21.430  0.00  0.00    +0.000 C 
ATOM     25  F   UNL     1       1.470   2.083  21.319  0.00  0.00    +0.000 F 
ATOM     26  F   UNL     1       3.436   2.935  20.905  0.00  0.00    +0.000 F 
ATOM     27  F   UNL     1       2.398   3.421  22.765  0.00  0.00    +0.000 F 
ENDBRANCH  21  24
ENDBRANCH   1  22
TORSDOF 4
ENDMDL
MODEL 6
REMARK VINA RESULT:      -8.2      3.673      5.101
REMARK  Name = 
REMARK  4 active torsions:
REMARK  status: ('A' for Active; 'I' for Inactive)
REMARK    1  A    between atoms: C_2  and  C_22
REMARK    2  A    between atoms: N_3  and  C_4
REMARK    3  A    between atoms: C_10  and  C_11
REMARK    4  A    between atoms: C_20  and  O_21
REMARK                            x       y       z     vdW  Elec       q    Type
REMARK                         _______ _______ _______ _____ _____    ______ ____
ROOT
ATOM      1  C   UNL     1       6.494   4.536  15.794  0.00  0.00    +0.000 A 
ATOM      2  C   UNL     1       7.226   4.534  14.595  0.00  0.00    +0.000 A 
ATOM      3  C   UNL     1       6.615   4.228  13.382  0.00  0.00    +0.000 A 
ATOM      4 CL   UNL     1       7.530   4.251  11.926  0.00  0.00    +0.000 Cl
ATOM      5  C   UNL     1       5.267   3.916  13.344  0.00  0.00    +0.000 A 
ATOM      6  C   UNL     1       4.533   3.888  14.531  0.00  0.00    +0.000 A 
ATOM      7  C   UNL     1       5.115   4.165  15.791  0.00  0.00    +0.000 A 
ENDROOT
BRANCH   7   8
ATOM      8  C   UNL     1       4.278   4.101  17.027  0.00  0.00    +0.000 A 
ATOM      9  N   UNL     1       3.870   5.302  17.533  0.00  0.00    +0.000 NA
ATOM     10  C   UNL     1       3.073   5.292  18.627  0.00  0.00    +0.000 A 
ATOM     11  C   UNL     1       2.626   6.492  19.165  0.00  0.00    +0.000 A 
ATOM     12  C   UNL     1       1.811   6.521  20.298  0.00  0.00    +0.000 A 
ATOM     13  C   UNL     1       1.428   5.330  20.901  0.00  0.00    +0.000 A 
ATOM     14  C   UNL     1       1.865   4.118  20.368  0.00  0.00    +0.000 A 
ATOM     15  C   UNL     1       2.685   4.079  19.244  0.00  0.00    +0.000 A 
ATOM     16  N   UNL     1       3.103   2.892  18.777  0.00  0.00    +0.000 NA
ATOM     17  C   UNL     1       3.891   2.929  17.685  0.00  0.00    +0.000 A 
BRANCH  17  18
ATOM     18  O   UNL     1       4.291   1.684  17.325  0.00  0.00    +0.000 OA
ATOM     19  H   UNL     1       3.983   1.668  16.400  0.00  0.00    +0.000 HD
ENDBRANCH  17  18
ENDBRANCH   7   8
BRANCH   1  22
ATOM     20  O   UNL     1       6.858   7.215  17.038  0.00  0.00    +0.000 OA
ATOM     21  C   UNL     1       7.273   6.177  17.556  0.00  0.00    +0.000 C 
ATOM     22  N   UNL     1       7.116   4.899  17.018  0.00  0.00    +0.000 N 
ATOM     23  H   UNL     1       7.302   4.115  17.651  0.00  0.00    +0.000 HD
BRANCH  21  24
ATOM     24  C   UNL     1       8.006   6.189  18.910  0.00  0.00    +0.000 C 
ATOM     25  F   UNL     1       8.840   5.119  19.065  0.00  0.00    +0.000 F 
ATOM     26  F   UNL     1       8.777   7.300  19.075  0.00  0.00    +0.000 F 
ATOM     27  F   UNL     1       7.148   6.151  19.968  0.00  0.00    +0.000 F 
ENDBRANCH  21  24
ENDBRANCH   1  22
TORSDOF 4
ENDMDL
MODEL 7
REMARK VINA RESULT:      -8.2      3.628      6.585
REMARK  Name = 
REMARK  4 active torsions:
REMARK  status: ('A' for Active; 'I' for Inactive)
REMARK    1  A    between atoms: C_2  and  C_22
REMARK    2  A    between atoms: N_3  and  C_4
REMARK    3  A    between atoms: C_10  and  C_11
REMARK    4  A    between atoms: C_20  and  O_21
REMARK                            x       y       z     vdW  Elec       q    Type
REMARK                         _______ _______ _______ _____ _____    ______ ____
ROOT
ATOM      1  C   UNL     1       3.116   4.712  19.108  0.00  0.00    +0.000 A 
ATOM      2  C   UNL     1       2.207   4.317  20.105  0.00  0.00    +0.000 A 
ATOM      3  C   UNL     1       2.408   3.151  20.837  0.00  0.00    +0.000 A 
ATOM      4 CL   UNL     1       1.290   2.701  22.064  0.00  0.00    +0.000 Cl
ATOM      5  C   UNL     1       3.514   2.356  20.588  0.00  0.00    +0.000 A 
ATOM      6  C   UNL     1       4.411   2.722  19.583  0.00  0.00    +0.000 A 
ATOM      7  C   UNL     1       4.236   3.883  18.794  0.00  0.00    +0.000 A 
ENDROOT
BRANCH   7   8
ATOM      8  C   UNL     1       5.223   4.209  17.720  0.00  0.00    +0.000 A 
ATOM      9  N   UNL     1       4.851   3.878  16.449  0.00  0.00    +0.000 NA
ATOM     10  C   UNL     1       5.694   4.194  15.438  0.00  0.00    +0.000 A 
ATOM     11  C   UNL     1       5.347   3.886  14.129  0.00  0.00    +0.000 A 
ATOM     12  C   UNL     1       6.195   4.188  13.063  0.00  0.00    +0.000 A 
ATOM     13  C   UNL     1       7.409   4.816  13.305  0.00  0.00    +0.000 A 
ATOM     14  C   UNL     1       7.768   5.136  14.614  0.00  0.00    +0.000 A 
ATOM     15  C   UNL     1       6.934   4.832  15.685  0.00  0.00    +0.000 A 
ATOM     16  N   UNL     1       7.327   5.135  16.932  0.00  0.00    +0.000 NA
ATOM     17  C   UNL     1       6.468   4.814  17.919  0.00  0.00    +0.000 A 
BRANCH  17  18
ATOM     18  O   UNL     1       6.980   5.123  19.136  0.00  0.00    +0.000 OA
ATOM     19  H   UNL     1       7.622   5.811  18.882  0.00  0.00    +0.000 HD
ENDBRANCH  17  18
ENDBRANCH   7   8
BRANCH   1  22
ATOM     20  O   UNL     1       2.211   7.374  20.085  0.00  0.00    +0.000 OA
ATOM     21  C   UNL     1       2.489   7.155  18.904  0.00  0.00    +0.000 C 
ATOM     22  N   UNL     1       2.928   5.929  18.402  0.00  0.00    +0.000 N 
ATOM     23  H   UNL     1       3.336   5.945  17.462  0.00  0.00    +0.000 HD
BRANCH  21  24
ATOM     24  C   UNL     1       2.402   8.262  17.837  0.00  0.00    +0.000 C 
ATOM     25  F   UNL     1       2.798   9.479  18.312  0.00  0.00    +0.000 F 
ATOM     26  F   UNL     1       3.183   8.003  16.752  0.00  0.00    +0.000 F 
ATOM     27  F   UNL     1       1.134   8.436  17.371  0.00  0.00    +0.000 F 
ENDBRANCH  21  24
ENDBRANCH   1  22
TORSDOF 4
ENDMDL
MODEL 8
REMARK VINA RESULT:      -8.1      1.692      2.489
REMARK  Name = 
REMARK  4 active torsions:
REMARK  status: ('A' for Active; 'I' for Inactive)
REMARK    1  A    between atoms: C_2  and  C_22
REMARK    2  A    between atoms: N_3  and  C_4
REMARK    3  A    between atoms: C_10  and  C_11
REMARK    4  A    between atoms: C_20  and  O_21
REMARK                            x       y       z     vdW  Elec       q    Type
REMARK                         _______ _______ _______ _____ _____    ______ ____
ROOT
ATOM      1  C   UNL     1       3.224   5.481  18.004  0.00  0.00    +0.000 A 
ATOM      2  C   UNL     1       4.115   4.666  17.284  0.00  0.00    +0.000 A 
ATOM      3  C   UNL     1       5.169   5.219  16.563  0.00  0.00    +0.000 A 
ATOM      4 CL   UNL     1       6.255   4.199  15.705  0.00  0.00    +0.000 Cl
ATOM      5  C   UNL     1       5.353   6.591  16.543  0.00  0.00    +0.000 A 
ATOM      6  C   UNL     1       4.461   7.414  17.232  0.00  0.00    +0.000 A 
ATOM      7  C   UNL     1       3.359   6.902  17.958  0.00  0.00    +0.000 A 
ENDROOT
BRANCH   7   8
ATOM      8  C   UNL     1       2.429   7.839  18.659  0.00  0.00    +0.000 A 
ATOM      9  N   UNL     1       2.120   7.515  19.949  0.00  0.00    +0.000 NA
ATOM     10  C   UNL     1       1.317   8.357  20.640  0.00  0.00    +0.000 A 
ATOM     11  C   UNL     1       0.989   8.071  21.958  0.00  0.00    +0.000 A 
ATOM     12  C   UNL     1       0.155   8.911  22.699  0.00  0.00    +0.000 A 
ATOM     13  C   UNL     1      -0.354  10.064  22.115  0.00  0.00    +0.000 A 
ATOM     14  C   UNL     1      -0.028  10.366  20.793  0.00  0.00    +0.000 A 
ATOM     15  C   UNL     1       0.794   9.531  20.044  0.00  0.00    +0.000 A 
ATOM     16  N   UNL     1       1.065   9.846  18.767  0.00  0.00    +0.000 NA
ATOM     17  C   UNL     1       1.869   8.994  18.104  0.00  0.00    +0.000 A 
BRANCH  17  18
ATOM     18  O   UNL     1       2.041   9.382  16.816  0.00  0.00    +0.000 OA
ATOM     19  H   UNL     1       2.027   8.513  16.373  0.00  0.00    +0.000 HD
ENDBRANCH  17  18
ENDBRANCH   7   8
BRANCH   1  22
ATOM     20  O   UNL     1       3.350   3.442  20.169  0.00  0.00    +0.000 OA
ATOM     21  C   UNL     1       2.291   3.937  19.779  0.00  0.00    +0.000 C 
ATOM     22  N   UNL     1       2.183   4.903  18.777  0.00  0.00    +0.000 N 
ATOM     23  H   UNL     1       1.283   5.388  18.711  0.00  0.00    +0.000 HD
BRANCH  21  24
ATOM     24  C   UNL     1       0.939   3.543  20.402  0.00  0.00    +0.000 C 
ATOM     25  F   UNL     1       0.122   4.617  20.605  0.00  0.00    +0.000 F 
ATOM     26  F   UNL     1       0.240   2.673  19.621  0.00  0.00    +0.000 F 
ATOM     27  F   UNL     1       1.082   2.945  21.618  0.00  0.00    +0.000 F 
ENDBRANCH  21  24
ENDBRANCH   1  22
TORSDOF 4
ENDMDL
MODEL 9
REMARK VINA RESULT:      -7.7      3.640      6.391
REMARK  Name = 
REMARK  4 active torsions:
REMARK  status: ('A' for Active; 'I' for Inactive)
REMARK    1  A    between atoms: C_2  and  C_22
REMARK    2  A    between atoms: N_3  and  C_4
REMARK    3  A    between atoms: C_10  and  C_11
REMARK    4  A    between atoms: C_20  and  O_21
REMARK                            x       y       z     vdW  Elec       q    Type
REMARK                         _______ _______ _______ _____ _____    ______ ____
ROOT
ATOM      1  C   UNL     1       2.997   4.599  19.961  0.00  0.00    +0.000 A 
ATOM      2  C   UNL     1       2.090   4.141  20.931  0.00  0.00    +0.000 A 
ATOM      3  C   UNL     1       2.221   2.875  21.494  0.00  0.00    +0.000 A 
ATOM      4 CL   UNL     1       1.108   2.345  22.692  0.00  0.00    +0.000 Cl
ATOM      5  C   UNL     1       3.256   2.044  21.100  0.00  0.00    +0.000 A 
ATOM      6  C   UNL     1       4.150   2.476  20.119  0.00  0.00    +0.000 A 
ATOM      7  C   UNL     1       4.042   3.743  19.497  0.00  0.00    +0.000 A 
ENDROOT
BRANCH   7   8
ATOM      8  C   UNL     1       5.021   4.138  18.439  0.00  0.00    +0.000 A 
ATOM      9  N   UNL     1       4.706   3.759  17.166  0.00  0.00    +0.000 NA
ATOM     10  C   UNL     1       5.540   4.133  16.168  0.00  0.00    +0.000 A 
ATOM     11  C   UNL     1       5.250   3.778  14.857  0.00  0.00    +0.000 A 
ATOM     12  C   UNL     1       6.093   4.138  13.804  0.00  0.00    +0.000 A 
ATOM     13  C   UNL     1       7.242   4.872  14.062  0.00  0.00    +0.000 A 
ATOM     14  C   UNL     1       7.543   5.240  15.373  0.00  0.00    +0.000 A 
ATOM     15  C   UNL     1       6.715   4.879  16.430  0.00  0.00    +0.000 A 
ATOM     16  N   UNL     1       7.053   5.232  17.681  0.00  0.00    +0.000 NA
ATOM     17  C   UNL     1       6.204   4.851  18.655  0.00  0.00    +0.000 A 
BRANCH  17  18
ATOM     18  O   UNL     1       6.661   5.220  19.877  0.00  0.00    +0.000 OA
ATOM     19  H   UNL     1       6.113   6.011  20.032  0.00  0.00    +0.000 HD
ENDBRANCH  17  18
ENDBRANCH   7   8
BRANCH   1  22
ATOM     20  O   UNL     1       1.638   5.556  17.492  0.00  0.00    +0.000 OA
ATOM     21  C   UNL     1       2.242   6.310  18.256  0.00  0.00    +0.000 C 
ATOM     22  N   UNL     1       2.884   5.911  19.429  0.00  0.00    +0.000 N 
ATOM     23  H   UNL     1       3.146   6.659  20.079  0.00  0.00    +0.000 HD
BRANCH  21  24
ATOM     24  C   UNL     1       2.326   7.825  17.993  0.00  0.00    +0.000 C 
ATOM     25  F   UNL     1       2.508   8.547  19.137  0.00  0.00    +0.000 F 
ATOM     26  F   UNL     1       3.357   8.154  17.166  0.00  0.00    +0.000 F 
ATOM     27  F   UNL     1       1.193   8.317  17.416  0.00  0.00    +0.000 F 
ENDBRANCH  21  24
ENDBRANCH   1  22
TORSDOF 4
ENDMDL
