MODEL 1
REMARK VINA RESULT:      -8.9      0.000      0.000
REMARK  Name = 
REMARK  3 active torsions:
REMARK  status: ('A' for Active; 'I' for Inactive)
REMARK    1  A    between atoms: C_7  and  N_8
REMARK    2  A    between atoms: C_9  and  C_11
REMARK    3  A    between atoms: N_14  and  C_15
REMARK                            x       y       z     vdW  Elec       q    Type
REMARK                         _______ _______ _______ _____ _____    ______ ____
ROOT
ATOM      1  N   UNL     1       2.357   7.683  19.571  0.00  0.00    +0.000 N 
ATOM      2  C   UNL     1       2.276   6.356  19.960  0.00  0.00    +0.000 C 
ATOM      3  O   UNL     1       1.456   5.878  20.740  0.00  0.00    +0.000 OA
ATOM      4  H   UNL     1       3.129   7.904  18.944  0.00  0.00    +0.000 HD
ENDROOT
BRANCH   1  11
ATOM      5  O   UNL     1      -2.972  12.612  22.051  0.00  0.00    +0.000 OA
ATOM      6  C   UNL     1      -1.977  11.906  21.904  0.00  0.00    +0.000 C 
ATOM      7  C   UNL     1      -1.165  11.401  23.073  0.00  0.00    +0.000 C 
ATOM      8  C   UNL     1      -0.593  10.021  22.816  0.00  0.00    +0.000 C 
ATOM      9  C   UNL     1       0.012   9.915  21.445  0.00  0.00    +0.000 A 
ATOM     10  C   UNL     1       0.959   8.919  21.182  0.00  0.00    +0.000 A 
ATOM     11  C   UNL     1       1.455   8.718  19.893  0.00  0.00    +0.000 A 
ATOM     12  C   UNL     1       0.991   9.555  18.870  0.00  0.00    +0.000 A 
ATOM     13  F   UNL     1       1.447   9.389  17.619  0.00  0.00    +0.000 F 
ATOM     14  C   UNL     1       0.040  10.550  19.111  0.00  0.00    +0.000 A 
ATOM     15  C   UNL     1      -0.458  10.716  20.402  0.00  0.00    +0.000 A 
ATOM     16  N   UNL     1      -1.479  11.637  20.654  0.00  0.00    +0.000 N 
ATOM     17  H   UNL     1      -1.954  12.096  19.888  0.00  0.00    +0.000 HD
ENDBRANCH   1  11
BRANCH   2  18
ATOM     18  C   UNL     1       3.279   5.497  19.317  0.00  0.00    +0.000 A 
ATOM     19  C   UNL     1       3.581   4.165  19.681  0.00  0.00    +0.000 A 
ATOM     20  C   UNL     1       4.492   3.737  18.748  0.00  0.00    +0.000 A 
ATOM     21  N   UNL     1       4.684   4.773  17.863  0.00  0.00    +0.000 N 
ATOM     22  N   UNL     1       4.006   5.890  18.258  0.00  0.00    +0.000 NA
BRANCH  21  23
ATOM     23  C   UNL     1       5.415   4.785  16.648  0.00  0.00    +0.000 A 
ATOM     24  C   UNL     1       4.780   4.361  15.466  0.00  0.00    +0.000 A 
ATOM     25  C   UNL     1       5.493   4.297  14.268  0.00  0.00    +0.000 A 
ATOM     26  C   UNL     1       6.836   4.651  14.250  0.00  0.00    +0.000 A 
ATOM     27  F   UNL     1       7.523   4.567  13.104  0.00  0.00    +0.000 F 
ATOM     28  C   UNL     1       7.478   5.083  15.402  0.00  0.00    +0.000 A 
ATOM     29  C   UNL     1       6.765   5.153  16.596  0.00  0.00    +0.000 A 
ATOM     30  F   UNL     1       7.436   5.550  17.684  0.00  0.00    +0.000 F 
ENDBRANCH  21  23
ENDBRANCH   2  18
TORSDOF 3
ENDMDL
MODEL 2
REMARK VINA RESULT:      -8.6      1.023      1.171
REMARK  Name = 
REMARK  3 active torsions:
REMARK  status: ('A' for Active; 'I' for Inactive)
REMARK    1  A    between atoms: C_7  and  N_8
REMARK    2  A    between atoms: C_9  and  C_11
REMARK    3  A    between atoms: N_14  and  C_15
REMARK                            x       y       z     vdW  Elec       q    Type
REMARK                         _______ _______ _______ _____ _____    ______ ____
ROOT
ATOM      1  N   UNL     1       2.712   7.016  18.881  0.00  0.00    +0.000 N 
ATOM      2  C   UNL     1       2.457   5.659  18.981  0.00  0.00    +0.000 C 
ATOM      3  O   UNL     1       1.546   5.138  19.619  0.00  0.00    +0.000 OA
ATOM      4  H   UNL     1       3.537   7.263  18.336  0.00  0.00    +0.000 HD
ENDROOT
BRANCH   1  11
ATOM      5  O   UNL     1      -2.111  11.964  22.213  0.00  0.00    +0.000 OA
ATOM      6  C   UNL     1      -1.196  11.190  21.942  0.00  0.00    +0.000 C 
ATOM      7  C   UNL     1      -0.478  10.385  22.999  0.00  0.00    +0.000 C 
ATOM      8  C   UNL     1      -0.055   9.022  22.489  0.00  0.00    +0.000 C 
ATOM      9  C   UNL     1       0.574   9.108  21.127  0.00  0.00    +0.000 A 
ATOM     10  C   UNL     1       1.413   8.078  20.686  0.00  0.00    +0.000 A 
ATOM     11  C   UNL     1       1.921   8.068  19.387  0.00  0.00    +0.000 A 
ATOM     12  C   UNL     1       1.582   9.130  18.538  0.00  0.00    +0.000 A 
ATOM     13  F   UNL     1       2.053   9.152  17.282  0.00  0.00    +0.000 F 
ATOM     14  C   UNL     1       0.740  10.164  18.957  0.00  0.00    +0.000 A 
ATOM     15  C   UNL     1       0.225  10.139  20.252  0.00  0.00    +0.000 A 
ATOM     16  N   UNL     1      -0.694  11.106  20.667  0.00  0.00    +0.000 N 
ATOM     17  H   UNL     1      -1.093  11.753  19.999  0.00  0.00    +0.000 HD
ENDBRANCH   1  11
BRANCH   2  18
ATOM     18  C   UNL     1       3.386   4.831  18.200  0.00  0.00    +0.000 A 
ATOM     19  C   UNL     1       3.573   3.438  18.346  0.00  0.00    +0.000 A 
ATOM     20  C   UNL     1       4.448   3.088  17.348  0.00  0.00    +0.000 A 
ATOM     21  N   UNL     1       4.730   4.231  16.636  0.00  0.00    +0.000 N 
ATOM     22  N   UNL     1       4.147   5.325  17.209  0.00  0.00    +0.000 NA
BRANCH  21  23
ATOM     23  C   UNL     1       5.464   4.373  15.430  0.00  0.00    +0.000 A 
ATOM     24  C   UNL     1       4.974   3.767  14.259  0.00  0.00    +0.000 A 
ATOM     25  C   UNL     1       5.707   3.831  13.074  0.00  0.00    +0.000 A 
ATOM     26  C   UNL     1       6.927   4.497  13.058  0.00  0.00    +0.000 A 
ATOM     27  F   UNL     1       7.640   4.538  11.925  0.00  0.00    +0.000 F 
ATOM     28  C   UNL     1       7.422   5.111  14.200  0.00  0.00    +0.000 A 
ATOM     29  C   UNL     1       6.687   5.052  15.381  0.00  0.00    +0.000 A 
ATOM     30  F   UNL     1       7.220   5.637  16.461  0.00  0.00    +0.000 F 
ENDBRANCH  21  23
ENDBRANCH   2  18
TORSDOF 3
ENDMDL
MODEL 3
REMARK VINA RESULT:      -8.5      1.002      1.351
REMARK  Name = 
REMARK  3 active torsions:
REMARK  status: ('A' for Active; 'I' for Inactive)
REMARK    1  A    between atoms: C_7  and  N_8
REMARK    2  A    between atoms: C_9  and  C_11
REMARK    3  A    between atoms: N_14  and  C_15
REMARK                            x       y       z     vdW  Elec       q    Type
REMARK                         _______ _______ _______ _____ _____    ______ ____
ROOT
ATOM      1  N   UNL     1       2.182   7.750  19.996  0.00  0.00    +0.000 N 
ATOM      2  C   UNL     1       1.990   6.414  20.303  0.00  0.00    +0.000 C 
ATOM      3  O   UNL     1       1.048   5.942  20.935  0.00  0.00    +0.000 OA
ATOM      4  H   UNL     1       3.043   7.960  19.495  0.00  0.00    +0.000 HD
ENDROOT
BRANCH   1  11
ATOM      5  O   UNL     1      -3.128  12.879  22.081  0.00  0.00    +0.000 OA
ATOM      6  C   UNL     1      -2.141  12.153  21.996  0.00  0.00    +0.000 C 
ATOM      7  C   UNL     1      -1.362  11.702  23.209  0.00  0.00    +0.000 C 
ATOM      8  C   UNL     1      -0.805  10.302  23.041  0.00  0.00    +0.000 C 
ATOM      9  C   UNL     1      -0.172  10.113  21.691  0.00  0.00    +0.000 A 
ATOM     10  C   UNL     1       0.767   9.091  21.504  0.00  0.00    +0.000 A 
ATOM     11  C   UNL     1       1.288   8.814  20.240  0.00  0.00    +0.000 A 
ATOM     12  C   UNL     1       0.860   9.600  19.163  0.00  0.00    +0.000 A 
ATOM     13  F   UNL     1       1.341   9.359  17.933  0.00  0.00    +0.000 F 
ATOM     14  C   UNL     1      -0.082  10.619  19.328  0.00  0.00    +0.000 A 
ATOM     15  C   UNL     1      -0.606  10.862  20.596  0.00  0.00    +0.000 A 
ATOM     16  N   UNL     1      -1.619  11.809  20.774  0.00  0.00    +0.000 N 
ATOM     17  H   UNL     1      -2.070  12.232  19.973  0.00  0.00    +0.000 HD
ENDBRANCH   1  11
BRANCH   2  18
ATOM     18  C   UNL     1       3.036   5.534  19.763  0.00  0.00    +0.000 A 
ATOM     19  C   UNL     1       3.308   4.215  20.190  0.00  0.00    +0.000 A 
ATOM     20  C   UNL     1       4.285   3.759  19.342  0.00  0.00    +0.000 A 
ATOM     21  N   UNL     1       4.545   4.766  18.442  0.00  0.00    +0.000 N 
ATOM     22  N   UNL     1       3.841   5.895  18.750  0.00  0.00    +0.000 NA
BRANCH  21  23
ATOM     23  C   UNL     1       5.364   4.740  17.285  0.00  0.00    +0.000 A 
ATOM     24  C   UNL     1       6.626   5.362  17.329  0.00  0.00    +0.000 A 
ATOM     25  C   UNL     1       7.426   5.411  16.187  0.00  0.00    +0.000 A 
ATOM     26  C   UNL     1       6.968   4.845  15.003  0.00  0.00    +0.000 A 
ATOM     27  F   UNL     1       7.728   4.914  13.903  0.00  0.00    +0.000 F 
ATOM     28  C   UNL     1       5.732   4.217  14.942  0.00  0.00    +0.000 A 
ATOM     29  C   UNL     1       4.936   4.161  16.084  0.00  0.00    +0.000 A 
ATOM     30  F   UNL     1       3.742   3.568  15.966  0.00  0.00    +0.000 F 
ENDBRANCH  21  23
ENDBRANCH   2  18
TORSDOF 3
ENDMDL
MODEL 4
REMARK VINA RESULT:      -8.4      3.726      4.806
REMARK  Name = 
REMARK  3 active torsions:
REMARK  status: ('A' for Active; 'I' for Inactive)
REMARK    1  A    between atoms: C_7  and  N_8
REMARK    2  A    between atoms: C_9  and  C_11
REMARK    3  A    between atoms: N_14  and  C_15
REMARK                            x       y       z     vdW  Elec       q    Type
REMARK                         _______ _______ _______ _____ _____    ______ ____
ROOT
ATOM      1  N   UNL     1       0.940  10.165  19.371  0.00  0.00    +0.000 N 
ATOM      2  C   UNL     1       1.638   9.282  18.566  0.00  0.00    +0.000 C 
ATOM      3  O   UNL     1       2.041   9.501  17.426  0.00  0.00    +0.000 OA
ATOM      4  H   UNL     1       0.654   9.794  20.276  0.00  0.00    +0.000 HD
ENDROOT
BRANCH   1  11
ATOM      5  O   UNL     1       0.153  17.760  18.633  0.00  0.00    +0.000 OA
ATOM      6  C   UNL     1       0.520  16.589  18.580  0.00  0.00    +0.000 C 
ATOM      7  C   UNL     1       1.967  16.203  18.383  0.00  0.00    +0.000 C 
ATOM      8  C   UNL     1       2.325  14.932  19.126  0.00  0.00    +0.000 C 
ATOM      9  C   UNL     1       1.284  13.865  18.938  0.00  0.00    +0.000 A 
ATOM     10  C   UNL     1       1.623  12.523  19.150  0.00  0.00    +0.000 A 
ATOM     11  C   UNL     1       0.655  11.519  19.096  0.00  0.00    +0.000 A 
ATOM     12  C   UNL     1      -0.665  11.889  18.807  0.00  0.00    +0.000 A 
ATOM     13  F   UNL     1      -1.620  10.948  18.748  0.00  0.00    +0.000 F 
ATOM     14  C   UNL     1      -1.023  13.224  18.600  0.00  0.00    +0.000 A 
ATOM     15  C   UNL     1      -0.044  14.212  18.682  0.00  0.00    +0.000 A 
ATOM     16  N   UNL     1      -0.390  15.562  18.575  0.00  0.00    +0.000 N 
ATOM     17  H   UNL     1      -1.362  15.842  18.568  0.00  0.00    +0.000 HD
ENDBRANCH   1  11
BRANCH   2  18
ATOM     18  C   UNL     1       1.912   7.992  19.215  0.00  0.00    +0.000 A 
ATOM     19  C   UNL     1       1.610   7.661  20.555  0.00  0.00    +0.000 A 
ATOM     20  C   UNL     1       1.946   6.336  20.680  0.00  0.00    +0.000 A 
ATOM     21  N   UNL     1       2.395   5.913  19.451  0.00  0.00    +0.000 N 
ATOM     22  N   UNL     1       2.460   6.951  18.566  0.00  0.00    +0.000 NA
BRANCH  21  23
ATOM     23  C   UNL     1       2.724   4.601  19.024  0.00  0.00    +0.000 A 
ATOM     24  C   UNL     1       3.792   3.929  19.647  0.00  0.00    +0.000 A 
ATOM     25  C   UNL     1       4.182   2.665  19.204  0.00  0.00    +0.000 A 
ATOM     26  C   UNL     1       3.511   2.074  18.140  0.00  0.00    +0.000 A 
ATOM     27  F   UNL     1       3.903   0.871  17.702  0.00  0.00    +0.000 F 
ATOM     28  C   UNL     1       2.448   2.715  17.520  0.00  0.00    +0.000 A 
ATOM     29  C   UNL     1       2.055   3.974  17.967  0.00  0.00    +0.000 A 
ATOM     30  F   UNL     1       1.042   4.562  17.318  0.00  0.00    +0.000 F 
ENDBRANCH  21  23
ENDBRANCH   2  18
TORSDOF 3
ENDMDL
MODEL 5
REMARK VINA RESULT:      -8.4      3.687      4.994
REMARK  Name = 
REMARK  3 active torsions:
REMARK  status: ('A' for Active; 'I' for Inactive)
REMARK    1  A    between atoms: C_7  and  N_8
REMARK    2  A    between atoms: C_9  and  C_11
REMARK    3  A    between atoms: N_14  and  C_15
REMARK                            x       y       z     vdW  Elec       q    Type
REMARK                         _______ _______ _______ _____ _____    ______ ____
ROOT
ATOM      1  N   UNL     1      -1.259   9.790  18.142  0.00  0.00    +0.000 N 
ATOM      2  C   UNL     1      -0.034  10.294  18.545  0.00  0.00    +0.000 C 
ATOM      3  O   UNL     1       0.277  11.481  18.609  0.00  0.00    +0.000 OA
ATOM      4  H   UNL     1      -1.322   8.774  18.116  0.00  0.00    +0.000 HD
ENDROOT
BRANCH   1  11
ATOM      5  O   UNL     1      -7.917  13.551  17.526  0.00  0.00    +0.000 OA
ATOM      6  C   UNL     1      -6.768  13.193  17.776  0.00  0.00    +0.000 C 
ATOM      7  C   UNL     1      -6.017  13.679  18.993  0.00  0.00    +0.000 C 
ATOM      8  C   UNL     1      -5.094  12.617  19.556  0.00  0.00    +0.000 C 
ATOM      9  C   UNL     1      -4.308  11.933  18.474  0.00  0.00    +0.000 A 
ATOM     10  C   UNL     1      -3.117  11.270  18.798  0.00  0.00    +0.000 A 
ATOM     11  C   UNL     1      -2.423  10.529  17.842  0.00  0.00    +0.000 A 
ATOM     12  C   UNL     1      -2.940  10.480  16.541  0.00  0.00    +0.000 A 
ATOM     13  F   UNL     1      -2.296   9.776  15.597  0.00  0.00    +0.000 F 
ATOM     14  C   UNL     1      -4.130  11.128  16.200  0.00  0.00    +0.000 A 
ATOM     15  C   UNL     1      -4.819  11.843  17.178  0.00  0.00    +0.000 A 
ATOM     16  N   UNL     1      -6.059  12.421  16.891  0.00  0.00    +0.000 N 
ATOM     17  H   UNL     1      -6.527  12.218  16.017  0.00  0.00    +0.000 HD
ENDBRANCH   1  11
BRANCH   2  18
ATOM     18  C   UNL     1       0.923   9.253  18.944  0.00  0.00    +0.000 A 
ATOM     19  C   UNL     1       1.136   8.788  20.262  0.00  0.00    +0.000 A 
ATOM     20  C   UNL     1       2.032   7.757  20.137  0.00  0.00    +0.000 A 
ATOM     21  N   UNL     1       2.302   7.613  18.795  0.00  0.00    +0.000 N 
ATOM     22  N   UNL     1       1.690   8.589  18.063  0.00  0.00    +0.000 NA
BRANCH  21  23
ATOM     23  C   UNL     1       3.051   6.604  18.139  0.00  0.00    +0.000 A 
ATOM     24  C   UNL     1       4.199   6.970  17.413  0.00  0.00    +0.000 A 
ATOM     25  C   UNL     1       4.918   6.009  16.701  0.00  0.00    +0.000 A 
ATOM     26  C   UNL     1       4.490   4.687  16.710  0.00  0.00    +0.000 A 
ATOM     27  F   UNL     1       5.168   3.771  16.007  0.00  0.00    +0.000 F 
ATOM     28  C   UNL     1       3.367   4.304  17.428  0.00  0.00    +0.000 A 
ATOM     29  C   UNL     1       2.654   5.262  18.145  0.00  0.00    +0.000 A 
ATOM     30  F   UNL     1       1.563   4.845  18.800  0.00  0.00    +0.000 F 
ENDBRANCH  21  23
ENDBRANCH   2  18
TORSDOF 3
ENDMDL
MODEL 6
REMARK VINA RESULT:      -8.4      3.866      5.141
REMARK  Name = 
REMARK  3 active torsions:
REMARK  status: ('A' for Active; 'I' for Inactive)
REMARK    1  A    between atoms: C_7  and  N_8
REMARK    2  A    between atoms: C_9  and  C_11
REMARK    3  A    between atoms: N_14  and  C_15
REMARK                            x       y       z     vdW  Elec       q    Type
REMARK                         _______ _______ _______ _____ _____    ______ ____
ROOT
ATOM      1  N   UNL     1       1.372  10.720  19.408  0.00  0.00    +0.000 N 
ATOM      2  C   UNL     1       1.702   9.700  18.532  0.00  0.00    +0.000 C 
ATOM      3  O   UNL     1       1.857   9.808  17.318  0.00  0.00    +0.000 OA
ATOM      4  H   UNL     1       1.248  10.435  20.378  0.00  0.00    +0.000 HD
ENDROOT
BRANCH   1  11
ATOM      5  O   UNL     1       1.798  18.285  18.208  0.00  0.00    +0.000 OA
ATOM      6  C   UNL     1       1.900  17.062  18.154  0.00  0.00    +0.000 C 
ATOM      7  C   UNL     1       3.090  16.377  17.525  0.00  0.00    +0.000 C 
ATOM      8  C   UNL     1       3.443  15.083  18.231  0.00  0.00    +0.000 C 
ATOM      9  C   UNL     1       2.223  14.251  18.511  0.00  0.00    +0.000 A 
ATOM     10  C   UNL     1       2.359  12.876  18.733  0.00  0.00    +0.000 A 
ATOM     11  C   UNL     1       1.266  12.095  19.108  0.00  0.00    +0.000 A 
ATOM     12  C   UNL     1       0.020  12.722  19.240  0.00  0.00    +0.000 A 
ATOM     13  F   UNL     1      -1.052  12.000  19.600  0.00  0.00    +0.000 F 
ATOM     14  C   UNL     1      -0.134  14.095  19.031  0.00  0.00    +0.000 A 
ATOM     15  C   UNL     1       0.977  14.859  18.680  0.00  0.00    +0.000 A 
ATOM     16  N   UNL     1       0.872  16.247  18.558  0.00  0.00    +0.000 N 
ATOM     17  H   UNL     1       0.028  16.724  18.848  0.00  0.00    +0.000 HD
ENDBRANCH   1  11
BRANCH   2  18
ATOM     18  C   UNL     1       1.897   8.402  19.193  0.00  0.00    +0.000 A 
ATOM     19  C   UNL     1       1.455   8.062  20.492  0.00  0.00    +0.000 A 
ATOM     20  C   UNL     1       1.765   6.734  20.638  0.00  0.00    +0.000 A 
ATOM     21  N   UNL     1       2.337   6.317  19.458  0.00  0.00    +0.000 N 
ATOM     22  N   UNL     1       2.501   7.362  18.595  0.00  0.00    +0.000 NA
BRANCH  21  23
ATOM     23  C   UNL     1       2.698   5.006  19.055  0.00  0.00    +0.000 A 
ATOM     24  C   UNL     1       1.706   4.156  18.533  0.00  0.00    +0.000 A 
ATOM     25  C   UNL     1       2.016   2.840  18.191  0.00  0.00    +0.000 A 
ATOM     26  C   UNL     1       3.311   2.371  18.373  0.00  0.00    +0.000 A 
ATOM     27  F   UNL     1       3.601   1.100  18.066  0.00  0.00    +0.000 F 
ATOM     28  C   UNL     1       4.307   3.196  18.877  0.00  0.00    +0.000 A 
ATOM     29  C   UNL     1       3.998   4.513  19.211  0.00  0.00    +0.000 A 
ATOM     30  F   UNL     1       4.987   5.260  19.718  0.00  0.00    +0.000 F 
ENDBRANCH  21  23
ENDBRANCH   2  18
TORSDOF 3
ENDMDL
MODEL 7
REMARK VINA RESULT:      -8.3      3.431     10.390
REMARK  Name = 
REMARK  3 active torsions:
REMARK  status: ('A' for Active; 'I' for Inactive)
REMARK    1  A    between atoms: C_7  and  N_8
REMARK    2  A    between atoms: C_9  and  C_11
REMARK    3  A    between atoms: N_14  and  C_15
REMARK                            x       y       z     vdW  Elec       q    Type
REMARK                         _______ _______ _______ _____ _____    ______ ____
ROOT
ATOM      1  N   UNL     1       0.927   8.491  20.464  0.00  0.00    +0.000 N 
ATOM      2  C   UNL     1       1.088   9.323  21.559  0.00  0.00    +0.000 C 
ATOM      3  O   UNL     1       1.816   9.115  22.527  0.00  0.00    +0.000 OA
ATOM      4  H   UNL     1       0.250   8.810  19.773  0.00  0.00    +0.000 HD
ENDROOT
BRANCH   1  11
ATOM      5  O   UNL     1       4.821   1.896  20.017  0.00  0.00    +0.000 OA
ATOM      6  C   UNL     1       3.962   2.769  20.116  0.00  0.00    +0.000 C 
ATOM      7  C   UNL     1       2.669   2.550  20.865  0.00  0.00    +0.000 C 
ATOM      8  C   UNL     1       2.189   3.810  21.557  0.00  0.00    +0.000 C 
ATOM      9  C   UNL     1       2.283   5.010  20.658  0.00  0.00    +0.000 A 
ATOM     10  C   UNL     1       1.500   6.139  20.927  0.00  0.00    +0.000 A 
ATOM     11  C   UNL     1       1.646   7.310  20.182  0.00  0.00    +0.000 A 
ATOM     12  C   UNL     1       2.586   7.320  19.144  0.00  0.00    +0.000 A 
ATOM     13  F   UNL     1       2.751   8.430  18.409  0.00  0.00    +0.000 F 
ATOM     14  C   UNL     1       3.381   6.205  18.865  0.00  0.00    +0.000 A 
ATOM     15  C   UNL     1       3.235   5.055  19.638  0.00  0.00    +0.000 A 
ATOM     16  N   UNL     1       4.082   3.960  19.444  0.00  0.00    +0.000 N 
ATOM     17  H   UNL     1       4.888   4.038  18.837  0.00  0.00    +0.000 HD
ENDBRANCH   1  11
BRANCH   2  18
ATOM     18  C   UNL     1       0.305  10.563  21.470  0.00  0.00    +0.000 A 
ATOM     19  C   UNL     1      -0.214  11.130  20.284  0.00  0.00    +0.000 A 
ATOM     20  C   UNL     1      -0.952  12.210  20.698  0.00  0.00    +0.000 A 
ATOM     21  N   UNL     1      -0.885  12.247  22.071  0.00  0.00    +0.000 N 
ATOM     22  N   UNL     1      -0.040  11.286  22.549  0.00  0.00    +0.000 NA
BRANCH  21  23
ATOM     23  C   UNL     1      -1.588  13.081  22.977  0.00  0.00    +0.000 A 
ATOM     24  C   UNL     1      -2.852  12.670  23.440  0.00  0.00    +0.000 A 
ATOM     25  C   UNL     1      -3.598  13.500  24.278  0.00  0.00    +0.000 A 
ATOM     26  C   UNL     1      -3.086  14.736  24.651  0.00  0.00    +0.000 A 
ATOM     27  F   UNL     1      -3.813  15.540  25.437  0.00  0.00    +0.000 F 
ATOM     28  C   UNL     1      -1.837  15.154  24.215  0.00  0.00    +0.000 A 
ATOM     29  C   UNL     1      -1.090  14.323  23.384  0.00  0.00    +0.000 A 
ATOM     30  F   UNL     1       0.097  14.784  22.969  0.00  0.00    +0.000 F 
ENDBRANCH  21  23
ENDBRANCH   2  18
TORSDOF 3
ENDMDL
MODEL 8
REMARK VINA RESULT:      -8.3      3.451     10.432
REMARK  Name = 
REMARK  3 active torsions:
REMARK  status: ('A' for Active; 'I' for Inactive)
REMARK    1  A    between atoms: C_7  and  N_8
REMARK    2  A    between atoms: C_9  and  C_11
REMARK    3  A    between atoms: N_14  and  C_15
REMARK                            x       y       z     vdW  Elec       q    Type
REMARK                         _______ _______ _______ _____ _____    ______ ____
ROOT
ATOM      1  N   UNL     1       0.903   8.541  20.392  0.00  0.00    +0.000 N 
ATOM      2  C   UNL     1       1.033   9.372  21.492  0.00  0.00    +0.000 C 
ATOM      3  O   UNL     1       1.736   9.166  22.478  0.00  0.00    +0.000 OA
ATOM      4  H   UNL     1       0.243   8.858  19.685  0.00  0.00    +0.000 HD
ENDROOT
BRANCH   1  11
ATOM      5  O   UNL     1       4.852   1.973  20.044  0.00  0.00    +0.000 OA
ATOM      6  C   UNL     1       3.985   2.840  20.128  0.00  0.00    +0.000 C 
ATOM      7  C   UNL     1       2.688   2.618  20.868  0.00  0.00    +0.000 C 
ATOM      8  C   UNL     1       2.193   3.881  21.544  0.00  0.00    +0.000 C 
ATOM      9  C   UNL     1       2.285   5.072  20.633  0.00  0.00    +0.000 A 
ATOM     10  C   UNL     1       1.491   6.198  20.884  0.00  0.00    +0.000 A 
ATOM     11  C   UNL     1       1.633   7.362  20.129  0.00  0.00    +0.000 A 
ATOM     12  C   UNL     1       2.581   7.369  19.097  0.00  0.00    +0.000 A 
ATOM     13  F   UNL     1       2.743   8.473  18.352  0.00  0.00    +0.000 F 
ATOM     14  C   UNL     1       3.387   6.258  18.836  0.00  0.00    +0.000 A 
ATOM     15  C   UNL     1       3.244   5.114  19.620  0.00  0.00    +0.000 A 
ATOM     16  N   UNL     1       4.102   4.024  19.444  0.00  0.00    +0.000 N 
ATOM     17  H   UNL     1       4.911   4.102  18.842  0.00  0.00    +0.000 HD
ENDBRANCH   1  11
BRANCH   2  18
ATOM     18  C   UNL     1       0.248  10.609  21.384  0.00  0.00    +0.000 A 
ATOM     19  C   UNL     1      -0.398  11.079  20.218  0.00  0.00    +0.000 A 
ATOM     20  C   UNL     1      -1.083  12.199  20.616  0.00  0.00    +0.000 A 
ATOM     21  N   UNL     1      -0.864  12.352  21.966  0.00  0.00    +0.000 N 
ATOM     22  N   UNL     1       0.026  11.426  22.428  0.00  0.00    +0.000 NA
BRANCH  21  23
ATOM     23  C   UNL     1      -1.461  13.268  22.869  0.00  0.00    +0.000 A 
ATOM     24  C   UNL     1      -0.745  14.420  23.243  0.00  0.00    +0.000 A 
ATOM     25  C   UNL     1      -1.277  15.305  24.182  0.00  0.00    +0.000 A 
ATOM     26  C   UNL     1      -2.519  15.040  24.747  0.00  0.00    +0.000 A 
ATOM     27  F   UNL     1      -3.017  15.879  25.664  0.00  0.00    +0.000 F 
ATOM     28  C   UNL     1      -3.246  13.916  24.382  0.00  0.00    +0.000 A 
ATOM     29  C   UNL     1      -2.717  13.036  23.441  0.00  0.00    +0.000 A 
ATOM     30  F   UNL     1      -3.446  11.953  23.143  0.00  0.00    +0.000 F 
ENDBRANCH  21  23
ENDBRANCH   2  18
TORSDOF 3
ENDMDL
MODEL 9
REMARK VINA RESULT:      -8.2      1.227      1.853
REMARK  Name = 
REMARK  3 active torsions:
REMARK  status: ('A' for Active; 'I' for Inactive)
REMARK    1  A    between atoms: C_7  and  N_8
REMARK    2  A    between atoms: C_9  and  C_11
REMARK    3  A    between atoms: N_14  and  C_15
REMARK                            x       y       z     vdW  Elec       q    Type
REMARK                         _______ _______ _______ _____ _____    ______ ____
ROOT
ATOM      1  N   UNL     1       2.202   7.695  19.751  0.00  0.00    +0.000 N 
ATOM      2  C   UNL     1       2.132   6.351  20.075  0.00  0.00    +0.000 C 
ATOM      3  O   UNL     1       1.273   5.816  20.771  0.00  0.00    +0.000 OA
ATOM      4  H   UNL     1       3.010   7.965  19.192  0.00  0.00    +0.000 HD
ENDROOT
BRANCH   1  11
ATOM      5  O   UNL     1      -2.690  13.565  20.426  0.00  0.00    +0.000 OA
ATOM      6  C   UNL     1      -2.118  12.518  20.134  0.00  0.00    +0.000 C 
ATOM      7  C   UNL     1      -2.347  11.810  18.820  0.00  0.00    +0.000 C 
ATOM      8  C   UNL     1      -1.092  11.128  18.313  0.00  0.00    +0.000 C 
ATOM      9  C   UNL     1      -0.391  10.369  19.405  0.00  0.00    +0.000 A 
ATOM     10  C   UNL     1       0.495   9.338  19.071  0.00  0.00    +0.000 A 
ATOM     11  C   UNL     1       1.249   8.691  20.051  0.00  0.00    +0.000 A 
ATOM     12  C   UNL     1       1.082   9.090  21.383  0.00  0.00    +0.000 A 
ATOM     13  F   UNL     1       1.791   8.488  22.350  0.00  0.00    +0.000 F 
ATOM     14  C   UNL     1       0.208  10.122  21.735  0.00  0.00    +0.000 A 
ATOM     15  C   UNL     1      -0.516  10.770  20.736  0.00  0.00    +0.000 A 
ATOM     16  N   UNL     1      -1.324  11.868  21.046  0.00  0.00    +0.000 N 
ATOM     17  H   UNL     1      -1.291  12.283  21.969  0.00  0.00    +0.000 HD
ENDBRANCH   1  11
BRANCH   2  18
ATOM     18  C   UNL     1       3.204   5.548  19.470  0.00  0.00    +0.000 A 
ATOM     19  C   UNL     1       3.607   4.259  19.887  0.00  0.00    +0.000 A 
ATOM     20  C   UNL     1       4.554   3.868  18.975  0.00  0.00    +0.000 A 
ATOM     21  N   UNL     1       4.671   4.880  18.050  0.00  0.00    +0.000 N 
ATOM     22  N   UNL     1       3.905   5.956  18.399  0.00  0.00    +0.000 NA
BRANCH  21  23
ATOM     23  C   UNL     1       5.407   4.902  16.838  0.00  0.00    +0.000 A 
ATOM     24  C   UNL     1       4.798   4.426  15.663  0.00  0.00    +0.000 A 
ATOM     25  C   UNL     1       5.519   4.371  14.469  0.00  0.00    +0.000 A 
ATOM     26  C   UNL     1       6.844   4.787  14.449  0.00  0.00    +0.000 A 
ATOM     27  F   UNL     1       7.541   4.711  13.308  0.00  0.00    +0.000 F 
ATOM     28  C   UNL     1       7.460   5.270  15.595  0.00  0.00    +0.000 A 
ATOM     29  C   UNL     1       6.738   5.331  16.785  0.00  0.00    +0.000 A 
ATOM     30  F   UNL     1       7.385   5.780  17.868  0.00  0.00    +0.000 F 
ENDBRANCH  21  23
ENDBRANCH   2  18
TORSDOF 3
ENDMDL
