MODEL 1
REMARK VINA RESULT:      -8.6      0.000      0.000
REMARK  Name = 
REMARK  6 active torsions:
REMARK  status: ('A' for Active; 'I' for Inactive)
REMARK    1  A    between atoms: N_1  and  C_2
REMARK    2  A    between atoms: C_2  and  C_3
REMARK    3  A    between atoms: C_3  and  C_4
REMARK    4  A    between atoms: C_8  and  N_9
REMARK    5  A    between atoms: C_14  and  C_15
REMARK    6  A    between atoms: C_21  and  C_22
REMARK                            x       y       z     vdW  Elec       q    Type
REMARK                         _______ _______ _______ _____ _____    ______ ____
ROOT
ATOM      1  N   UNL     1       3.870   4.653  19.192  0.00  0.00    +0.000 N 
ATOM      2  C   UNL     1       5.240   5.207  19.300  0.00  0.00    +0.000 C 
ATOM      3  C   UNL     1       5.743   5.077  17.897  0.00  0.00    +0.000 A 
ATOM      4  C   UNL     1       5.064   4.009  17.308  0.00  0.00    +0.000 A 
ATOM      5  C   UNL     1       5.200   3.657  15.979  0.00  0.00    +0.000 A 
ATOM      6  C   UNL     1       6.066   4.434  15.207  0.00  0.00    +0.000 A 
ATOM      7  C   UNL     1       6.727   5.545  15.780  0.00  0.00    +0.000 A 
ATOM      8  C   UNL     1       6.573   5.894  17.138  0.00  0.00    +0.000 A 
ATOM      9  C   UNL     1       3.939   3.642  18.205  0.00  0.00    +0.000 C 
ATOM     10  O   UNL     1       3.149   2.752  17.958  0.00  0.00    +0.000 OA
ENDROOT
BRANCH   1  15
ATOM     11  C   UNL     1       1.903   7.615  20.071  0.00  0.00    +0.000 A 
ATOM     12  C   UNL     1       2.220   8.415  18.966  0.00  0.00    +0.000 A 
ATOM     13  C   UNL     1       2.724   7.841  17.803  0.00  0.00    +0.000 A 
ATOM     14  C   UNL     1       3.017   6.486  17.769  0.00  0.00    +0.000 A 
ATOM     15  C   UNL     1       2.917   5.722  18.943  0.00  0.00    +0.000 A 
ATOM     16  C   UNL     1       2.227   6.254  20.039  0.00  0.00    +0.000 A 
BRANCH  11  17
ATOM     17  C   UNL     1       1.317   8.233  21.315  0.00  0.00    +0.000 C 
BRANCH  17  18
ATOM     18  C   UNL     1       0.487   9.487  21.012  0.00  0.00    +0.000 C 
BRANCH  18  19
ATOM     19  N   UNL     1       0.800  10.551  21.964  0.00  0.00    +0.000 NA
ATOM     20  H   UNL     1       0.219  10.446  22.795  0.00  0.00    +0.000 HD
ATOM     21  H   UNL     1       0.565  11.456  21.562  0.00  0.00    +0.000 HD
ENDBRANCH  18  19
ENDBRANCH  17  18
ENDBRANCH  11  17
ENDBRANCH   1  15
BRANCH   6  22
ATOM     22  C   UNL     1       6.281   4.156  13.768  0.00  0.00    +0.000 C 
ATOM     23  N   UNL     1       7.355   4.540  13.140  0.00  0.00    +0.000 NA
ATOM     24  C   UNL     1       7.210   4.049  11.756  0.00  0.00    +0.000 C 
ATOM     25  C   UNL     1       6.164   2.953  11.821  0.00  0.00    +0.000 C 
ATOM     26  C   UNL     1       5.264   3.417  12.941  0.00  0.00    +0.000 C 
ENDBRANCH   6  22
BRANCH   8  27
ATOM     27  C   UNL     1       7.213   7.161  17.649  0.00  0.00    +0.000 C 
ATOM     28  F   UNL     1       7.893   7.003  18.818  0.00  0.00    +0.000 F 
ATOM     29  F   UNL     1       8.111   7.683  16.771  0.00  0.00    +0.000 F 
ATOM     30  F   UNL     1       6.299   8.142  17.886  0.00  0.00    +0.000 F 
ENDBRANCH   8  27
TORSDOF 6
ENDMDL
MODEL 2
REMARK VINA RESULT:      -8.1      0.970      1.340
REMARK  Name = 
REMARK  6 active torsions:
REMARK  status: ('A' for Active; 'I' for Inactive)
REMARK    1  A    between atoms: N_1  and  C_2
REMARK    2  A    between atoms: C_2  and  C_3
REMARK    3  A    between atoms: C_3  and  C_4
REMARK    4  A    between atoms: C_8  and  N_9
REMARK    5  A    between atoms: C_14  and  C_15
REMARK    6  A    between atoms: C_21  and  C_22
REMARK                            x       y       z     vdW  Elec       q    Type
REMARK                         _______ _______ _______ _____ _____    ______ ____
ROOT
ATOM      1  N   UNL     1       3.036   3.963  18.769  0.00  0.00    +0.000 N 
ATOM      2  C   UNL     1       4.425   4.085  19.269  0.00  0.00    +0.000 C 
ATOM      3  C   UNL     1       5.205   4.223  18.000  0.00  0.00    +0.000 A 
ATOM      4  C   UNL     1       4.482   3.580  16.994  0.00  0.00    +0.000 A 
ATOM      5  C   UNL     1       4.851   3.589  15.663  0.00  0.00    +0.000 A 
ATOM      6  C   UNL     1       6.011   4.294  15.335  0.00  0.00    +0.000 A 
ATOM      7  C   UNL     1       6.729   4.987  16.337  0.00  0.00    +0.000 A 
ATOM      8  C   UNL     1       6.336   4.971  17.691  0.00  0.00    +0.000 A 
ATOM      9  C   UNL     1       3.129   3.286  17.530  0.00  0.00    +0.000 C 
ATOM     10  O   UNL     1       2.256   2.741  16.883  0.00  0.00    +0.000 OA
ENDROOT
BRANCH   1  15
ATOM     11  C   UNL     1       1.855   7.118  20.209  0.00  0.00    +0.000 A 
ATOM     12  C   UNL     1       2.418   7.999  19.278  0.00  0.00    +0.000 A 
ATOM     13  C   UNL     1       2.813   7.542  18.024  0.00  0.00    +0.000 A 
ATOM     14  C   UNL     1       2.749   6.188  17.728  0.00  0.00    +0.000 A 
ATOM     15  C   UNL     1       2.401   5.271  18.733  0.00  0.00    +0.000 A 
ATOM     16  C   UNL     1       1.820   5.750  19.914  0.00  0.00    +0.000 A 
BRANCH  11  17
ATOM     17  C   UNL     1       1.389   7.623  21.550  0.00  0.00    +0.000 C 
BRANCH  17  18
ATOM     18  C   UNL     1       0.977   9.100  21.510  0.00  0.00    +0.000 C 
BRANCH  18  19
ATOM     19  N   UNL     1       1.071   9.694  22.842  0.00  0.00    +0.000 NA
ATOM     20  H   UNL     1       0.497  10.536  22.881  0.00  0.00    +0.000 HD
ATOM     21  H   UNL     1       2.028   9.991  23.023  0.00  0.00    +0.000 HD
ENDBRANCH  18  19
ENDBRANCH  17  18
ENDBRANCH  11  17
ENDBRANCH   1  15
BRANCH   6  22
ATOM     22  C   UNL     1       6.494   4.381  13.938  0.00  0.00    +0.000 C 
ATOM     23  N   UNL     1       7.469   5.171  13.589  0.00  0.00    +0.000 NA
ATOM     24  C   UNL     1       7.674   4.947  12.146  0.00  0.00    +0.000 C 
ATOM     25  C   UNL     1       7.025   3.609  11.847  0.00  0.00    +0.000 C 
ATOM     26  C   UNL     1       5.882   3.565  12.832  0.00  0.00    +0.000 C 
ENDBRANCH   6  22
BRANCH   8  27
ATOM     27  C   UNL     1       7.079   5.831  18.683  0.00  0.00    +0.000 C 
ATOM     28  F   UNL     1       7.333   7.093  18.237  0.00  0.00    +0.000 F 
ATOM     29  F   UNL     1       6.401   5.986  19.851  0.00  0.00    +0.000 F 
ATOM     30  F   UNL     1       8.292   5.308  19.014  0.00  0.00    +0.000 F 
ENDBRANCH   8  27
TORSDOF 6
ENDMDL
MODEL 3
REMARK VINA RESULT:      -7.9      3.012      6.228
REMARK  Name = 
REMARK  6 active torsions:
REMARK  status: ('A' for Active; 'I' for Inactive)
REMARK    1  A    between atoms: N_1  and  C_2
REMARK    2  A    between atoms: C_2  and  C_3
REMARK    3  A    between atoms: C_3  and  C_4
REMARK    4  A    between atoms: C_8  and  N_9
REMARK    5  A    between atoms: C_14  and  C_15
REMARK    6  A    between atoms: C_21  and  C_22
REMARK                            x       y       z     vdW  Elec       q    Type
REMARK                         _______ _______ _______ _____ _____    ______ ____
ROOT
ATOM      1  N   UNL     1       6.050   5.358  15.749  0.00  0.00    +0.000 N 
ATOM      2  C   UNL     1       4.910   6.301  15.817  0.00  0.00    +0.000 C 
ATOM      3  C   UNL     1       4.086   5.719  16.922  0.00  0.00    +0.000 A 
ATOM      4  C   UNL     1       4.345   4.348  16.957  0.00  0.00    +0.000 A 
ATOM      5  C   UNL     1       3.833   3.498  17.918  0.00  0.00    +0.000 A 
ATOM      6  C   UNL     1       3.022   4.072  18.900  0.00  0.00    +0.000 A 
ATOM      7  C   UNL     1       2.788   5.467  18.902  0.00  0.00    +0.000 A 
ATOM      8  C   UNL     1       3.322   6.321  17.915  0.00  0.00    +0.000 A 
ATOM      9  C   UNL     1       5.524   4.090  16.093  0.00  0.00    +0.000 C 
ATOM     10  O   UNL     1       6.006   2.987  15.930  0.00  0.00    +0.000 OA
ENDROOT
BRANCH   1  15
ATOM     11  C   UNL     1       7.856   7.839  17.749  0.00  0.00    +0.000 A 
ATOM     12  C   UNL     1       8.096   7.059  18.887  0.00  0.00    +0.000 A 
ATOM     13  C   UNL     1       8.024   5.670  18.817  0.00  0.00    +0.000 A 
ATOM     14  C   UNL     1       7.606   5.056  17.646  0.00  0.00    +0.000 A 
ATOM     15  C   UNL     1       7.146   5.838  16.575  0.00  0.00    +0.000 A 
ATOM     16  C   UNL     1       7.409   7.214  16.580  0.00  0.00    +0.000 A 
BRANCH  11  17
ATOM     17  C   UNL     1       7.977   9.339  17.816  0.00  0.00    +0.000 C 
BRANCH  17  18
ATOM     18  C   UNL     1       9.017   9.799  18.846  0.00  0.00    +0.000 C 
BRANCH  18  19
ATOM     19  N   UNL     1       9.600  11.079  18.449  0.00  0.00    +0.000 NA
ATOM     20  H   UNL     1      10.551  11.146  18.808  0.00  0.00    +0.000 HD
ATOM     21  H   UNL     1       9.078  11.844  18.873  0.00  0.00    +0.000 HD
ENDBRANCH  18  19
ENDBRANCH  17  18
ENDBRANCH  11  17
ENDBRANCH   1  15
BRANCH   6  22
ATOM     22  C   UNL     1       2.429   3.259  19.986  0.00  0.00    +0.000 C 
ATOM     23  N   UNL     1       3.147   2.470  20.733  0.00  0.00    +0.000 NA
ATOM     24  C   UNL     1       2.211   1.874  21.705  0.00  0.00    +0.000 C 
ATOM     25  C   UNL     1       0.996   2.782  21.710  0.00  0.00    +0.000 C 
ATOM     26  C   UNL     1       0.956   3.291  20.289  0.00  0.00    +0.000 C 
ENDBRANCH   6  22
BRANCH   8  27
ATOM     27  C   UNL     1       3.130   7.811  18.051  0.00  0.00    +0.000 C 
ATOM     28  F   UNL     1       4.287   8.526  17.959  0.00  0.00    +0.000 F 
ATOM     29  F   UNL     1       2.308   8.321  17.095  0.00  0.00    +0.000 F 
ATOM     30  F   UNL     1       2.581   8.155  19.248  0.00  0.00    +0.000 F 
ENDBRANCH   8  27
TORSDOF 6
ENDMDL
MODEL 4
REMARK VINA RESULT:      -7.5      4.637      8.410
REMARK  Name = 
REMARK  6 active torsions:
REMARK  status: ('A' for Active; 'I' for Inactive)
REMARK    1  A    between atoms: N_1  and  C_2
REMARK    2  A    between atoms: C_2  and  C_3
REMARK    3  A    between atoms: C_3  and  C_4
REMARK    4  A    between atoms: C_8  and  N_9
REMARK    5  A    between atoms: C_14  and  C_15
REMARK    6  A    between atoms: C_21  and  C_22
REMARK                            x       y       z     vdW  Elec       q    Type
REMARK                         _______ _______ _______ _____ _____    ______ ____
ROOT
ATOM      1  N   UNL     1       2.611   7.461  19.338  0.00  0.00    +0.000 N 
ATOM      2  C   UNL     1       2.267   8.327  20.490  0.00  0.00    +0.000 C 
ATOM      3  C   UNL     1       1.079   9.077  19.976  0.00  0.00    +0.000 A 
ATOM      4  C   UNL     1       1.194   9.139  18.586  0.00  0.00    +0.000 A 
ATOM      5  C   UNL     1       0.223   9.673  17.762  0.00  0.00    +0.000 A 
ATOM      6  C   UNL     1      -0.929  10.163  18.381  0.00  0.00    +0.000 A 
ATOM      7  C   UNL     1      -1.079  10.066  19.784  0.00  0.00    +0.000 A 
ATOM      8  C   UNL     1      -0.079   9.514  20.611  0.00  0.00    +0.000 A 
ATOM      9  C   UNL     1       2.273   8.204  18.182  0.00  0.00    +0.000 C 
ATOM     10  O   UNL     1       2.604   8.021  17.027  0.00  0.00    +0.000 OA
ENDROOT
BRANCH   1  15
ATOM     11  C   UNL     1       2.194   3.876  18.710  0.00  0.00    +0.000 A 
ATOM     12  C   UNL     1       2.061   3.444  20.036  0.00  0.00    +0.000 A 
ATOM     13  C   UNL     1       1.715   4.344  21.039  0.00  0.00    +0.000 A 
ATOM     14  C   UNL     1       1.607   5.697  20.750  0.00  0.00    +0.000 A 
ATOM     15  C   UNL     1       1.963   6.167  19.475  0.00  0.00    +0.000 A 
ATOM     16  C   UNL     1       2.112   5.245  18.431  0.00  0.00    +0.000 A 
BRANCH  11  17
ATOM     17  C   UNL     1       2.526   2.892  17.618  0.00  0.00    +0.000 C 
BRANCH  17  18
ATOM     18  C   UNL     1       3.936   2.306  17.765  0.00  0.00    +0.000 C 
BRANCH  18  19
ATOM     19  N   UNL     1       3.870   0.927  18.246  0.00  0.00    +0.000 NA
ATOM     20  H   UNL     1       4.729   0.439  17.998  0.00  0.00    +0.000 HD
ATOM     21  H   UNL     1       3.113   0.433  17.777  0.00  0.00    +0.000 HD
ENDBRANCH  18  19
ENDBRANCH  17  18
ENDBRANCH  11  17
ENDBRANCH   1  15
BRANCH   6  22
ATOM     22  C   UNL     1      -2.041  10.747  17.596  0.00  0.00    +0.000 C 
ATOM     23  N   UNL     1      -2.222  10.469  16.336  0.00  0.00    +0.000 NA
ATOM     24  C   UNL     1      -3.433  11.207  15.931  0.00  0.00    +0.000 C 
ATOM     25  C   UNL     1      -4.159  11.538  17.221  0.00  0.00    +0.000 C 
ATOM     26  C   UNL     1      -3.027  11.706  18.206  0.00  0.00    +0.000 C 
ENDBRANCH   6  22
BRANCH   8  27
ATOM     27  C   UNL     1      -0.358   9.332  22.082  0.00  0.00    +0.000 C 
ATOM     28  F   UNL     1       0.754   9.391  22.866  0.00  0.00    +0.000 F 
ATOM     29  F   UNL     1      -1.203  10.278  22.574  0.00  0.00    +0.000 F 
ATOM     30  F   UNL     1      -0.935   8.129  22.354  0.00  0.00    +0.000 F 
ENDBRANCH   8  27
TORSDOF 6
ENDMDL
MODEL 5
REMARK VINA RESULT:      -7.5      1.055      1.245
REMARK  Name = 
REMARK  6 active torsions:
REMARK  status: ('A' for Active; 'I' for Inactive)
REMARK    1  A    between atoms: N_1  and  C_2
REMARK    2  A    between atoms: C_2  and  C_3
REMARK    3  A    between atoms: C_3  and  C_4
REMARK    4  A    between atoms: C_8  and  N_9
REMARK    5  A    between atoms: C_14  and  C_15
REMARK    6  A    between atoms: C_21  and  C_22
REMARK                            x       y       z     vdW  Elec       q    Type
REMARK                         _______ _______ _______ _____ _____    ______ ____
ROOT
ATOM      1  N   UNL     1       3.025   4.270  18.998  0.00  0.00    +0.000 N 
ATOM      2  C   UNL     1       4.425   4.454  19.446  0.00  0.00    +0.000 C 
ATOM      3  C   UNL     1       5.175   4.433  18.151  0.00  0.00    +0.000 A 
ATOM      4  C   UNL     1       4.431   3.670  17.250  0.00  0.00    +0.000 A 
ATOM      5  C   UNL     1       4.768   3.514  15.920  0.00  0.00    +0.000 A 
ATOM      6  C   UNL     1       5.918   4.173  15.480  0.00  0.00    +0.000 A 
ATOM      7  C   UNL     1       6.657   4.986  16.371  0.00  0.00    +0.000 A 
ATOM      8  C   UNL     1       6.295   5.138  17.726  0.00  0.00    +0.000 A 
ATOM      9  C   UNL     1       3.092   3.445  17.850  0.00  0.00    +0.000 C 
ATOM     10  O   UNL     1       2.206   2.822  17.298  0.00  0.00    +0.000 OA
ENDROOT
BRANCH   1  15
ATOM     11  C   UNL     1       1.843   7.567  20.070  0.00  0.00    +0.000 A 
ATOM     12  C   UNL     1       2.396   8.336  19.038  0.00  0.00    +0.000 A 
ATOM     13  C   UNL     1       2.783   7.737  17.843  0.00  0.00    +0.000 A 
ATOM     14  C   UNL     1       2.723   6.358  17.708  0.00  0.00    +0.000 A 
ATOM     15  C   UNL     1       2.386   5.563  18.815  0.00  0.00    +0.000 A 
ATOM     16  C   UNL     1       1.811   6.175  19.937  0.00  0.00    +0.000 A 
BRANCH  11  17
ATOM     17  C   UNL     1       1.385   8.224  21.347  0.00  0.00    +0.000 C 
BRANCH  17  18
ATOM     18  C   UNL     1      -0.144   8.298  21.453  0.00  0.00    +0.000 C 
BRANCH  18  19
ATOM     19  N   UNL     1      -0.539   9.015  22.664  0.00  0.00    +0.000 NA
ATOM     20  H   UNL     1      -1.436   9.474  22.510  0.00  0.00    +0.000 HD
ATOM     21  H   UNL     1       0.132   9.754  22.863  0.00  0.00    +0.000 HD
ENDBRANCH  18  19
ENDBRANCH  17  18
ENDBRANCH  11  17
ENDBRANCH   1  15
BRANCH   6  22
ATOM     22  C   UNL     1       6.368   4.087  14.072  0.00  0.00    +0.000 C 
ATOM     23  N   UNL     1       5.752   3.353  13.190  0.00  0.00    +0.000 NA
ATOM     24  C   UNL     1       6.472   3.559  11.919  0.00  0.00    +0.000 C 
ATOM     25  C   UNL     1       7.255   4.846  12.100  0.00  0.00    +0.000 C 
ATOM     26  C   UNL     1       7.574   4.837  13.575  0.00  0.00    +0.000 C 
ENDBRANCH   6  22
BRANCH   8  27
ATOM     27  C   UNL     1       7.059   6.116  18.585  0.00  0.00    +0.000 C 
ATOM     28  F   UNL     1       7.029   5.821  19.915  0.00  0.00    +0.000 F 
ATOM     29  F   UNL     1       8.376   6.183  18.255  0.00  0.00    +0.000 F 
ATOM     30  F   UNL     1       6.575   7.383  18.480  0.00  0.00    +0.000 F 
ENDBRANCH   8  27
TORSDOF 6
ENDMDL
MODEL 6
REMARK VINA RESULT:      -7.4      0.824      1.291
REMARK  Name = 
REMARK  6 active torsions:
REMARK  status: ('A' for Active; 'I' for Inactive)
REMARK    1  A    between atoms: N_1  and  C_2
REMARK    2  A    between atoms: C_2  and  C_3
REMARK    3  A    between atoms: C_3  and  C_4
REMARK    4  A    between atoms: C_8  and  N_9
REMARK    5  A    between atoms: C_14  and  C_15
REMARK    6  A    between atoms: C_21  and  C_22
REMARK                            x       y       z     vdW  Elec       q    Type
REMARK                         _______ _______ _______ _____ _____    ______ ____
ROOT
ATOM      1  N   UNL     1       3.469   5.333  19.048  0.00  0.00    +0.000 N 
ATOM      2  C   UNL     1       4.878   5.740  19.255  0.00  0.00    +0.000 C 
ATOM      3  C   UNL     1       5.492   5.435  17.925  0.00  0.00    +0.000 A 
ATOM      4  C   UNL     1       4.749   4.402  17.350  0.00  0.00    +0.000 A 
ATOM      5  C   UNL     1       4.967   3.924  16.072  0.00  0.00    +0.000 A 
ATOM      6  C   UNL     1       5.987   4.531  15.337  0.00  0.00    +0.000 A 
ATOM      7  C   UNL     1       6.718   5.608  15.890  0.00  0.00    +0.000 A 
ATOM      8  C   UNL     1       6.480   6.087  17.196  0.00  0.00    +0.000 A 
ATOM      9  C   UNL     1       3.510   4.239  18.151  0.00  0.00    +0.000 C 
ATOM     10  O   UNL     1       2.647   3.423  17.892  0.00  0.00    +0.000 OA
ENDROOT
BRANCH   1  15
ATOM     11  C   UNL     1       1.721   8.517  19.518  0.00  0.00    +0.000 A 
ATOM     12  C   UNL     1       2.269   9.221  18.438  0.00  0.00    +0.000 A 
ATOM     13  C   UNL     1       2.864   8.537  17.382  0.00  0.00    +0.000 A 
ATOM     14  C   UNL     1       3.015   7.159  17.445  0.00  0.00    +0.000 A 
ATOM     15  C   UNL     1       2.676   6.474  18.623  0.00  0.00    +0.000 A 
ATOM     16  C   UNL     1       1.902   7.132  19.588  0.00  0.00    +0.000 A 
BRANCH  11  17
ATOM     17  C   UNL     1       1.039   9.257  20.640  0.00  0.00    +0.000 C 
BRANCH  17  18
ATOM     18  C   UNL     1       1.195   8.547  21.991  0.00  0.00    +0.000 C 
BRANCH  18  19
ATOM     19  N   UNL     1       2.016   9.346  22.898  0.00  0.00    +0.000 NA
ATOM     20  H   UNL     1       2.328   8.765  23.675  0.00  0.00    +0.000 HD
ATOM     21  H   UNL     1       1.457  10.093  23.305  0.00  0.00    +0.000 HD
ENDBRANCH  18  19
ENDBRANCH  17  18
ENDBRANCH  11  17
ENDBRANCH   1  15
BRANCH   6  22
ATOM     22  C   UNL     1       6.300   4.108  13.953  0.00  0.00    +0.000 C 
ATOM     23  N   UNL     1       5.508   3.334  13.268  0.00  0.00    +0.000 NA
ATOM     24  C   UNL     1       6.144   3.176  11.946  0.00  0.00    +0.000 C 
ATOM     25  C   UNL     1       7.125   4.327  11.826  0.00  0.00    +0.000 C 
ATOM     26  C   UNL     1       7.560   4.543  13.255  0.00  0.00    +0.000 C 
ENDBRANCH   6  22
BRANCH   8  27
ATOM     27  C   UNL     1       7.214   7.316  17.673  0.00  0.00    +0.000 C 
ATOM     28  F   UNL     1       6.405   8.390  17.894  0.00  0.00    +0.000 F 
ATOM     29  F   UNL     1       7.873   7.108  18.844  0.00  0.00    +0.000 F 
ATOM     30  F   UNL     1       8.149   7.739  16.780  0.00  0.00    +0.000 F 
ENDBRANCH   8  27
TORSDOF 6
ENDMDL
MODEL 7
REMARK VINA RESULT:      -7.3      7.957     11.302
REMARK  Name = 
REMARK  6 active torsions:
REMARK  status: ('A' for Active; 'I' for Inactive)
REMARK    1  A    between atoms: N_1  and  C_2
REMARK    2  A    between atoms: C_2  and  C_3
REMARK    3  A    between atoms: C_3  and  C_4
REMARK    4  A    between atoms: C_8  and  N_9
REMARK    5  A    between atoms: C_14  and  C_15
REMARK    6  A    between atoms: C_21  and  C_22
REMARK                            x       y       z     vdW  Elec       q    Type
REMARK                         _______ _______ _______ _____ _____    ______ ____
ROOT
ATOM      1  N   UNL     1      -0.344  11.370  18.413  0.00  0.00    +0.000 N 
ATOM      2  C   UNL     1       0.373  10.568  19.433  0.00  0.00    +0.000 C 
ATOM      3  C   UNL     1      -0.045  11.233  20.706  0.00  0.00    +0.000 A 
ATOM      4  C   UNL     1      -0.342  12.563  20.405  0.00  0.00    +0.000 A 
ATOM      5  C   UNL     1      -0.859  13.457  21.322  0.00  0.00    +0.000 A 
ATOM      6  C   UNL     1      -1.093  12.974  22.611  0.00  0.00    +0.000 A 
ATOM      7  C   UNL     1      -0.839  11.617  22.919  0.00  0.00    +0.000 A 
ATOM      8  C   UNL     1      -0.315  10.716  21.968  0.00  0.00    +0.000 A 
ATOM      9  C   UNL     1      -0.399  12.687  18.927  0.00  0.00    +0.000 C 
ATOM     10  O   UNL     1      -0.654  13.727  18.351  0.00  0.00    +0.000 OA
ENDROOT
BRANCH   1  15
ATOM     11  C   UNL     1      -3.970  11.332  17.901  0.00  0.00    +0.000 A 
ATOM     12  C   UNL     1      -4.002  10.678  16.663  0.00  0.00    +0.000 A 
ATOM     13  C   UNL     1      -2.910   9.930  16.233  0.00  0.00    +0.000 A 
ATOM     14  C   UNL     1      -1.741   9.918  16.980  0.00  0.00    +0.000 A 
ATOM     15  C   UNL     1      -1.623  10.753  18.103  0.00  0.00    +0.000 A 
ATOM     16  C   UNL     1      -2.779  11.339  18.635  0.00  0.00    +0.000 A 
BRANCH  11  17
ATOM     17  C   UNL     1      -5.170  12.106  18.384  0.00  0.00    +0.000 C 
BRANCH  17  18
ATOM     18  C   UNL     1      -6.491  11.529  17.858  0.00  0.00    +0.000 C 
BRANCH  18  19
ATOM     19  N   UNL     1      -7.003  10.507  18.769  0.00  0.00    +0.000 NA
ATOM     20  H   UNL     1      -7.629   9.883  18.263  0.00  0.00    +0.000 HD
ATOM     21  H   UNL     1      -7.562  10.944  19.500  0.00  0.00    +0.000 HD
ENDBRANCH  18  19
ENDBRANCH  17  18
ENDBRANCH  11  17
ENDBRANCH   1  15
BRANCH   6  22
ATOM     22  C   UNL     1      -1.657  13.840  23.672  0.00  0.00    +0.000 C 
ATOM     23  N   UNL     1      -0.929  14.700  24.324  0.00  0.00    +0.000 NA
ATOM     24  C   UNL     1      -1.848  15.382  25.255  0.00  0.00    +0.000 C 
ATOM     25  C   UNL     1      -3.240  15.132  24.708  0.00  0.00    +0.000 C 
ATOM     26  C   UNL     1      -3.107  13.772  24.066  0.00  0.00    +0.000 C 
ENDBRANCH   6  22
BRANCH   8  27
ATOM     27  C   UNL     1      -0.183   9.257  22.332  0.00  0.00    +0.000 C 
ATOM     28  F   UNL     1      -0.666   8.952  23.569  0.00  0.00    +0.000 F 
ATOM     29  F   UNL     1      -0.847   8.442  21.470  0.00  0.00    +0.000 F 
ATOM     30  F   UNL     1       1.112   8.839  22.331  0.00  0.00    +0.000 F 
ENDBRANCH   8  27
TORSDOF 6
ENDMDL
MODEL 8
REMARK VINA RESULT:      -7.3      1.487      1.869
REMARK  Name = 
REMARK  6 active torsions:
REMARK  status: ('A' for Active; 'I' for Inactive)
REMARK    1  A    between atoms: N_1  and  C_2
REMARK    2  A    between atoms: C_2  and  C_3
REMARK    3  A    between atoms: C_3  and  C_4
REMARK    4  A    between atoms: C_8  and  N_9
REMARK    5  A    between atoms: C_14  and  C_15
REMARK    6  A    between atoms: C_21  and  C_22
REMARK                            x       y       z     vdW  Elec       q    Type
REMARK                         _______ _______ _______ _____ _____    ______ ____
ROOT
ATOM      1  N   UNL     1       4.507   3.999  19.308  0.00  0.00    +0.000 N 
ATOM      2  C   UNL     1       5.750   4.805  19.317  0.00  0.00    +0.000 C 
ATOM      3  C   UNL     1       6.128   4.815  17.869  0.00  0.00    +0.000 A 
ATOM      4  C   UNL     1       5.609   3.654  17.294  0.00  0.00    +0.000 A 
ATOM      5  C   UNL     1       5.678   3.374  15.943  0.00  0.00    +0.000 A 
ATOM      6  C   UNL     1       6.300   4.326  15.133  0.00  0.00    +0.000 A 
ATOM      7  C   UNL     1       6.791   5.527  15.696  0.00  0.00    +0.000 A 
ATOM      8  C   UNL     1       6.709   5.799  17.077  0.00  0.00    +0.000 A 
ATOM      9  C   UNL     1       4.669   3.050  18.271  0.00  0.00    +0.000 C 
ATOM     10  O   UNL     1       4.042   2.031  18.055  0.00  0.00    +0.000 OA
ENDROOT
BRANCH   1  15
ATOM     11  C   UNL     1       2.700   6.994  18.219  0.00  0.00    +0.000 A 
ATOM     12  C   UNL     1       1.569   6.372  17.674  0.00  0.00    +0.000 A 
ATOM     13  C   UNL     1       1.246   5.065  18.026  0.00  0.00    +0.000 A 
ATOM     14  C   UNL     1       2.103   4.333  18.835  0.00  0.00    +0.000 A 
ATOM     15  C   UNL     1       3.348   4.870  19.198  0.00  0.00    +0.000 A 
ATOM     16  C   UNL     1       3.574   6.241  19.011  0.00  0.00    +0.000 A 
BRANCH  11  17
ATOM     17  C   UNL     1       3.025   8.424  17.870  0.00  0.00    +0.000 C 
BRANCH  17  18
ATOM     18  C   UNL     1       1.786   9.329  17.892  0.00  0.00    +0.000 C 
BRANCH  18  19
ATOM     19  N   UNL     1       2.141  10.692  17.503  0.00  0.00    +0.000 NA
ATOM     20  H   UNL     1       3.036  10.943  17.921  0.00  0.00    +0.000 HD
ATOM     21  H   UNL     1       1.456  11.348  17.875  0.00  0.00    +0.000 HD
ENDBRANCH  18  19
ENDBRANCH  17  18
ENDBRANCH  11  17
ENDBRANCH   1  15
BRANCH   6  22
ATOM     22  C   UNL     1       6.420   4.136  13.669  0.00  0.00    +0.000 C 
ATOM     23  N   UNL     1       7.440   4.583  12.993  0.00  0.00    +0.000 NA
ATOM     24  C   UNL     1       7.210   4.169  11.596  0.00  0.00    +0.000 C 
ATOM     25  C   UNL     1       6.194   3.045  11.667  0.00  0.00    +0.000 C 
ATOM     26  C   UNL     1       5.365   3.422  12.871  0.00  0.00    +0.000 C 
ENDBRANCH   6  22
BRANCH   8  27
ATOM     27  C   UNL     1       7.144   7.151  17.587  0.00  0.00    +0.000 C 
ATOM     28  F   UNL     1       8.033   7.787  16.775  0.00  0.00    +0.000 F 
ATOM     29  F   UNL     1       6.102   8.012  17.735  0.00  0.00    +0.000 F 
ATOM     30  F   UNL     1       7.749   7.074  18.804  0.00  0.00    +0.000 F 
ENDBRANCH   8  27
TORSDOF 6
ENDMDL
MODEL 9
REMARK VINA RESULT:      -7.1      7.939     11.343
REMARK  Name = 
REMARK  6 active torsions:
REMARK  status: ('A' for Active; 'I' for Inactive)
REMARK    1  A    between atoms: N_1  and  C_2
REMARK    2  A    between atoms: C_2  and  C_3
REMARK    3  A    between atoms: C_3  and  C_4
REMARK    4  A    between atoms: C_8  and  N_9
REMARK    5  A    between atoms: C_14  and  C_15
REMARK    6  A    between atoms: C_21  and  C_22
REMARK                            x       y       z     vdW  Elec       q    Type
REMARK                         _______ _______ _______ _____ _____    ______ ____
ROOT
ATOM      1  N   UNL     1      -0.261  11.373  18.472  0.00  0.00    +0.000 N 
ATOM      2  C   UNL     1       0.454  10.618  19.527  0.00  0.00    +0.000 C 
ATOM      3  C   UNL     1       0.002  11.313  20.773  0.00  0.00    +0.000 A 
ATOM      4  C   UNL     1      -0.315  12.627  20.425  0.00  0.00    +0.000 A 
ATOM      5  C   UNL     1      -0.864  13.539  21.306  0.00  0.00    +0.000 A 
ATOM      6  C   UNL     1      -1.111  13.091  22.605  0.00  0.00    +0.000 A 
ATOM      7  C   UNL     1      -0.836  11.749  22.959  0.00  0.00    +0.000 A 
ATOM      8  C   UNL     1      -0.279  10.830  22.046  0.00  0.00    +0.000 A 
ATOM      9  C   UNL     1      -0.350  12.705  18.943  0.00  0.00    +0.000 C 
ATOM     10  O   UNL     1      -0.614  13.721  18.332  0.00  0.00    +0.000 OA
ENDROOT
BRANCH   1  15
ATOM     11  C   UNL     1      -3.887  11.237  17.967  0.00  0.00    +0.000 A 
ATOM     12  C   UNL     1      -3.903  10.591  16.725  0.00  0.00    +0.000 A 
ATOM     13  C   UNL     1      -2.791   9.877  16.288  0.00  0.00    +0.000 A 
ATOM     14  C   UNL     1      -1.621   9.893  17.033  0.00  0.00    +0.000 A 
ATOM     15  C   UNL     1      -1.523  10.723  18.161  0.00  0.00    +0.000 A 
ATOM     16  C   UNL     1      -2.694  11.272  18.699  0.00  0.00    +0.000 A 
BRANCH  11  17
ATOM     17  C   UNL     1      -5.107  11.973  18.459  0.00  0.00    +0.000 C 
BRANCH  17  18
ATOM     18  C   UNL     1      -6.404  11.439  17.839  0.00  0.00    +0.000 C 
BRANCH  18  19
ATOM     19  N   UNL     1      -7.071  10.520  18.759  0.00  0.00    +0.000 NA
ATOM     20  H   UNL     1      -6.593   9.620  18.748  0.00  0.00    +0.000 HD
ATOM     21  H   UNL     1      -8.023  10.343  18.443  0.00  0.00    +0.000 HD
ENDBRANCH  18  19
ENDBRANCH  17  18
ENDBRANCH  11  17
ENDBRANCH   1  15
BRANCH   6  22
ATOM     22  C   UNL     1      -1.708  13.978  23.630  0.00  0.00    +0.000 C 
ATOM     23  N   UNL     1      -2.904  13.782  24.104  0.00  0.00    +0.000 NA
ATOM     24  C   UNL     1      -3.116  14.839  25.112  0.00  0.00    +0.000 C 
ATOM     25  C   UNL     1      -1.731  15.342  25.471  0.00  0.00    +0.000 C 
ATOM     26  C   UNL     1      -0.968  15.167  24.180  0.00  0.00    +0.000 C 
ENDBRANCH   6  22
BRANCH   8  27
ATOM     27  C   UNL     1      -0.127   9.386  22.457  0.00  0.00    +0.000 C 
ATOM     28  F   UNL     1       1.120   8.880  22.243  0.00  0.00    +0.000 F 
ATOM     29  F   UNL     1      -0.379   9.190  23.779  0.00  0.00    +0.000 F 
ATOM     30  F   UNL     1      -0.976   8.564  21.782  0.00  0.00    +0.000 F 
ENDBRANCH   8  27
TORSDOF 6
ENDMDL
