MODEL 1
REMARK VINA RESULT:      -9.0      0.000      0.000
REMARK  Name = 
REMARK  4 active torsions:
REMARK  status: ('A' for Active; 'I' for Inactive)
REMARK    1  A    between atoms: C_1  and  N_2
REMARK    2  A    between atoms: C_8  and  C_9
REMARK    3  A    between atoms: N_11  and  C_12
REMARK    4  A    between atoms: C_16  and  C_17
REMARK                            x       y       z     vdW  Elec       q    Type
REMARK                         _______ _______ _______ _____ _____    ______ ____
ROOT
ATOM      1  C   UNL     1       2.221   7.100  19.561  0.00  0.00    +0.000 C 
ATOM      2  O   UNL     1       2.411   6.306  20.478  0.00  0.00    +0.000 OA
ATOM      3  N   UNL     1       2.646   6.919  18.251  0.00  0.00    +0.000 N 
ATOM      4  H   UNL     1       2.578   7.686  17.597  0.00  0.00    +0.000 HD
ENDROOT
BRANCH   1  12
ATOM      5  C   UNL     1      -1.350  12.602  23.099  0.00  0.00    +0.000 C 
ATOM      6  N   UNL     1      -0.667  11.715  22.193  0.00  0.00    +0.000 N 
ATOM      7  C   UNL     1      -0.488  11.956  20.858  0.00  0.00    +0.000 C 
ATOM      8  O   UNL     1      -0.830  12.910  20.192  0.00  0.00    +0.000 OA
ATOM      9  C   UNL     1       0.224  10.794  20.326  0.00  0.00    +0.000 A 
ATOM     10  C   UNL     1       0.647  10.518  19.046  0.00  0.00    +0.000 A 
ATOM     11  C   UNL     1       1.296   9.295  18.851  0.00  0.00    +0.000 A 
ATOM     12  C   UNL     1       1.519   8.373  19.916  0.00  0.00    +0.000 A 
ATOM     13  C   UNL     1       1.086   8.696  21.208  0.00  0.00    +0.000 A 
ATOM     14  C   UNL     1       0.439   9.912  21.371  0.00  0.00    +0.000 A 
ATOM     15  C   UNL     1      -0.138  10.511  22.571  0.00  0.00    +0.000 C 
ATOM     16  O   UNL     1      -0.126   9.981  23.665  0.00  0.00    +0.000 OA
ENDBRANCH   1  12
BRANCH   3  17
ATOM     17  C   UNL     1       3.311   5.762  17.770  0.00  0.00    +0.000 A 
ATOM     18  C   UNL     1       2.933   4.466  18.137  0.00  0.00    +0.000 A 
ATOM     19  C   UNL     1       3.622   3.354  17.663  0.00  0.00    +0.000 A 
ATOM     20  C   UNL     1       4.693   3.523  16.796  0.00  0.00    +0.000 A 
ATOM     21  C   UNL     1       5.082   4.806  16.383  0.00  0.00    +0.000 A 
ATOM     22  C   UNL     1       4.384   5.924  16.881  0.00  0.00    +0.000 A 
BRANCH  21  23
ATOM     23  C   UNL     1       6.175   4.969  15.435  0.00  0.00    +0.000 A 
ATOM     24  N   UNL     1       7.313   5.628  15.533  0.00  0.00    +0.000 NA
ATOM     25  N   UNL     1       7.948   5.494  14.311  0.00  0.00    +0.000 NA
ATOM     26  C   UNL     1       7.150   4.769  13.564  0.00  0.00    +0.000 A 
ATOM     27  O   UNL     1       6.012   4.388  14.200  0.00  0.00    +0.000 OA
ENDBRANCH  21  23
ENDBRANCH   3  17
TORSDOF 3
ENDMDL
MODEL 2
REMARK VINA RESULT:      -8.9      1.712      2.057
REMARK  Name = 
REMARK  4 active torsions:
REMARK  status: ('A' for Active; 'I' for Inactive)
REMARK    1  A    between atoms: C_1  and  N_2
REMARK    2  A    between atoms: C_8  and  C_9
REMARK    3  A    between atoms: N_11  and  C_12
REMARK    4  A    between atoms: C_16  and  C_17
REMARK                            x       y       z     vdW  Elec       q    Type
REMARK                         _______ _______ _______ _____ _____    ______ ____
ROOT
ATOM      1  C   UNL     1       3.229   6.736  18.372  0.00  0.00    +0.000 C 
ATOM      2  O   UNL     1       2.825   5.581  18.479  0.00  0.00    +0.000 OA
ATOM      3  N   UNL     1       4.499   7.098  17.943  0.00  0.00    +0.000 N 
ATOM      4  H   UNL     1       4.796   8.060  18.027  0.00  0.00    +0.000 HD
ENDROOT
BRANCH   1  12
ATOM      5  C   UNL     1      -1.216  11.327  22.208  0.00  0.00    +0.000 C 
ATOM      6  N   UNL     1      -0.425  10.603  21.246  0.00  0.00    +0.000 N 
ATOM      7  C   UNL     1      -0.430  10.846  19.899  0.00  0.00    +0.000 C 
ATOM      8  O   UNL     1      -1.047  11.674  19.264  0.00  0.00    +0.000 OA
ATOM      9  C   UNL     1       0.488   9.872  19.307  0.00  0.00    +0.000 A 
ATOM     10  C   UNL     1       0.848   9.670  17.995  0.00  0.00    +0.000 A 
ATOM     11  C   UNL     1       1.749   8.631  17.743  0.00  0.00    +0.000 A 
ATOM     12  C   UNL     1       2.279   7.816  18.787  0.00  0.00    +0.000 A 
ATOM     13  C   UNL     1       1.899   8.060  20.112  0.00  0.00    +0.000 A 
ATOM     14  C   UNL     1       0.999   9.092  20.330  0.00  0.00    +0.000 A 
ATOM     15  C   UNL     1       0.405   9.568  21.577  0.00  0.00    +0.000 C 
ATOM     16  O   UNL     1       0.641   9.084  22.667  0.00  0.00    +0.000 OA
ENDBRANCH   1  12
BRANCH   3  17
ATOM     17  C   UNL     1       5.496   6.185  17.512  0.00  0.00    +0.000 A 
ATOM     18  C   UNL     1       6.397   5.579  18.392  0.00  0.00    +0.000 A 
ATOM     19  C   UNL     1       7.376   4.704  17.932  0.00  0.00    +0.000 A 
ATOM     20  C   UNL     1       7.456   4.408  16.578  0.00  0.00    +0.000 A 
ATOM     21  C   UNL     1       6.550   4.974  15.669  0.00  0.00    +0.000 A 
ATOM     22  C   UNL     1       5.572   5.868  16.147  0.00  0.00    +0.000 A 
BRANCH  21  23
ATOM     23  C   UNL     1       6.612   4.619  14.258  0.00  0.00    +0.000 A 
ATOM     24  N   UNL     1       5.960   3.705  13.567  0.00  0.00    +0.000 NA
ATOM     25  N   UNL     1       6.454   3.764  12.277  0.00  0.00    +0.000 NA
ATOM     26  C   UNL     1       7.369   4.704  12.280  0.00  0.00    +0.000 A 
ATOM     27  O   UNL     1       7.525   5.301  13.490  0.00  0.00    +0.000 OA
ENDBRANCH  21  23
ENDBRANCH   3  17
TORSDOF 3
ENDMDL
MODEL 3
REMARK VINA RESULT:      -8.9      1.600      1.867
REMARK  Name = 
REMARK  4 active torsions:
REMARK  status: ('A' for Active; 'I' for Inactive)
REMARK    1  A    between atoms: C_1  and  N_2
REMARK    2  A    between atoms: C_8  and  C_9
REMARK    3  A    between atoms: N_11  and  C_12
REMARK    4  A    between atoms: C_16  and  C_17
REMARK                            x       y       z     vdW  Elec       q    Type
REMARK                         _______ _______ _______ _____ _____    ______ ____
ROOT
ATOM      1  C   UNL     1       2.089   7.664  19.304  0.00  0.00    +0.000 C 
ATOM      2  O   UNL     1       2.533   7.662  18.159  0.00  0.00    +0.000 OA
ATOM      3  N   UNL     1       2.223   6.621  20.211  0.00  0.00    +0.000 N 
ATOM      4  H   UNL     1       1.702   6.645  21.076  0.00  0.00    +0.000 HD
ENDROOT
BRANCH   1  12
ATOM      5  C   UNL     1      -1.726  12.818  23.103  0.00  0.00    +0.000 C 
ATOM      6  N   UNL     1      -1.021  11.999  22.150  0.00  0.00    +0.000 N 
ATOM      7  C   UNL     1      -0.931  12.270  20.812  0.00  0.00    +0.000 C 
ATOM      8  O   UNL     1      -1.382  13.200  20.179  0.00  0.00    +0.000 OA
ATOM      9  C   UNL     1      -0.156  11.175  20.227  0.00  0.00    +0.000 A 
ATOM     10  C   UNL     1       0.222  10.949  18.923  0.00  0.00    +0.000 A 
ATOM     11  C   UNL     1       0.956   9.785  18.676  0.00  0.00    +0.000 A 
ATOM     12  C   UNL     1       1.306   8.872  19.714  0.00  0.00    +0.000 A 
ATOM     13  C   UNL     1       0.915   9.144  21.031  0.00  0.00    +0.000 A 
ATOM     14  C   UNL     1       0.182  10.301  21.245  0.00  0.00    +0.000 A 
ATOM     15  C   UNL     1      -0.380  10.837  22.482  0.00  0.00    +0.000 C 
ATOM     16  O   UNL     1      -0.269  10.297  23.566  0.00  0.00    +0.000 OA
ENDBRANCH   1  12
BRANCH   3  17
ATOM     17  C   UNL     1       2.944   5.424  19.964  0.00  0.00    +0.000 A 
ATOM     18  C   UNL     1       2.546   4.184  20.475  0.00  0.00    +0.000 A 
ATOM     19  C   UNL     1       3.288   3.033  20.230  0.00  0.00    +0.000 A 
ATOM     20  C   UNL     1       4.435   3.104  19.452  0.00  0.00    +0.000 A 
ATOM     21  C   UNL     1       4.849   4.325  18.898  0.00  0.00    +0.000 A 
ATOM     22  C   UNL     1       4.095   5.485  19.164  0.00  0.00    +0.000 A 
BRANCH  21  23
ATOM     23  C   UNL     1       6.026   4.379  18.043  0.00  0.00    +0.000 A 
ATOM     24  N   UNL     1       7.309   4.424  18.340  0.00  0.00    +0.000 NA
ATOM     25  N   UNL     1       7.986   4.524  17.138  0.00  0.00    +0.000 NA
ATOM     26  C   UNL     1       7.066   4.534  16.203  0.00  0.00    +0.000 A 
ATOM     27  O   UNL     1       5.801   4.438  16.688  0.00  0.00    +0.000 OA
ENDBRANCH  21  23
ENDBRANCH   3  17
TORSDOF 3
ENDMDL
MODEL 4
REMARK VINA RESULT:      -8.7      1.878      2.714
REMARK  Name = 
REMARK  4 active torsions:
REMARK  status: ('A' for Active; 'I' for Inactive)
REMARK    1  A    between atoms: C_1  and  N_2
REMARK    2  A    between atoms: C_8  and  C_9
REMARK    3  A    between atoms: N_11  and  C_12
REMARK    4  A    between atoms: C_16  and  C_17
REMARK                            x       y       z     vdW  Elec       q    Type
REMARK                         _______ _______ _______ _____ _____    ______ ____
ROOT
ATOM      1  C   UNL     1       1.896   7.570  19.859  0.00  0.00    +0.000 C 
ATOM      2  O   UNL     1       2.225   7.660  18.679  0.00  0.00    +0.000 OA
ATOM      3  N   UNL     1       2.093   6.450  20.657  0.00  0.00    +0.000 N 
ATOM      4  H   UNL     1       1.660   6.407  21.568  0.00  0.00    +0.000 HD
ENDROOT
BRANCH   1  12
ATOM      5  C   UNL     1      -1.567  14.082  20.930  0.00  0.00    +0.000 C 
ATOM      6  N   UNL     1      -0.950  12.782  20.998  0.00  0.00    +0.000 N 
ATOM      7  C   UNL     1      -0.766  12.071  22.153  0.00  0.00    +0.000 C 
ATOM      8  O   UNL     1      -1.073  12.352  23.292  0.00  0.00    +0.000 OA
ATOM      9  C   UNL     1      -0.087  10.834  21.765  0.00  0.00    +0.000 A 
ATOM     10  C   UNL     1       0.338   9.773  22.531  0.00  0.00    +0.000 A 
ATOM     11  C   UNL     1       0.980   8.730  21.857  0.00  0.00    +0.000 A 
ATOM     12  C   UNL     1       1.188   8.751  20.447  0.00  0.00    +0.000 A 
ATOM     13  C   UNL     1       0.730   9.842  19.699  0.00  0.00    +0.000 A 
ATOM     14  C   UNL     1       0.102  10.864  20.394  0.00  0.00    +0.000 A 
ATOM     15  C   UNL     1      -0.455  12.123  19.906  0.00  0.00    +0.000 C 
ATOM     16  O   UNL     1      -0.440  12.463  18.740  0.00  0.00    +0.000 OA
ENDBRANCH   1  12
BRANCH   3  17
ATOM     17  C   UNL     1       2.756   5.267  20.238  0.00  0.00    +0.000 A 
ATOM     18  C   UNL     1       2.273   3.988  20.528  0.00  0.00    +0.000 A 
ATOM     19  C   UNL     1       2.959   2.848  20.120  0.00  0.00    +0.000 A 
ATOM     20  C   UNL     1       4.137   2.975  19.396  0.00  0.00    +0.000 A 
ATOM     21  C   UNL     1       4.637   4.242  19.061  0.00  0.00    +0.000 A 
ATOM     22  C   UNL     1       3.938   5.387  19.492  0.00  0.00    +0.000 A 
BRANCH  21  23
ATOM     23  C   UNL     1       5.847   4.363  18.259  0.00  0.00    +0.000 A 
ATOM     24  N   UNL     1       7.092   4.619  18.606  0.00  0.00    +0.000 NA
ATOM     25  N   UNL     1       7.822   4.676  17.433  0.00  0.00    +0.000 NA
ATOM     26  C   UNL     1       6.967   4.453  16.463  0.00  0.00    +0.000 A 
ATOM     27  O   UNL     1       5.699   4.238  16.898  0.00  0.00    +0.000 OA
ENDBRANCH  21  23
ENDBRANCH   3  17
TORSDOF 3
ENDMDL
MODEL 5
REMARK VINA RESULT:      -8.7      6.314      7.868
REMARK  Name = 
REMARK  4 active torsions:
REMARK  status: ('A' for Active; 'I' for Inactive)
REMARK    1  A    between atoms: C_1  and  N_2
REMARK    2  A    between atoms: C_8  and  C_9
REMARK    3  A    between atoms: N_11  and  C_12
REMARK    4  A    between atoms: C_16  and  C_17
REMARK                            x       y       z     vdW  Elec       q    Type
REMARK                         _______ _______ _______ _____ _____    ______ ____
ROOT
ATOM      1  C   UNL     1       8.018   8.237  18.094  0.00  0.00    +0.000 C 
ATOM      2  O   UNL     1       8.542   7.427  18.854  0.00  0.00    +0.000 OA
ATOM      3  N   UNL     1       7.057   7.926  17.141  0.00  0.00    +0.000 N 
ATOM      4  H   UNL     1       6.789   8.623  16.460  0.00  0.00    +0.000 HD
ENDROOT
BRANCH   1  12
ATOM      5  C   UNL     1      11.702  14.480  19.823  0.00  0.00    +0.000 C 
ATOM      6  N   UNL     1      10.849  13.440  19.309  0.00  0.00    +0.000 N 
ATOM      7  C   UNL     1       9.808  13.648  18.445  0.00  0.00    +0.000 C 
ATOM      8  O   UNL     1       9.411  14.679  17.946  0.00  0.00    +0.000 OA
ATOM      9  C   UNL     1       9.206  12.335  18.211  0.00  0.00    +0.000 A 
ATOM     10  C   UNL     1       8.130  11.975  17.432  0.00  0.00    +0.000 A 
ATOM     11  C   UNL     1       7.784  10.620  17.429  0.00  0.00    +0.000 A 
ATOM     12  C   UNL     1       8.504   9.649  18.186  0.00  0.00    +0.000 A 
ATOM     13  C   UNL     1       9.602  10.053  18.956  0.00  0.00    +0.000 A 
ATOM     14  C   UNL     1       9.917  11.403  18.946  0.00  0.00    +0.000 A 
ATOM     15  C   UNL     1      10.974  12.122  19.653  0.00  0.00    +0.000 C 
ATOM     16  O   UNL     1      11.774  11.590  20.397  0.00  0.00    +0.000 OA
ENDBRANCH   1  12
BRANCH   3  17
ATOM     17  C   UNL     1       6.498   6.636  16.948  0.00  0.00    +0.000 A 
ATOM     18  C   UNL     1       7.138   5.640  16.204  0.00  0.00    +0.000 A 
ATOM     19  C   UNL     1       6.552   4.392  16.017  0.00  0.00    +0.000 A 
ATOM     20  C   UNL     1       5.318   4.116  16.591  0.00  0.00    +0.000 A 
ATOM     21  C   UNL     1       4.660   5.081  17.368  0.00  0.00    +0.000 A 
ATOM     22  C   UNL     1       5.259   6.345  17.539  0.00  0.00    +0.000 A 
BRANCH  21  23
ATOM     23  C   UNL     1       3.390   4.764  18.006  0.00  0.00    +0.000 A 
ATOM     24  N   UNL     1       2.915   5.084  19.193  0.00  0.00    +0.000 NA
ATOM     25  N   UNL     1       1.682   4.467  19.300  0.00  0.00    +0.000 NA
ATOM     26  C   UNL     1       1.501   3.818  18.174  0.00  0.00    +0.000 A 
ATOM     27  O   UNL     1       2.529   3.960  17.298  0.00  0.00    +0.000 OA
ENDBRANCH  21  23
ENDBRANCH   3  17
TORSDOF 3
ENDMDL
MODEL 6
REMARK VINA RESULT:      -8.6      3.059      9.252
REMARK  Name = 
REMARK  4 active torsions:
REMARK  status: ('A' for Active; 'I' for Inactive)
REMARK    1  A    between atoms: C_1  and  N_2
REMARK    2  A    between atoms: C_8  and  C_9
REMARK    3  A    between atoms: N_11  and  C_12
REMARK    4  A    between atoms: C_16  and  C_17
REMARK                            x       y       z     vdW  Elec       q    Type
REMARK                         _______ _______ _______ _____ _____    ______ ____
ROOT
ATOM      1  C   UNL     1       1.584   8.977  18.432  0.00  0.00    +0.000 C 
ATOM      2  O   UNL     1       1.470   9.624  17.394  0.00  0.00    +0.000 OA
ATOM      3  N   UNL     1       0.901   9.240  19.612  0.00  0.00    +0.000 N 
ATOM      4  H   UNL     1       1.164   8.753  20.457  0.00  0.00    +0.000 HD
ENDROOT
BRANCH   1  12
ATOM      5  C   UNL     1       7.089   4.267  16.683  0.00  0.00    +0.000 C 
ATOM      6  N   UNL     1       6.001   5.018  17.253  0.00  0.00    +0.000 N 
ATOM      7  C   UNL     1       5.319   4.658  18.384  0.00  0.00    +0.000 C 
ATOM      8  O   UNL     1       5.478   3.701  19.112  0.00  0.00    +0.000 OA
ATOM      9  C   UNL     1       4.291   5.680  18.583  0.00  0.00    +0.000 A 
ATOM     10  C   UNL     1       3.331   5.799  19.561  0.00  0.00    +0.000 A 
ATOM     11  C   UNL     1       2.471   6.898  19.465  0.00  0.00    +0.000 A 
ATOM     12  C   UNL     1       2.575   7.856  18.414  0.00  0.00    +0.000 A 
ATOM     13  C   UNL     1       3.575   7.707  17.444  0.00  0.00    +0.000 A 
ATOM     14  C   UNL     1       4.408   6.605  17.560  0.00  0.00    +0.000 A 
ATOM     15  C   UNL     1       5.511   6.172  16.706  0.00  0.00    +0.000 C 
ATOM     16  O   UNL     1       5.868   6.766  15.708  0.00  0.00    +0.000 OA
ENDBRANCH   1  12
BRANCH   3  17
ATOM     17  C   UNL     1      -0.072  10.261  19.772  0.00  0.00    +0.000 A 
ATOM     18  C   UNL     1      -0.016  11.202  20.805  0.00  0.00    +0.000 A 
ATOM     19  C   UNL     1      -0.999  12.177  20.944  0.00  0.00    +0.000 A 
ATOM     20  C   UNL     1      -2.047  12.235  20.035  0.00  0.00    +0.000 A 
ATOM     21  C   UNL     1      -2.119  11.326  18.969  0.00  0.00    +0.000 A 
ATOM     22  C   UNL     1      -1.125  10.336  18.847  0.00  0.00    +0.000 A 
BRANCH  21  23
ATOM     23  C   UNL     1      -3.196  11.428  17.994  0.00  0.00    +0.000 A 
ATOM     24  N   UNL     1      -4.442  11.837  18.122  0.00  0.00    +0.000 NA
ATOM     25  N   UNL     1      -5.039  11.666  16.886  0.00  0.00    +0.000 NA
ATOM     26  C   UNL     1      -4.114  11.164  16.102  0.00  0.00    +0.000 A 
ATOM     27  O   UNL     1      -2.918  10.990  16.721  0.00  0.00    +0.000 OA
ENDBRANCH  21  23
ENDBRANCH   3  17
TORSDOF 3
ENDMDL
MODEL 7
REMARK VINA RESULT:      -8.6      0.999      1.899
REMARK  Name = 
REMARK  4 active torsions:
REMARK  status: ('A' for Active; 'I' for Inactive)
REMARK    1  A    between atoms: C_1  and  N_2
REMARK    2  A    between atoms: C_8  and  C_9
REMARK    3  A    between atoms: N_11  and  C_12
REMARK    4  A    between atoms: C_16  and  C_17
REMARK                            x       y       z     vdW  Elec       q    Type
REMARK                         _______ _______ _______ _____ _____    ______ ____
ROOT
ATOM      1  C   UNL     1       2.056   6.983  19.946  0.00  0.00    +0.000 C 
ATOM      2  O   UNL     1       2.276   6.110  20.782  0.00  0.00    +0.000 OA
ATOM      3  N   UNL     1       2.377   6.892  18.598  0.00  0.00    +0.000 N 
ATOM      4  H   UNL     1       2.296   7.711  18.012  0.00  0.00    +0.000 HD
ENDROOT
BRANCH   1  12
ATOM      5  C   UNL     1      -0.722  13.866  20.612  0.00  0.00    +0.000 C 
ATOM      6  N   UNL     1      -0.266  12.507  20.753  0.00  0.00    +0.000 N 
ATOM      7  C   UNL     1      -0.269  11.806  21.929  0.00  0.00    +0.000 C 
ATOM      8  O   UNL     1      -0.641  12.146  23.031  0.00  0.00    +0.000 OA
ATOM      9  C   UNL     1       0.297  10.493  21.621  0.00  0.00    +0.000 A 
ATOM     10  C   UNL     1       0.527   9.409  22.436  0.00  0.00    +0.000 A 
ATOM     11  C   UNL     1       1.104   8.284  21.837  0.00  0.00    +0.000 A 
ATOM     12  C   UNL     1       1.438   8.249  20.451  0.00  0.00    +0.000 A 
ATOM     13  C   UNL     1       1.175   9.367  19.650  0.00  0.00    +0.000 A 
ATOM     14  C   UNL     1       0.610  10.469  20.272  0.00  0.00    +0.000 A 
ATOM     15  C   UNL     1       0.246  11.771  19.719  0.00  0.00    +0.000 C 
ATOM     16  O   UNL     1       0.403  12.080  18.555  0.00  0.00    +0.000 OA
ENDBRANCH   1  12
BRANCH   3  17
ATOM     17  C   UNL     1       2.955   5.753  17.980  0.00  0.00    +0.000 A 
ATOM     18  C   UNL     1       2.418   4.469  18.111  0.00  0.00    +0.000 A 
ATOM     19  C   UNL     1       3.023   3.370  17.508  0.00  0.00    +0.000 A 
ATOM     20  C   UNL     1       4.170   3.546  16.746  0.00  0.00    +0.000 A 
ATOM     21  C   UNL     1       4.720   4.824  16.568  0.00  0.00    +0.000 A 
ATOM     22  C   UNL     1       4.105   5.925  17.194  0.00  0.00    +0.000 A 
BRANCH  21  23
ATOM     23  C   UNL     1       5.895   5.003  15.726  0.00  0.00    +0.000 A 
ATOM     24  N   UNL     1       6.991   5.710  15.912  0.00  0.00    +0.000 NA
ATOM     25  N   UNL     1       7.749   5.566  14.764  0.00  0.00    +0.000 NA
ATOM     26  C   UNL     1       7.057   4.787  13.967  0.00  0.00    +0.000 A 
ATOM     27  O   UNL     1       5.876   4.380  14.501  0.00  0.00    +0.000 OA
ENDBRANCH  21  23
ENDBRANCH   3  17
TORSDOF 3
ENDMDL
MODEL 8
REMARK VINA RESULT:      -8.6      1.857      1.995
REMARK  Name = 
REMARK  4 active torsions:
REMARK  status: ('A' for Active; 'I' for Inactive)
REMARK    1  A    between atoms: C_1  and  N_2
REMARK    2  A    between atoms: C_8  and  C_9
REMARK    3  A    between atoms: N_11  and  C_12
REMARK    4  A    between atoms: C_16  and  C_17
REMARK                            x       y       z     vdW  Elec       q    Type
REMARK                         _______ _______ _______ _____ _____    ______ ____
ROOT
ATOM      1  C   UNL     1       1.938   8.490  18.380  0.00  0.00    +0.000 C 
ATOM      2  O   UNL     1       2.217   8.668  17.197  0.00  0.00    +0.000 OA
ATOM      3  N   UNL     1       2.043   7.276  19.047  0.00  0.00    +0.000 N 
ATOM      4  H   UNL     1       1.653   7.185  19.975  0.00  0.00    +0.000 HD
ENDROOT
BRANCH   1  12
ATOM      5  C   UNL     1      -1.369  12.990  23.315  0.00  0.00    +0.000 C 
ATOM      6  N   UNL     1      -0.654  12.361  22.234  0.00  0.00    +0.000 N 
ATOM      7  C   UNL     1      -0.124  13.029  21.163  0.00  0.00    +0.000 C 
ATOM      8  O   UNL     1      -0.128  14.215  20.911  0.00  0.00    +0.000 OA
ATOM      9  C   UNL     1       0.483  12.009  20.308  0.00  0.00    +0.000 A 
ATOM     10  C   UNL     1       1.144  12.131  19.107  0.00  0.00    +0.000 A 
ATOM     11  C   UNL     1       1.601  10.948  18.519  0.00  0.00    +0.000 A 
ATOM     12  C   UNL     1       1.402   9.672  19.124  0.00  0.00    +0.000 A 
ATOM     13  C   UNL     1       0.737   9.589  20.354  0.00  0.00    +0.000 A 
ATOM     14  C   UNL     1       0.289  10.778  20.910  0.00  0.00    +0.000 A 
ATOM     15  C   UNL     1      -0.446  11.012  22.150  0.00  0.00    +0.000 C 
ATOM     16  O   UNL     1      -0.785  10.129  22.913  0.00  0.00    +0.000 OA
ENDBRANCH   1  12
BRANCH   3  17
ATOM     17  C   UNL     1       2.542   6.079  18.473  0.00  0.00    +0.000 A 
ATOM     18  C   UNL     1       1.712   5.017  18.100  0.00  0.00    +0.000 A 
ATOM     19  C   UNL     1       2.238   3.848  17.558  0.00  0.00    +0.000 A 
ATOM     20  C   UNL     1       3.607   3.732  17.365  0.00  0.00    +0.000 A 
ATOM     21  C   UNL     1       4.468   4.788  17.700  0.00  0.00    +0.000 A 
ATOM     22  C   UNL     1       3.924   5.961  18.259  0.00  0.00    +0.000 A 
BRANCH  21  23
ATOM     23  C   UNL     1       5.898   4.674  17.447  0.00  0.00    +0.000 A 
ATOM     24  N   UNL     1       6.567   4.515  16.323  0.00  0.00    +0.000 NA
ATOM     25  N   UNL     1       7.901   4.410  16.673  0.00  0.00    +0.000 NA
ATOM     26  C   UNL     1       7.942   4.510  17.981  0.00  0.00    +0.000 A 
ATOM     27  O   UNL     1       6.721   4.687  18.548  0.00  0.00    +0.000 OA
ENDBRANCH  21  23
ENDBRANCH   3  17
TORSDOF 3
ENDMDL
MODEL 9
REMARK VINA RESULT:      -8.5      1.235      1.255
REMARK  Name = 
REMARK  4 active torsions:
REMARK  status: ('A' for Active; 'I' for Inactive)
REMARK    1  A    between atoms: C_1  and  N_2
REMARK    2  A    between atoms: C_8  and  C_9
REMARK    3  A    between atoms: N_11  and  C_12
REMARK    4  A    between atoms: C_16  and  C_17
REMARK                            x       y       z     vdW  Elec       q    Type
REMARK                         _______ _______ _______ _____ _____    ______ ____
ROOT
ATOM      1  C   UNL     1       2.303   7.847  18.681  0.00  0.00    +0.000 C 
ATOM      2  O   UNL     1       2.713   7.999  17.533  0.00  0.00    +0.000 OA
ATOM      3  N   UNL     1       2.591   6.756  19.490  0.00  0.00    +0.000 N 
ATOM      4  H   UNL     1       2.094   6.640  20.362  0.00  0.00    +0.000 HD
ENDROOT
BRANCH   1  12
ATOM      5  C   UNL     1      -1.778  12.318  23.028  0.00  0.00    +0.000 C 
ATOM      6  N   UNL     1      -1.082  11.619  21.978  0.00  0.00    +0.000 N 
ATOM      7  C   UNL     1      -1.228  11.882  20.643  0.00  0.00    +0.000 C 
ATOM      8  O   UNL     1      -1.917  12.712  20.088  0.00  0.00    +0.000 OA
ATOM      9  C   UNL     1      -0.365  10.930  19.944  0.00  0.00    +0.000 A 
ATOM     10  C   UNL     1      -0.140  10.754  18.598  0.00  0.00    +0.000 A 
ATOM     11  C   UNL     1       0.744   9.731  18.239  0.00  0.00    +0.000 A 
ATOM     12  C   UNL     1       1.388   8.908  19.208  0.00  0.00    +0.000 A 
ATOM     13  C   UNL     1       1.144   9.127  20.570  0.00  0.00    +0.000 A 
ATOM     14  C   UNL     1       0.259  10.143  20.896  0.00  0.00    +0.000 A 
ATOM     15  C   UNL     1      -0.209  10.591  22.205  0.00  0.00    +0.000 C 
ATOM     16  O   UNL     1       0.144  10.095  23.257  0.00  0.00    +0.000 OA
ENDBRANCH   1  12
BRANCH   3  17
ATOM     17  C   UNL     1       3.448   5.685  19.127  0.00  0.00    +0.000 A 
ATOM     18  C   UNL     1       3.425   4.446  19.776  0.00  0.00    +0.000 A 
ATOM     19  C   UNL     1       4.294   3.424  19.407  0.00  0.00    +0.000 A 
ATOM     20  C   UNL     1       5.191   3.622  18.366  0.00  0.00    +0.000 A 
ATOM     21  C   UNL     1       5.222   4.841  17.673  0.00  0.00    +0.000 A 
ATOM     22  C   UNL     1       4.345   5.872  18.064  0.00  0.00    +0.000 A 
BRANCH  21  23
ATOM     23  C   UNL     1       6.133   5.021  16.550  0.00  0.00    +0.000 A 
ATOM     24  N   UNL     1       7.095   5.899  16.351  0.00  0.00    +0.000 NA
ATOM     25  N   UNL     1       7.598   5.647  15.087  0.00  0.00    +0.000 NA
ATOM     26  C   UNL     1       6.903   4.640  14.613  0.00  0.00    +0.000 A 
ATOM     27  O   UNL     1       5.962   4.179  15.478  0.00  0.00    +0.000 OA
ENDBRANCH  21  23
ENDBRANCH   3  17
TORSDOF 3
ENDMDL
