MODEL 1
REMARK VINA RESULT:      -9.2      0.000      0.000
REMARK  Name = 
REMARK  6 active torsions:
REMARK  status: ('A' for Active; 'I' for Inactive)
REMARK    1  A    between atoms: C_1  and  N_2
REMARK    2  A    between atoms: N_2  and  C_3
REMARK    3  A    between atoms: C_3  and  C_4
REMARK    4  A    between atoms: C_12  and  C_14
REMARK    5  A    between atoms: C_17  and  C_18
REMARK    6  A    between atoms: C_18  and  N_19
REMARK                            x       y       z     vdW  Elec       q    Type
REMARK                         _______ _______ _______ _____ _____    ______ ____
ROOT
ATOM      1  C   UNL     1       3.532   6.885  18.152  0.00  0.00    +0.000 A 
ATOM      2  C   UNL     1       3.047   6.736  19.449  0.00  0.00    +0.000 A 
ATOM      3  C   UNL     1       2.012   7.549  19.914  0.00  0.00    +0.000 A 
ATOM      4  C   UNL     1       1.505   8.570  19.112  0.00  0.00    +0.000 A 
ATOM      5  C   UNL     1       2.035   8.773  17.836  0.00  0.00    +0.000 A 
ATOM      6  C   UNL     1       3.029   7.928  17.356  0.00  0.00    +0.000 A 
ENDROOT
BRANCH   1   9
ATOM      7  C   UNL     1       5.589   4.116  16.497  0.00  0.00    +0.000 C 
ATOM      8  N   UNL     1       4.421   4.761  17.087  0.00  0.00    +0.000 N 
ATOM      9  C   UNL     1       4.629   6.061  17.565  0.00  0.00    +0.000 C 
ATOM     10  O   UNL     1       5.728   6.602  17.485  0.00  0.00    +0.000 OA
BRANCH   8  11
ATOM     11  C   UNL     1       3.168   4.007  17.062  0.00  0.00    +0.000 C 
BRANCH  11  12
ATOM     12  C   UNL     1       2.597   3.616  18.414  0.00  0.00    +0.000 A 
ATOM     13  C   UNL     1       1.244   3.776  18.770  0.00  0.00    +0.000 A 
ATOM     14  C   UNL     1       0.779   3.372  20.028  0.00  0.00    +0.000 A 
ATOM     15  C   UNL     1       1.660   2.807  20.941  0.00  0.00    +0.000 A 
ATOM     16  F   UNL     1       1.211   2.424  22.144  0.00  0.00    +0.000 F 
ATOM     17  C   UNL     1       2.996   2.637  20.607  0.00  0.00    +0.000 A 
ATOM     18  F   UNL     1       3.846   2.081  21.479  0.00  0.00    +0.000 F 
ATOM     19  C   UNL     1       3.467   3.038  19.358  0.00  0.00    +0.000 A 
ENDBRANCH  11  12
ENDBRANCH   8  11
ENDBRANCH   1   9
BRANCH   4  20
ATOM     20  C   UNL     1       0.384   9.431  19.583  0.00  0.00    +0.000 C 
BRANCH  20  21
ATOM     21  N   UNL     1       0.772  10.609  20.338  0.00  0.00    +0.000 N 
ATOM     22  C   UNL     1       0.615  10.517  21.706  0.00  0.00    +0.000 C 
ATOM     23  O   UNL     1       1.100   9.727  22.495  0.00  0.00    +0.000 OA
ATOM     24  C   UNL     1      -0.444  11.448  22.062  0.00  0.00    +0.000 A 
ATOM     25  C   UNL     1      -1.339  11.340  23.107  0.00  0.00    +0.000 A 
ATOM     26  C   UNL     1      -2.523  12.058  22.994  0.00  0.00    +0.000 A 
ATOM     27  C   UNL     1      -2.779  12.879  21.870  0.00  0.00    +0.000 A 
ATOM     28  C   UNL     1      -1.849  12.981  20.833  0.00  0.00    +0.000 A 
ATOM     29  C   UNL     1      -0.694  12.233  20.955  0.00  0.00    +0.000 A 
ATOM     30  C   UNL     1       0.183  11.762  19.885  0.00  0.00    +0.000 C 
ATOM     31  O   UNL     1       0.180  12.236  18.761  0.00  0.00    +0.000 OA
ENDBRANCH  20  21
ENDBRANCH   4  20
TORSDOF 5
ENDMDL
MODEL 2
REMARK VINA RESULT:      -9.0      2.748      4.160
REMARK  Name = 
REMARK  6 active torsions:
REMARK  status: ('A' for Active; 'I' for Inactive)
REMARK    1  A    between atoms: C_1  and  N_2
REMARK    2  A    between atoms: N_2  and  C_3
REMARK    3  A    between atoms: C_3  and  C_4
REMARK    4  A    between atoms: C_12  and  C_14
REMARK    5  A    between atoms: C_17  and  C_18
REMARK    6  A    between atoms: C_18  and  N_19
REMARK                            x       y       z     vdW  Elec       q    Type
REMARK                         _______ _______ _______ _____ _____    ______ ____
ROOT
ATOM      1  C   UNL     1       2.093   5.158  19.018  0.00  0.00    +0.000 A 
ATOM      2  C   UNL     1       1.742   5.432  20.337  0.00  0.00    +0.000 A 
ATOM      3  C   UNL     1       1.564   6.749  20.762  0.00  0.00    +0.000 A 
ATOM      4  C   UNL     1       1.814   7.809  19.891  0.00  0.00    +0.000 A 
ATOM      5  C   UNL     1       2.237   7.545  18.587  0.00  0.00    +0.000 A 
ATOM      6  C   UNL     1       2.361   6.231  18.151  0.00  0.00    +0.000 A 
ENDROOT
BRANCH   1   9
ATOM      7  C   UNL     1       3.524   1.744  18.054  0.00  0.00    +0.000 C 
ATOM      8  N   UNL     1       3.510   3.096  18.599  0.00  0.00    +0.000 N 
ATOM      9  C   UNL     1       2.298   3.785  18.470  0.00  0.00    +0.000 C 
ATOM     10  O   UNL     1       1.325   3.268  17.927  0.00  0.00    +0.000 OA
BRANCH   8  11
ATOM     11  C   UNL     1       4.731   3.552  19.263  0.00  0.00    +0.000 C 
BRANCH  11  12
ATOM     12  C   UNL     1       5.586   4.538  18.484  0.00  0.00    +0.000 A 
ATOM     13  C   UNL     1       5.415   4.812  17.114  0.00  0.00    +0.000 A 
ATOM     14  C   UNL     1       6.226   5.752  16.463  0.00  0.00    +0.000 A 
ATOM     15  C   UNL     1       7.213   6.422  17.173  0.00  0.00    +0.000 A 
ATOM     16  F   UNL     1       7.987   7.318  16.545  0.00  0.00    +0.000 F 
ATOM     17  C   UNL     1       7.393   6.168  18.525  0.00  0.00    +0.000 A 
ATOM     18  F   UNL     1       8.335   6.822  19.217  0.00  0.00    +0.000 F 
ATOM     19  C   UNL     1       6.592   5.234  19.180  0.00  0.00    +0.000 A 
ENDBRANCH  11  12
ENDBRANCH   8  11
ENDBRANCH   1   9
BRANCH   4  20
ATOM     20  C   UNL     1       1.606   9.221  20.321  0.00  0.00    +0.000 C 
BRANCH  20  21
ATOM     21  N   UNL     1       0.222   9.630  20.482  0.00  0.00    +0.000 N 
ATOM     22  C   UNL     1      -0.337  10.277  19.399  0.00  0.00    +0.000 C 
ATOM     23  O   UNL     1      -0.477   9.896  18.251  0.00  0.00    +0.000 OA
ATOM     24  C   UNL     1      -0.572  11.649  19.817  0.00  0.00    +0.000 A 
ATOM     25  C   UNL     1      -0.557  12.781  19.026  0.00  0.00    +0.000 A 
ATOM     26  C   UNL     1      -0.340  13.993  19.670  0.00  0.00    +0.000 A 
ATOM     27  C   UNL     1      -0.172  14.057  21.074  0.00  0.00    +0.000 A 
ATOM     28  C   UNL     1      -0.205  12.898  21.852  0.00  0.00    +0.000 A 
ATOM     29  C   UNL     1      -0.391  11.703  21.184  0.00  0.00    +0.000 A 
ATOM     30  C   UNL     1       0.003  10.365  21.620  0.00  0.00    +0.000 C 
ATOM     31  O   UNL     1       0.267  10.090  22.778  0.00  0.00    +0.000 OA
ENDBRANCH  20  21
ENDBRANCH   4  20
TORSDOF 5
ENDMDL
MODEL 3
REMARK VINA RESULT:      -8.9      1.209      1.509
REMARK  Name = 
REMARK  6 active torsions:
REMARK  status: ('A' for Active; 'I' for Inactive)
REMARK    1  A    between atoms: C_1  and  N_2
REMARK    2  A    between atoms: N_2  and  C_3
REMARK    3  A    between atoms: C_3  and  C_4
REMARK    4  A    between atoms: C_12  and  C_14
REMARK    5  A    between atoms: C_17  and  C_18
REMARK    6  A    between atoms: C_18  and  N_19
REMARK                            x       y       z     vdW  Elec       q    Type
REMARK                         _______ _______ _______ _____ _____    ______ ____
ROOT
ATOM      1  C   UNL     1       3.479   6.865  18.174  0.00  0.00    +0.000 A 
ATOM      2  C   UNL     1       3.034   6.708  19.484  0.00  0.00    +0.000 A 
ATOM      3  C   UNL     1       2.039   7.541  19.998  0.00  0.00    +0.000 A 
ATOM      4  C   UNL     1       1.535   8.590  19.230  0.00  0.00    +0.000 A 
ATOM      5  C   UNL     1       2.027   8.800  17.941  0.00  0.00    +0.000 A 
ATOM      6  C   UNL     1       2.979   7.936  17.413  0.00  0.00    +0.000 A 
ENDROOT
BRANCH   1   9
ATOM      7  C   UNL     1       5.402   4.063  16.419  0.00  0.00    +0.000 C 
ATOM      8  N   UNL     1       4.275   4.729  17.062  0.00  0.00    +0.000 N 
ATOM      9  C   UNL     1       4.531   6.021  17.536  0.00  0.00    +0.000 C 
ATOM     10  O   UNL     1       5.638   6.539  17.413  0.00  0.00    +0.000 OA
BRANCH   8  11
ATOM     11  C   UNL     1       3.006   4.003  17.086  0.00  0.00    +0.000 C 
BRANCH  11  12
ATOM     12  C   UNL     1       2.500   3.587  18.458  0.00  0.00    +0.000 A 
ATOM     13  C   UNL     1       1.161   3.719  18.873  0.00  0.00    +0.000 A 
ATOM     14  C   UNL     1       0.759   3.293  20.145  0.00  0.00    +0.000 A 
ATOM     15  C   UNL     1       1.689   2.736  21.014  0.00  0.00    +0.000 A 
ATOM     16  F   UNL     1       1.299   2.332  22.231  0.00  0.00    +0.000 F 
ATOM     17  C   UNL     1       3.011   2.594  20.620  0.00  0.00    +0.000 A 
ATOM     18  F   UNL     1       3.909   2.044  21.449  0.00  0.00    +0.000 F 
ATOM     19  C   UNL     1       3.421   3.016  19.356  0.00  0.00    +0.000 A 
ENDBRANCH  11  12
ENDBRANCH   8  11
ENDBRANCH   1   9
BRANCH   4  20
ATOM     20  C   UNL     1       0.455   9.473  19.754  0.00  0.00    +0.000 C 
BRANCH  20  21
ATOM     21  N   UNL     1       0.244  10.708  19.021  0.00  0.00    +0.000 N 
ATOM     22  C   UNL     1       0.355  11.867  19.762  0.00  0.00    +0.000 C 
ATOM     23  O   UNL     1       1.295  12.292  20.408  0.00  0.00    +0.000 OA
ATOM     24  C   UNL     1      -0.977  12.446  19.821  0.00  0.00    +0.000 A 
ATOM     25  C   UNL     1      -1.515  13.212  20.836  0.00  0.00    +0.000 A 
ATOM     26  C   UNL     1      -2.901  13.265  20.914  0.00  0.00    +0.000 A 
ATOM     27  C   UNL     1      -3.715  12.585  19.977  0.00  0.00    +0.000 A 
ATOM     28  C   UNL     1      -3.145  11.829  18.951  0.00  0.00    +0.000 A 
ATOM     29  C   UNL     1      -1.765  11.767  18.914  0.00  0.00    +0.000 A 
ATOM     30  C   UNL     1      -0.932  10.725  18.315  0.00  0.00    +0.000 C 
ATOM     31  O   UNL     1      -1.348   9.929  17.491  0.00  0.00    +0.000 OA
ENDBRANCH  20  21
ENDBRANCH   4  20
TORSDOF 5
ENDMDL
MODEL 4
REMARK VINA RESULT:      -8.9      2.739      4.251
REMARK  Name = 
REMARK  6 active torsions:
REMARK  status: ('A' for Active; 'I' for Inactive)
REMARK    1  A    between atoms: C_1  and  N_2
REMARK    2  A    between atoms: N_2  and  C_3
REMARK    3  A    between atoms: C_3  and  C_4
REMARK    4  A    between atoms: C_12  and  C_14
REMARK    5  A    between atoms: C_17  and  C_18
REMARK    6  A    between atoms: C_18  and  N_19
REMARK                            x       y       z     vdW  Elec       q    Type
REMARK                         _______ _______ _______ _____ _____    ______ ____
ROOT
ATOM      1  C   UNL     1       2.178   5.160  18.970  0.00  0.00    +0.000 A 
ATOM      2  C   UNL     1       2.360   6.341  18.255  0.00  0.00    +0.000 A 
ATOM      3  C   UNL     1       2.103   7.576  18.853  0.00  0.00    +0.000 A 
ATOM      4  C   UNL     1       1.587   7.638  20.147  0.00  0.00    +0.000 A 
ATOM      5  C   UNL     1       1.333   6.456  20.845  0.00  0.00    +0.000 A 
ATOM      6  C   UNL     1       1.640   5.229  20.267  0.00  0.00    +0.000 A 
ENDROOT
BRANCH   1   9
ATOM      7  C   UNL     1       3.722   1.794  18.013  0.00  0.00    +0.000 C 
ATOM      8  N   UNL     1       3.660   3.143  18.564  0.00  0.00    +0.000 N 
ATOM      9  C   UNL     1       2.431   3.797  18.420  0.00  0.00    +0.000 C 
ATOM     10  O   UNL     1       1.482   3.255  17.860  0.00  0.00    +0.000 OA
BRANCH   8  11
ATOM     11  C   UNL     1       4.858   3.631  19.248  0.00  0.00    +0.000 C 
BRANCH  11  12
ATOM     12  C   UNL     1       5.691   4.651  18.490  0.00  0.00    +0.000 A 
ATOM     13  C   UNL     1       5.466   5.003  17.145  0.00  0.00    +0.000 A 
ATOM     14  C   UNL     1       6.260   5.969  16.514  0.00  0.00    +0.000 A 
ATOM     15  C   UNL     1       7.284   6.590  17.217  0.00  0.00    +0.000 A 
ATOM     16  F   UNL     1       8.042   7.512  16.608  0.00  0.00    +0.000 F 
ATOM     17  C   UNL     1       7.517   6.259  18.544  0.00  0.00    +0.000 A 
ATOM     18  F   UNL     1       8.495   6.864  19.231  0.00  0.00    +0.000 F 
ATOM     19  C   UNL     1       6.733   5.297  19.180  0.00  0.00    +0.000 A 
ENDBRANCH  11  12
ENDBRANCH   8  11
ENDBRANCH   1   9
BRANCH   4  20
ATOM     20  C   UNL     1       1.330   8.948  20.808  0.00  0.00    +0.000 C 
BRANCH  20  21
ATOM     21  N   UNL     1      -0.054   9.384  20.820  0.00  0.00    +0.000 N 
ATOM     22  C   UNL     1      -0.421  10.231  19.794  0.00  0.00    +0.000 C 
ATOM     23  O   UNL     1      -0.379  10.059  18.590  0.00  0.00    +0.000 OA
ATOM     24  C   UNL     1      -0.698  11.521  20.405  0.00  0.00    +0.000 A 
ATOM     25  C   UNL     1      -0.537  12.769  19.837  0.00  0.00    +0.000 A 
ATOM     26  C   UNL     1      -0.408  13.842  20.710  0.00  0.00    +0.000 A 
ATOM     27  C   UNL     1      -0.468  13.658  22.112  0.00  0.00    +0.000 A 
ATOM     28  C   UNL     1      -0.646  12.386  22.659  0.00  0.00    +0.000 A 
ATOM     29  C   UNL     1      -0.740  11.332  21.771  0.00  0.00    +0.000 A 
ATOM     30  C   UNL     1      -0.443   9.923  22.021  0.00  0.00    +0.000 C 
ATOM     31  O   UNL     1      -0.374   9.443  23.139  0.00  0.00    +0.000 OA
ENDBRANCH  20  21
ENDBRANCH   4  20
TORSDOF 5
ENDMDL
MODEL 5
REMARK VINA RESULT:      -8.9      2.803      4.222
REMARK  Name = 
REMARK  6 active torsions:
REMARK  status: ('A' for Active; 'I' for Inactive)
REMARK    1  A    between atoms: C_1  and  N_2
REMARK    2  A    between atoms: N_2  and  C_3
REMARK    3  A    between atoms: C_3  and  C_4
REMARK    4  A    between atoms: C_12  and  C_14
REMARK    5  A    between atoms: C_17  and  C_18
REMARK    6  A    between atoms: C_18  and  N_19
REMARK                            x       y       z     vdW  Elec       q    Type
REMARK                         _______ _______ _______ _____ _____    ______ ____
ROOT
ATOM      1  C   UNL     1       2.108   4.914  19.072  0.00  0.00    +0.000 A 
ATOM      2  C   UNL     1       1.654   5.077  20.378  0.00  0.00    +0.000 A 
ATOM      3  C   UNL     1       1.419   6.353  20.891  0.00  0.00    +0.000 A 
ATOM      4  C   UNL     1       1.712   7.483  20.127  0.00  0.00    +0.000 A 
ATOM      5  C   UNL     1       2.236   7.330  18.842  0.00  0.00    +0.000 A 
ATOM      6  C   UNL     1       2.419   6.056  18.315  0.00  0.00    +0.000 A 
ENDROOT
BRANCH   1   9
ATOM      7  C   UNL     1       3.691   1.626  17.923  0.00  0.00    +0.000 C 
ATOM      8  N   UNL     1       3.610   2.934  18.564  0.00  0.00    +0.000 N 
ATOM      9  C   UNL     1       2.381   3.592  18.436  0.00  0.00    +0.000 C 
ATOM     10  O   UNL     1       1.448   3.086  17.819  0.00  0.00    +0.000 OA
BRANCH   8  11
ATOM     11  C   UNL     1       4.789   3.378  19.307  0.00  0.00    +0.000 C 
BRANCH  11  12
ATOM     12  C   UNL     1       5.645   4.436  18.630  0.00  0.00    +0.000 A 
ATOM     13  C   UNL     1       6.466   5.343  19.327  0.00  0.00    +0.000 A 
ATOM     14  C   UNL     1       7.248   6.279  18.637  0.00  0.00    +0.000 A 
ATOM     15  C   UNL     1       7.216   6.318  17.250  0.00  0.00    +0.000 A 
ATOM     16  F   UNL     1       7.964   7.217  16.595  0.00  0.00    +0.000 F 
ATOM     17  C   UNL     1       6.416   5.429  16.546  0.00  0.00    +0.000 A 
ATOM     18  F   UNL     1       6.392   5.454  15.207  0.00  0.00    +0.000 F 
ATOM     19  C   UNL     1       5.634   4.495  17.224  0.00  0.00    +0.000 A 
ENDBRANCH  11  12
ENDBRANCH   8  11
ENDBRANCH   1   9
BRANCH   4  20
ATOM     20  C   UNL     1       1.444   8.853  20.649  0.00  0.00    +0.000 C 
BRANCH  20  21
ATOM     21  N   UNL     1       0.057   9.278  20.612  0.00  0.00    +0.000 N 
ATOM     22  C   UNL     1      -0.263  10.178  19.615  0.00  0.00    +0.000 C 
ATOM     23  O   UNL     1      -0.157  10.073  18.407  0.00  0.00    +0.000 OA
ATOM     24  C   UNL     1      -0.584  11.430  20.280  0.00  0.00    +0.000 A 
ATOM     25  C   UNL     1      -0.406  12.709  19.792  0.00  0.00    +0.000 A 
ATOM     26  C   UNL     1      -0.333  13.733  20.728  0.00  0.00    +0.000 A 
ATOM     27  C   UNL     1      -0.465  13.471  22.112  0.00  0.00    +0.000 A 
ATOM     28  C   UNL     1      -0.659  12.170  22.579  0.00  0.00    +0.000 A 
ATOM     29  C   UNL     1      -0.696  11.166  21.630  0.00  0.00    +0.000 A 
ATOM     30  C   UNL     1      -0.399   9.747  21.817  0.00  0.00    +0.000 C 
ATOM     31  O   UNL     1      -0.385   9.206  22.910  0.00  0.00    +0.000 OA
ENDBRANCH  20  21
ENDBRANCH   4  20
TORSDOF 5
ENDMDL
MODEL 6
REMARK VINA RESULT:      -8.9      4.141      8.838
REMARK  Name = 
REMARK  6 active torsions:
REMARK  status: ('A' for Active; 'I' for Inactive)
REMARK    1  A    between atoms: C_1  and  N_2
REMARK    2  A    between atoms: N_2  and  C_3
REMARK    3  A    between atoms: C_3  and  C_4
REMARK    4  A    between atoms: C_12  and  C_14
REMARK    5  A    between atoms: C_17  and  C_18
REMARK    6  A    between atoms: C_18  and  N_19
REMARK                            x       y       z     vdW  Elec       q    Type
REMARK                         _______ _______ _______ _____ _____    ______ ____
ROOT
ATOM      1  C   UNL     1       1.235  10.329  19.318  0.00  0.00    +0.000 A 
ATOM      2  C   UNL     1       1.164   9.378  20.333  0.00  0.00    +0.000 A 
ATOM      3  C   UNL     1       1.650   8.086  20.126  0.00  0.00    +0.000 A 
ATOM      4  C   UNL     1       2.141   7.711  18.876  0.00  0.00    +0.000 A 
ATOM      5  C   UNL     1       2.149   8.637  17.832  0.00  0.00    +0.000 A 
ATOM      6  C   UNL     1       1.714   9.938  18.056  0.00  0.00    +0.000 A 
ENDROOT
BRANCH   1   9
ATOM      7  C   UNL     1      -0.910  13.471  19.710  0.00  0.00    +0.000 C 
ATOM      8  N   UNL     1      -0.611  12.055  19.535  0.00  0.00    +0.000 N 
ATOM      9  C   UNL     1       0.749  11.734  19.447  0.00  0.00    +0.000 C 
ATOM     10  O   UNL     1       1.615  12.602  19.511  0.00  0.00    +0.000 OA
BRANCH   8  11
ATOM     11  C   UNL     1      -1.748  11.136  19.530  0.00  0.00    +0.000 C 
BRANCH  11  12
ATOM     12  C   UNL     1      -2.389  10.874  18.177  0.00  0.00    +0.000 A 
ATOM     13  C   UNL     1      -1.845  10.012  17.206  0.00  0.00    +0.000 A 
ATOM     14  C   UNL     1      -2.502   9.798  15.987  0.00  0.00    +0.000 A 
ATOM     15  C   UNL     1      -3.703  10.444  15.726  0.00  0.00    +0.000 A 
ATOM     16  F   UNL     1      -4.326  10.238  14.558  0.00  0.00    +0.000 F 
ATOM     17  C   UNL     1      -4.256  11.294  16.673  0.00  0.00    +0.000 A 
ATOM     18  F   UNL     1      -5.421  11.909  16.432  0.00  0.00    +0.000 F 
ATOM     19  C   UNL     1      -3.609  11.513  17.888  0.00  0.00    +0.000 A 
ENDBRANCH  11  12
ENDBRANCH   8  11
ENDBRANCH   1   9
BRANCH   4  20
ATOM     20  C   UNL     1       2.686   6.343  18.645  0.00  0.00    +0.000 C 
BRANCH  20  21
ATOM     21  N   UNL     1       1.866   5.250  19.135  0.00  0.00    +0.000 N 
ATOM     22  C   UNL     1       2.328   4.622  20.273  0.00  0.00    +0.000 C 
ATOM     23  O   UNL     1       2.555   5.080  21.378  0.00  0.00    +0.000 OA
ATOM     24  C   UNL     1       2.716   3.280  19.873  0.00  0.00    +0.000 A 
ATOM     25  C   UNL     1       3.708   2.494  20.425  0.00  0.00    +0.000 A 
ATOM     26  C   UNL     1       4.220   1.478  19.627  0.00  0.00    +0.000 A 
ATOM     27  C   UNL     1       3.722   1.250  18.322  0.00  0.00    +0.000 A 
ATOM     28  C   UNL     1       2.708   2.051  17.793  0.00  0.00    +0.000 A 
ATOM     29  C   UNL     1       2.238   3.074  18.595  0.00  0.00    +0.000 A 
ATOM     30  C   UNL     1       1.585   4.312  18.174  0.00  0.00    +0.000 C 
ATOM     31  O   UNL     1       1.083   4.461  17.073  0.00  0.00    +0.000 OA
ENDBRANCH  20  21
ENDBRANCH   4  20
TORSDOF 5
ENDMDL
MODEL 7
REMARK VINA RESULT:      -8.8      0.616      1.229
REMARK  Name = 
REMARK  6 active torsions:
REMARK  status: ('A' for Active; 'I' for Inactive)
REMARK    1  A    between atoms: C_1  and  N_2
REMARK    2  A    between atoms: N_2  and  C_3
REMARK    3  A    between atoms: C_3  and  C_4
REMARK    4  A    between atoms: C_12  and  C_14
REMARK    5  A    between atoms: C_17  and  C_18
REMARK    6  A    between atoms: C_18  and  N_19
REMARK                            x       y       z     vdW  Elec       q    Type
REMARK                         _______ _______ _______ _____ _____    ______ ____
ROOT
ATOM      1  C   UNL     1       3.783   6.732  17.991  0.00  0.00    +0.000 A 
ATOM      2  C   UNL     1       3.343   6.477  19.287  0.00  0.00    +0.000 A 
ATOM      3  C   UNL     1       2.300   7.222  19.839  0.00  0.00    +0.000 A 
ATOM      4  C   UNL     1       1.740   8.283  19.128  0.00  0.00    +0.000 A 
ATOM      5  C   UNL     1       2.224   8.593  17.855  0.00  0.00    +0.000 A 
ATOM      6  C   UNL     1       3.227   7.814  17.287  0.00  0.00    +0.000 A 
ENDROOT
BRANCH   1   9
ATOM      7  C   UNL     1       5.880   4.123  16.140  0.00  0.00    +0.000 C 
ATOM      8  N   UNL     1       4.720   4.687  16.820  0.00  0.00    +0.000 N 
ATOM      9  C   UNL     1       4.884   5.986  17.314  0.00  0.00    +0.000 C 
ATOM     10  O   UNL     1       5.943   6.592  17.177  0.00  0.00    +0.000 OA
BRANCH   8  11
ATOM     11  C   UNL     1       3.513   3.861  16.858  0.00  0.00    +0.000 C 
BRANCH  11  12
ATOM     12  C   UNL     1       3.079   3.375  18.230  0.00  0.00    +0.000 A 
ATOM     13  C   UNL     1       3.968   2.883  19.205  0.00  0.00    +0.000 A 
ATOM     14  C   UNL     1       3.501   2.472  20.460  0.00  0.00    +0.000 A 
ATOM     15  C   UNL     1       2.145   2.545  20.752  0.00  0.00    +0.000 A 
ATOM     16  F   UNL     1       1.704   2.148  21.953  0.00  0.00    +0.000 F 
ATOM     17  C   UNL     1       1.255   3.031  19.805  0.00  0.00    +0.000 A 
ATOM     18  F   UNL     1      -0.052   3.115  20.086  0.00  0.00    +0.000 F 
ATOM     19  C   UNL     1       1.710   3.441  18.553  0.00  0.00    +0.000 A 
ENDBRANCH  11  12
ENDBRANCH   8  11
ENDBRANCH   1   9
BRANCH   4  20
ATOM     20  C   UNL     1       0.610   9.074  19.692  0.00  0.00    +0.000 C 
BRANCH  20  21
ATOM     21  N   UNL     1       0.981  10.305  20.366  0.00  0.00    +0.000 N 
ATOM     22  C   UNL     1       0.780  10.320  21.731  0.00  0.00    +0.000 C 
ATOM     23  O   UNL     1       1.236   9.592  22.594  0.00  0.00    +0.000 OA
ATOM     24  C   UNL     1      -0.284  11.279  21.979  0.00  0.00    +0.000 A 
ATOM     25  C   UNL     1      -1.212  11.256  23.001  0.00  0.00    +0.000 A 
ATOM     26  C   UNL     1      -2.388  11.967  22.795  0.00  0.00    +0.000 A 
ATOM     27  C   UNL     1      -2.603  12.699  21.603  0.00  0.00    +0.000 A 
ATOM     28  C   UNL     1      -1.641  12.717  20.592  0.00  0.00    +0.000 A 
ATOM     29  C   UNL     1      -0.495  11.977  20.808  0.00  0.00    +0.000 A 
ATOM     30  C   UNL     1       0.413  11.421  19.806  0.00  0.00    +0.000 C 
ATOM     31  O   UNL     1       0.449  11.807  18.650  0.00  0.00    +0.000 OA
ENDBRANCH  20  21
ENDBRANCH   4  20
TORSDOF 5
ENDMDL
MODEL 8
REMARK VINA RESULT:      -8.8      2.894      4.411
REMARK  Name = 
REMARK  6 active torsions:
REMARK  status: ('A' for Active; 'I' for Inactive)
REMARK    1  A    between atoms: C_1  and  N_2
REMARK    2  A    between atoms: N_2  and  C_3
REMARK    3  A    between atoms: C_3  and  C_4
REMARK    4  A    between atoms: C_12  and  C_14
REMARK    5  A    between atoms: C_17  and  C_18
REMARK    6  A    between atoms: C_18  and  N_19
REMARK                            x       y       z     vdW  Elec       q    Type
REMARK                         _______ _______ _______ _____ _____    ______ ____
ROOT
ATOM      1  C   UNL     1       2.085   5.139  19.175  0.00  0.00    +0.000 A 
ATOM      2  C   UNL     1       1.792   5.662  20.431  0.00  0.00    +0.000 A 
ATOM      3  C   UNL     1       1.644   7.039  20.606  0.00  0.00    +0.000 A 
ATOM      4  C   UNL     1       1.865   7.911  19.541  0.00  0.00    +0.000 A 
ATOM      5  C   UNL     1       2.231   7.399  18.295  0.00  0.00    +0.000 A 
ATOM      6  C   UNL     1       2.325   6.024  18.111  0.00  0.00    +0.000 A 
ENDROOT
BRANCH   1   9
ATOM      7  C   UNL     1       3.496   1.629  18.603  0.00  0.00    +0.000 C 
ATOM      8  N   UNL     1       3.511   3.068  18.842  0.00  0.00    +0.000 N 
ATOM      9  C   UNL     1       2.256   3.684  18.889  0.00  0.00    +0.000 C 
ATOM     10  O   UNL     1       1.222   3.039  18.734  0.00  0.00    +0.000 OA
BRANCH   8  11
ATOM     11  C   UNL     1       4.819   3.686  19.058  0.00  0.00    +0.000 C 
BRANCH  11  12
ATOM     12  C   UNL     1       5.574   4.109  17.809  0.00  0.00    +0.000 A 
ATOM     13  C   UNL     1       6.883   4.625  17.821  0.00  0.00    +0.000 A 
ATOM     14  C   UNL     1       7.529   4.974  16.628  0.00  0.00    +0.000 A 
ATOM     15  C   UNL     1       6.872   4.814  15.415  0.00  0.00    +0.000 A 
ATOM     16  F   UNL     1       7.493   5.152  14.276  0.00  0.00    +0.000 F 
ATOM     17  C   UNL     1       5.583   4.303  15.383  0.00  0.00    +0.000 A 
ATOM     18  F   UNL     1       4.950   4.134  14.214  0.00  0.00    +0.000 F 
ATOM     19  C   UNL     1       4.933   3.954  16.565  0.00  0.00    +0.000 A 
ENDBRANCH  11  12
ENDBRANCH   8  11
ENDBRANCH   1   9
BRANCH   4  20
ATOM     20  C   UNL     1       1.688   9.382  19.704  0.00  0.00    +0.000 C 
BRANCH  20  21
ATOM     21  N   UNL     1       0.336   9.822  19.995  0.00  0.00    +0.000 N 
ATOM     22  C   UNL     1      -0.349  10.383  18.936  0.00  0.00    +0.000 C 
ATOM     23  O   UNL     1      -0.628   9.909  17.850  0.00  0.00    +0.000 OA
ATOM     24  C   UNL     1      -0.527  11.789  19.260  0.00  0.00    +0.000 A 
ATOM     25  C   UNL     1      -0.604  12.849  18.380  0.00  0.00    +0.000 A 
ATOM     26  C   UNL     1      -0.307  14.108  18.887  0.00  0.00    +0.000 A 
ATOM     27  C   UNL     1       0.030  14.288  20.250  0.00  0.00    +0.000 A 
ATOM     28  C   UNL     1       0.087  13.200  21.123  0.00  0.00    +0.000 A 
ATOM     29  C   UNL     1      -0.181  11.955  20.586  0.00  0.00    +0.000 A 
ATOM     30  C   UNL     1       0.258  10.653  21.084  0.00  0.00    +0.000 C 
ATOM     31  O   UNL     1       0.659  10.473  22.221  0.00  0.00    +0.000 OA
ENDBRANCH  20  21
ENDBRANCH   4  20
TORSDOF 5
ENDMDL
MODEL 9
REMARK VINA RESULT:      -8.7      3.014      4.383
REMARK  Name = 
REMARK  6 active torsions:
REMARK  status: ('A' for Active; 'I' for Inactive)
REMARK    1  A    between atoms: C_1  and  N_2
REMARK    2  A    between atoms: N_2  and  C_3
REMARK    3  A    between atoms: C_3  and  C_4
REMARK    4  A    between atoms: C_12  and  C_14
REMARK    5  A    between atoms: C_17  and  C_18
REMARK    6  A    between atoms: C_18  and  N_19
REMARK                            x       y       z     vdW  Elec       q    Type
REMARK                         _______ _______ _______ _____ _____    ______ ____
ROOT
ATOM      1  C   UNL     1       2.135   5.167  19.197  0.00  0.00    +0.000 A 
ATOM      2  C   UNL     1       1.881   5.824  20.398  0.00  0.00    +0.000 A 
ATOM      3  C   UNL     1       1.737   7.211  20.429  0.00  0.00    +0.000 A 
ATOM      4  C   UNL     1       1.922   7.964  19.269  0.00  0.00    +0.000 A 
ATOM      5  C   UNL     1       2.248   7.320  18.074  0.00  0.00    +0.000 A 
ATOM      6  C   UNL     1       2.338   5.933  18.036  0.00  0.00    +0.000 A 
ENDROOT
BRANCH   1   9
ATOM      7  C   UNL     1       3.531   1.614  18.961  0.00  0.00    +0.000 C 
ATOM      8  N   UNL     1       3.552   3.070  19.043  0.00  0.00    +0.000 N 
ATOM      9  C   UNL     1       2.298   3.690  19.064  0.00  0.00    +0.000 C 
ATOM     10  O   UNL     1       1.261   3.034  19.012  0.00  0.00    +0.000 OA
BRANCH   8  11
ATOM     11  C   UNL     1       4.866   3.705  19.151  0.00  0.00    +0.000 C 
BRANCH  11  12
ATOM     12  C   UNL     1       5.496   4.162  17.847  0.00  0.00    +0.000 A 
ATOM     13  C   UNL     1       5.220   3.578  16.596  0.00  0.00    +0.000 A 
ATOM     14  C   UNL     1       5.820   4.066  15.428  0.00  0.00    +0.000 A 
ATOM     15  C   UNL     1       6.702   5.136  15.499  0.00  0.00    +0.000 A 
ATOM     16  F   UNL     1       7.276   5.597  14.379  0.00  0.00    +0.000 F 
ATOM     17  C   UNL     1       6.983   5.727  16.722  0.00  0.00    +0.000 A 
ATOM     18  F   UNL     1       7.822   6.768  16.794  0.00  0.00    +0.000 F 
ATOM     19  C   UNL     1       6.391   5.248  17.889  0.00  0.00    +0.000 A 
ENDBRANCH  11  12
ENDBRANCH   8  11
ENDBRANCH   1   9
BRANCH   4  20
ATOM     20  C   UNL     1       1.747   9.444  19.279  0.00  0.00    +0.000 C 
BRANCH  20  21
ATOM     21  N   UNL     1       0.467   9.921  19.768  0.00  0.00    +0.000 N 
ATOM     22  C   UNL     1      -0.353  10.501  18.821  0.00  0.00    +0.000 C 
ATOM     23  O   UNL     1      -0.805  10.035  17.791  0.00  0.00    +0.000 OA
ATOM     24  C   UNL     1      -0.442  11.911  19.163  0.00  0.00    +0.000 A 
ATOM     25  C   UNL     1      -0.621  12.973  18.300  0.00  0.00    +0.000 A 
ATOM     26  C   UNL     1      -0.218  14.224  18.753  0.00  0.00    +0.000 A 
ATOM     27  C   UNL     1       0.325  14.394  20.049  0.00  0.00    +0.000 A 
ATOM     28  C   UNL     1       0.483  13.304  20.907  0.00  0.00    +0.000 A 
ATOM     29  C   UNL     1       0.103  12.067  20.421  0.00  0.00    +0.000 A 
ATOM     30  C   UNL     1       0.576  10.753  20.853  0.00  0.00    +0.000 C 
ATOM     31  O   UNL     1       1.138  10.562  21.918  0.00  0.00    +0.000 OA
ENDBRANCH  20  21
ENDBRANCH   4  20
TORSDOF 5
ENDMDL
