MODEL 1
REMARK VINA RESULT:      -8.3      0.000      0.000
REMARK  Name = 
REMARK  4 active torsions:
REMARK  status: ('A' for Active; 'I' for Inactive)
REMARK    1  A    between atoms: C_2  and  C_3
REMARK    2  A    between atoms: N_6  and  C_7
REMARK    3  A    between atoms: C_7  and  C_8
REMARK    4  A    between atoms: C_20  and  C_21
REMARK                            x       y       z     vdW  Elec       q    Type
REMARK                         _______ _______ _______ _____ _____    ______ ____
ROOT
ATOM      1  O   UNL     1       2.042   8.874  17.439  0.00  0.00    +0.000 OA
ATOM      2  C   UNL     1       2.055   8.229  18.491  0.00  0.00    +0.000 C 
ATOM      3  N   UNL     1       1.596   8.804  19.683  0.00  0.00    +0.000 N 
ATOM      4  C   UNL     1       1.325   8.108  20.933  0.00  0.00    +0.000 C 
ATOM      5  C   UNL     1      -0.132   8.404  21.208  0.00  0.00    +0.000 C 
ATOM      6  C   UNL     1      -0.271   9.846  20.760  0.00  0.00    +0.000 C 
ATOM      7  C   UNL     1       0.719   9.982  19.581  0.00  0.00    +0.000 C 
ENDROOT
BRANCH   7   8
ATOM      8  C   UNL     1       1.372  11.356  19.640  0.00  0.00    +0.000 A 
ATOM      9  C   UNL     1       1.840  11.920  18.437  0.00  0.00    +0.000 A 
ATOM     10  C   UNL     1       2.299  13.241  18.388  0.00  0.00    +0.000 A 
ATOM     11  C   UNL     1       2.319  14.014  19.543  0.00  0.00    +0.000 A 
ATOM     12  C   UNL     1       1.890  13.466  20.753  0.00  0.00    +0.000 A 
ATOM     13  C   UNL     1       1.413  12.146  20.799  0.00  0.00    +0.000 A 
ATOM     14  O   UNL     1       1.918  14.151  21.938  0.00  0.00    +0.000 OA
ATOM     15  C   UNL     1       2.176  15.549  21.780  0.00  0.00    +0.000 C 
ATOM     16  C   UNL     1       3.147  15.867  20.652  0.00  0.00    +0.000 C 
ATOM     17  O   UNL     1       2.740  15.307  19.405  0.00  0.00    +0.000 OA
ENDBRANCH   7   8
BRANCH   2  18
ATOM     18  C   UNL     1       2.438   6.816  18.457  0.00  0.00    +0.000 A 
ATOM     19  C   UNL     1       1.713   5.614  18.294  0.00  0.00    +0.000 A 
ATOM     20  N   UNL     1       2.487   4.526  18.225  0.00  0.00    +0.000 NA
ATOM     21  N   UNL     1       3.731   5.014  18.405  0.00  0.00    +0.000 N 
ATOM     22  C   UNL     1       3.741   6.363  18.609  0.00  0.00    +0.000 A 
BRANCH  21  23
ATOM     23  C   UNL     1       4.880   4.112  18.368  0.00  0.00    +0.000 C 
BRANCH  23  24
ATOM     24  C   UNL     1       5.643   4.275  17.074  0.00  0.00    +0.000 A 
ATOM     25  C   UNL     1       5.020   3.899  15.869  0.00  0.00    +0.000 A 
ATOM     26  C   UNL     1       5.615   4.173  14.637  0.00  0.00    +0.000 A 
ATOM     27  C   UNL     1       6.846   4.820  14.586  0.00  0.00    +0.000 A 
ATOM     28  C   UNL     1       7.499   5.157  15.771  0.00  0.00    +0.000 A 
ATOM     29  C   UNL     1       6.909   4.879  17.008  0.00  0.00    +0.000 A 
ATOM     30 CL   UNL     1       7.800   5.308  18.423  0.00  0.00    +0.000 Cl
ENDBRANCH  23  24
ENDBRANCH  21  23
ENDBRANCH   2  18
TORSDOF 4
ENDMDL
MODEL 2
REMARK VINA RESULT:      -8.3      3.032      4.171
REMARK  Name = 
REMARK  4 active torsions:
REMARK  status: ('A' for Active; 'I' for Inactive)
REMARK    1  A    between atoms: C_2  and  C_3
REMARK    2  A    between atoms: N_6  and  C_7
REMARK    3  A    between atoms: C_7  and  C_8
REMARK    4  A    between atoms: C_20  and  C_21
REMARK                            x       y       z     vdW  Elec       q    Type
REMARK                         _______ _______ _______ _____ _____    ______ ____
ROOT
ATOM      1  O   UNL     1       1.231   8.526  22.123  0.00  0.00    +0.000 OA
ATOM      2  C   UNL     1       1.220   8.316  20.907  0.00  0.00    +0.000 C 
ATOM      3  N   UNL     1       0.793   9.311  20.018  0.00  0.00    +0.000 N 
ATOM      4  C   UNL     1       0.949   9.304  18.570  0.00  0.00    +0.000 C 
ATOM      5  C   UNL     1       1.741  10.559  18.281  0.00  0.00    +0.000 C 
ATOM      6  C   UNL     1       1.162  11.555  19.269  0.00  0.00    +0.000 C 
ATOM      7  C   UNL     1       0.783  10.702  20.500  0.00  0.00    +0.000 C 
ENDROOT
BRANCH   7   8
ATOM      8  C   UNL     1      -0.515  11.234  21.091  0.00  0.00    +0.000 A 
ATOM      9  C   UNL     1      -0.666  11.211  22.491  0.00  0.00    +0.000 A 
ATOM     10  C   UNL     1      -1.755  11.832  23.112  0.00  0.00    +0.000 A 
ATOM     11  C   UNL     1      -2.723  12.469  22.344  0.00  0.00    +0.000 A 
ATOM     12  C   UNL     1      -2.611  12.477  20.953  0.00  0.00    +0.000 A 
ATOM     13  C   UNL     1      -1.509  11.870  20.331  0.00  0.00    +0.000 A 
ATOM     14  O   UNL     1      -3.545  13.048  20.130  0.00  0.00    +0.000 OA
ATOM     15  C   UNL     1      -4.499  13.855  20.826  0.00  0.00    +0.000 C 
ATOM     16  C   UNL     1      -4.872  13.312  22.197  0.00  0.00    +0.000 C 
ATOM     17  O   UNL     1      -3.733  13.089  23.026  0.00  0.00    +0.000 OA
ENDBRANCH   7   8
BRANCH   2  18
ATOM     18  C   UNL     1       1.777   7.062  20.394  0.00  0.00    +0.000 A 
ATOM     19  C   UNL     1       1.556   5.701  20.703  0.00  0.00    +0.000 A 
ATOM     20  N   UNL     1       2.218   4.856  19.906  0.00  0.00    +0.000 NA
ATOM     21  N   UNL     1       2.929   5.674  19.103  0.00  0.00    +0.000 N 
ATOM     22  C   UNL     1       2.743   6.993  19.401  0.00  0.00    +0.000 A 
BRANCH  21  23
ATOM     23  C   UNL     1       3.777   5.110  18.056  0.00  0.00    +0.000 C 
BRANCH  23  24
ATOM     24  C   UNL     1       5.186   5.643  18.167  0.00  0.00    +0.000 A 
ATOM     25  C   UNL     1       5.941   5.324  19.312  0.00  0.00    +0.000 A 
ATOM     26  C   UNL     1       7.295   5.656  19.395  0.00  0.00    +0.000 A 
ATOM     27  C   UNL     1       7.915   6.319  18.340  0.00  0.00    +0.000 A 
ATOM     28  C   UNL     1       7.171   6.684  17.220  0.00  0.00    +0.000 A 
ATOM     29  C   UNL     1       5.814   6.359  17.135  0.00  0.00    +0.000 A 
ATOM     30 CL   UNL     1       4.964   6.872  15.723  0.00  0.00    +0.000 Cl
ENDBRANCH  23  24
ENDBRANCH  21  23
ENDBRANCH   2  18
TORSDOF 4
ENDMDL
MODEL 3
REMARK VINA RESULT:      -8.2      1.428      1.654
REMARK  Name = 
REMARK  4 active torsions:
REMARK  status: ('A' for Active; 'I' for Inactive)
REMARK    1  A    between atoms: C_2  and  C_3
REMARK    2  A    between atoms: N_6  and  C_7
REMARK    3  A    between atoms: C_7  and  C_8
REMARK    4  A    between atoms: C_20  and  C_21
REMARK                            x       y       z     vdW  Elec       q    Type
REMARK                         _______ _______ _______ _____ _____    ______ ____
ROOT
ATOM      1  O   UNL     1       1.777   8.451  17.677  0.00  0.00    +0.000 OA
ATOM      2  C   UNL     1       1.907   8.173  18.873  0.00  0.00    +0.000 C 
ATOM      3  N   UNL     1       1.376   9.014  19.860  0.00  0.00    +0.000 N 
ATOM      4  C   UNL     1       1.236   8.707  21.276  0.00  0.00    +0.000 C 
ATOM      5  C   UNL     1      -0.247   8.853  21.537  0.00  0.00    +0.000 C 
ATOM      6  C   UNL     1      -0.622  10.047  20.681  0.00  0.00    +0.000 C 
ATOM      7  C   UNL     1       0.319   9.958  19.458  0.00  0.00    +0.000 C 
ENDROOT
BRANCH   7   8
ATOM      8  C   UNL     1       0.743  11.363  19.056  0.00  0.00    +0.000 A 
ATOM      9  C   UNL     1      -0.210  12.396  19.148  0.00  0.00    +0.000 A 
ATOM     10  C   UNL     1       0.151  13.733  18.955  0.00  0.00    +0.000 A 
ATOM     11  C   UNL     1       1.466  14.061  18.645  0.00  0.00    +0.000 A 
ATOM     12  C   UNL     1       2.422  13.052  18.518  0.00  0.00    +0.000 A 
ATOM     13  C   UNL     1       2.063  11.711  18.729  0.00  0.00    +0.000 A 
ATOM     14  O   UNL     1       3.725  13.293  18.176  0.00  0.00    +0.000 OA
ATOM     15  C   UNL     1       4.077  14.679  18.219  0.00  0.00    +0.000 C 
ATOM     16  C   UNL     1       2.954  15.607  17.782  0.00  0.00    +0.000 C 
ATOM     17  O   UNL     1       1.749  15.392  18.515  0.00  0.00    +0.000 OA
ENDBRANCH   7   8
BRANCH   2  18
ATOM     18  C   UNL     1       2.512   6.893  19.247  0.00  0.00    +0.000 A 
ATOM     19  C   UNL     1       2.040   5.761  19.949  0.00  0.00    +0.000 A 
ATOM     20  N   UNL     1       2.912   4.748  19.981  0.00  0.00    +0.000 NA
ATOM     21  N   UNL     1       3.992   5.243  19.343  0.00  0.00    +0.000 N 
ATOM     22  C   UNL     1       3.819   6.537  18.945  0.00  0.00    +0.000 A 
BRANCH  21  23
ATOM     23  C   UNL     1       5.172   4.404  19.148  0.00  0.00    +0.000 C 
BRANCH  23  24
ATOM     24  C   UNL     1       5.695   4.539  17.737  0.00  0.00    +0.000 A 
ATOM     25  C   UNL     1       4.975   3.934  16.689  0.00  0.00    +0.000 A 
ATOM     26  C   UNL     1       5.324   4.159  15.355  0.00  0.00    +0.000 A 
ATOM     27  C   UNL     1       6.401   4.984  15.047  0.00  0.00    +0.000 A 
ATOM     28  C   UNL     1       7.153   5.553  16.074  0.00  0.00    +0.000 A 
ATOM     29  C   UNL     1       6.811   5.326  17.410  0.00  0.00    +0.000 A 
ATOM     30 CL   UNL     1       7.812   6.049  18.617  0.00  0.00    +0.000 Cl
ENDBRANCH  23  24
ENDBRANCH  21  23
ENDBRANCH   2  18
TORSDOF 4
ENDMDL
MODEL 4
REMARK VINA RESULT:      -8.2      3.674      5.360
REMARK  Name = 
REMARK  4 active torsions:
REMARK  status: ('A' for Active; 'I' for Inactive)
REMARK    1  A    between atoms: C_2  and  C_3
REMARK    2  A    between atoms: N_6  and  C_7
REMARK    3  A    between atoms: C_7  and  C_8
REMARK    4  A    between atoms: C_20  and  C_21
REMARK                            x       y       z     vdW  Elec       q    Type
REMARK                         _______ _______ _______ _____ _____    ______ ____
ROOT
ATOM      1  O   UNL     1      -0.083   9.296  21.644  0.00  0.00    +0.000 OA
ATOM      2  C   UNL     1       0.413   9.763  20.615  0.00  0.00    +0.000 C 
ATOM      3  N   UNL     1       0.315  11.133  20.337  0.00  0.00    +0.000 N 
ATOM      4  C   UNL     1       1.043  11.862  19.309  0.00  0.00    +0.000 C 
ATOM      5  C   UNL     1       1.797  12.925  20.077  0.00  0.00    +0.000 C 
ATOM      6  C   UNL     1       0.802  13.332  21.147  0.00  0.00    +0.000 C 
ATOM      7  C   UNL     1       0.016  12.039  21.459  0.00  0.00    +0.000 C 
ENDROOT
BRANCH   7   8
ATOM      8  C   UNL     1      -1.442  12.394  21.709  0.00  0.00    +0.000 A 
ATOM      9  C   UNL     1      -2.267  12.641  20.594  0.00  0.00    +0.000 A 
ATOM     10  C   UNL     1      -3.648  12.809  20.738  0.00  0.00    +0.000 A 
ATOM     11  C   UNL     1      -4.228  12.755  22.000  0.00  0.00    +0.000 A 
ATOM     12  C   UNL     1      -3.427  12.543  23.124  0.00  0.00    +0.000 A 
ATOM     13  C   UNL     1      -2.043  12.356  22.977  0.00  0.00    +0.000 A 
ATOM     14  O   UNL     1      -3.919  12.517  24.401  0.00  0.00    +0.000 OA
ATOM     15  C   UNL     1      -5.348  12.465  24.458  0.00  0.00    +0.000 C 
ATOM     16  C   UNL     1      -6.032  13.260  23.356  0.00  0.00    +0.000 C 
ATOM     17  O   UNL     1      -5.588  12.885  22.054  0.00  0.00    +0.000 OA
ENDBRANCH   7   8
BRANCH   2  18
ATOM     18  C   UNL     1       1.214   8.893  19.750  0.00  0.00    +0.000 A 
ATOM     19  C   UNL     1       1.561   8.936  18.381  0.00  0.00    +0.000 A 
ATOM     20  N   UNL     1       2.411   7.972  18.014  0.00  0.00    +0.000 NA
ATOM     21  N   UNL     1       2.577   7.252  19.142  0.00  0.00    +0.000 N 
ATOM     22  C   UNL     1       1.833   7.730  20.182  0.00  0.00    +0.000 A 
BRANCH  21  23
ATOM     23  C   UNL     1       3.477   6.102  19.148  0.00  0.00    +0.000 C 
BRANCH  23  24
ATOM     24  C   UNL     1       2.693   4.811  19.105  0.00  0.00    +0.000 A 
ATOM     25  C   UNL     1       1.725   4.575  20.100  0.00  0.00    +0.000 A 
ATOM     26  C   UNL     1       0.866   3.478  20.019  0.00  0.00    +0.000 A 
ATOM     27  C   UNL     1       0.964   2.594  18.949  0.00  0.00    +0.000 A 
ATOM     28  C   UNL     1       1.948   2.786  17.981  0.00  0.00    +0.000 A 
ATOM     29  C   UNL     1       2.814   3.881  18.061  0.00  0.00    +0.000 A 
ATOM     30 CL   UNL     1       4.019   4.028  16.833  0.00  0.00    +0.000 Cl
ENDBRANCH  23  24
ENDBRANCH  21  23
ENDBRANCH   2  18
TORSDOF 4
ENDMDL
MODEL 5
REMARK VINA RESULT:      -8.0      1.761      2.137
REMARK  Name = 
REMARK  4 active torsions:
REMARK  status: ('A' for Active; 'I' for Inactive)
REMARK    1  A    between atoms: C_2  and  C_3
REMARK    2  A    between atoms: N_6  and  C_7
REMARK    3  A    between atoms: C_7  and  C_8
REMARK    4  A    between atoms: C_20  and  C_21
REMARK                            x       y       z     vdW  Elec       q    Type
REMARK                         _______ _______ _______ _____ _____    ______ ____
ROOT
ATOM      1  O   UNL     1       1.863   8.587  17.683  0.00  0.00    +0.000 OA
ATOM      2  C   UNL     1       1.935   8.327  18.888  0.00  0.00    +0.000 C 
ATOM      3  N   UNL     1       1.359   9.182  19.836  0.00  0.00    +0.000 N 
ATOM      4  C   UNL     1       1.150   8.896  21.248  0.00  0.00    +0.000 C 
ATOM      5  C   UNL     1      -0.343   9.046  21.436  0.00  0.00    +0.000 C 
ATOM      6  C   UNL     1      -0.674  10.228  20.546  0.00  0.00    +0.000 C 
ATOM      7  C   UNL     1       0.324  10.121  19.371  0.00  0.00    +0.000 C 
ENDROOT
BRANCH   7   8
ATOM      8  C   UNL     1       0.769  11.520  18.969  0.00  0.00    +0.000 A 
ATOM      9  C   UNL     1      -0.174  12.563  19.045  0.00  0.00    +0.000 A 
ATOM     10  C   UNL     1       0.204  13.896  18.853  0.00  0.00    +0.000 A 
ATOM     11  C   UNL     1       1.527  14.209  18.559  0.00  0.00    +0.000 A 
ATOM     12  C   UNL     1       2.473  13.188  18.448  0.00  0.00    +0.000 A 
ATOM     13  C   UNL     1       2.096  11.852  18.659  0.00  0.00    +0.000 A 
ATOM     14  O   UNL     1       3.783  13.414  18.122  0.00  0.00    +0.000 OA
ATOM     15  C   UNL     1       4.150  14.796  18.166  0.00  0.00    +0.000 C 
ATOM     16  C   UNL     1       3.043  15.735  17.711  0.00  0.00    +0.000 C 
ATOM     17  O   UNL     1       1.826  15.536  18.428  0.00  0.00    +0.000 OA
ENDBRANCH   7   8
BRANCH   2  18
ATOM     18  C   UNL     1       2.520   7.051  19.309  0.00  0.00    +0.000 A 
ATOM     19  C   UNL     1       2.066   5.997  20.132  0.00  0.00    +0.000 A 
ATOM     20  N   UNL     1       2.897   4.951  20.170  0.00  0.00    +0.000 NA
ATOM     21  N   UNL     1       3.938   5.348  19.409  0.00  0.00    +0.000 N 
ATOM     22  C   UNL     1       3.781   6.616  18.929  0.00  0.00    +0.000 A 
BRANCH  21  23
ATOM     23  C   UNL     1       5.063   4.445  19.184  0.00  0.00    +0.000 C 
BRANCH  23  24
ATOM     24  C   UNL     1       5.495   4.482  17.737  0.00  0.00    +0.000 A 
ATOM     25  C   UNL     1       6.790   4.941  17.429  0.00  0.00    +0.000 A 
ATOM     26  C   UNL     1       7.295   4.848  16.131  0.00  0.00    +0.000 A 
ATOM     27  C   UNL     1       6.513   4.303  15.117  0.00  0.00    +0.000 A 
ATOM     28  C   UNL     1       5.211   3.887  15.394  0.00  0.00    +0.000 A 
ATOM     29  C   UNL     1       4.700   3.984  16.692  0.00  0.00    +0.000 A 
ATOM     30 CL   UNL     1       3.071   3.469  16.941  0.00  0.00    +0.000 Cl
ENDBRANCH  23  24
ENDBRANCH  21  23
ENDBRANCH   2  18
TORSDOF 4
ENDMDL
MODEL 6
REMARK VINA RESULT:      -8.0      3.754      5.205
REMARK  Name = 
REMARK  4 active torsions:
REMARK  status: ('A' for Active; 'I' for Inactive)
REMARK    1  A    between atoms: C_2  and  C_3
REMARK    2  A    between atoms: N_6  and  C_7
REMARK    3  A    between atoms: C_7  and  C_8
REMARK    4  A    between atoms: C_20  and  C_21
REMARK                            x       y       z     vdW  Elec       q    Type
REMARK                         _______ _______ _______ _____ _____    ______ ____
ROOT
ATOM      1  O   UNL     1       1.151  11.503  19.616  0.00  0.00    +0.000 OA
ATOM      2  C   UNL     1       0.572  10.505  19.177  0.00  0.00    +0.000 C 
ATOM      3  N   UNL     1      -0.797  10.547  18.884  0.00  0.00    +0.000 N 
ATOM      4  C   UNL     1      -1.557   9.549  18.147  0.00  0.00    +0.000 C 
ATOM      5  C   UNL     1      -2.137  10.317  16.981  0.00  0.00    +0.000 C 
ATOM      6  C   UNL     1      -2.490  11.654  17.604  0.00  0.00    +0.000 C 
ATOM      7  C   UNL     1      -1.415  11.870  18.693  0.00  0.00    +0.000 C 
ENDROOT
BRANCH   7   8
ATOM      8  C   UNL     1      -2.061  12.530  19.902  0.00  0.00    +0.000 A 
ATOM      9  C   UNL     1      -1.457  13.689  20.428  0.00  0.00    +0.000 A 
ATOM     10  C   UNL     1      -2.082  14.440  21.429  0.00  0.00    +0.000 A 
ATOM     11  C   UNL     1      -3.310  14.035  21.939  0.00  0.00    +0.000 A 
ATOM     12  C   UNL     1      -3.913  12.872  21.456  0.00  0.00    +0.000 A 
ATOM     13  C   UNL     1      -3.294  12.128  20.438  0.00  0.00    +0.000 A 
ATOM     14  O   UNL     1      -5.100  12.388  21.936  0.00  0.00    +0.000 OA
ATOM     15  C   UNL     1      -5.790  13.313  22.782  0.00  0.00    +0.000 C 
ATOM     16  C   UNL     1      -4.864  14.155  23.648  0.00  0.00    +0.000 C 
ATOM     17  O   UNL     1      -3.877  14.844  22.883  0.00  0.00    +0.000 OA
ENDBRANCH   7   8
BRANCH   2  18
ATOM     18  C   UNL     1       1.357   9.313  18.847  0.00  0.00    +0.000 A 
ATOM     19  C   UNL     1       1.926   8.822  17.650  0.00  0.00    +0.000 A 
ATOM     20  N   UNL     1       2.663   7.720  17.819  0.00  0.00    +0.000 NA
ATOM     21  N   UNL     1       2.528   7.450  19.133  0.00  0.00    +0.000 N 
ATOM     22  C   UNL     1       1.708   8.338  19.769  0.00  0.00    +0.000 A 
BRANCH  21  23
ATOM     23  C   UNL     1       3.225   6.308  19.719  0.00  0.00    +0.000 C 
BRANCH  23  24
ATOM     24  C   UNL     1       2.453   5.032  19.477  0.00  0.00    +0.000 A 
ATOM     25  C   UNL     1       1.481   4.641  20.418  0.00  0.00    +0.000 A 
ATOM     26  C   UNL     1       0.632   3.562  20.167  0.00  0.00    +0.000 A 
ATOM     27  C   UNL     1       0.744   2.849  18.977  0.00  0.00    +0.000 A 
ATOM     28  C   UNL     1       1.732   3.193  18.055  0.00  0.00    +0.000 A 
ATOM     29  C   UNL     1       2.588   4.270  18.305  0.00  0.00    +0.000 A 
ATOM     30 CL   UNL     1       3.799   4.610  17.122  0.00  0.00    +0.000 Cl
ENDBRANCH  23  24
ENDBRANCH  21  23
ENDBRANCH   2  18
TORSDOF 4
ENDMDL
MODEL 7
REMARK VINA RESULT:      -8.0      3.766      5.411
REMARK  Name = 
REMARK  4 active torsions:
REMARK  status: ('A' for Active; 'I' for Inactive)
REMARK    1  A    between atoms: C_2  and  C_3
REMARK    2  A    between atoms: N_6  and  C_7
REMARK    3  A    between atoms: C_7  and  C_8
REMARK    4  A    between atoms: C_20  and  C_21
REMARK                            x       y       z     vdW  Elec       q    Type
REMARK                         _______ _______ _______ _____ _____    ______ ____
ROOT
ATOM      1  O   UNL     1       1.074  10.637  20.970  0.00  0.00    +0.000 OA
ATOM      2  C   UNL     1       0.597  10.034  20.004  0.00  0.00    +0.000 C 
ATOM      3  N   UNL     1      -0.628  10.429  19.452  0.00  0.00    +0.000 N 
ATOM      4  C   UNL     1      -1.193   9.982  18.187  0.00  0.00    +0.000 C 
ATOM      5  C   UNL     1      -1.377  11.258  17.397  0.00  0.00    +0.000 C 
ATOM      6  C   UNL     1      -1.828  12.245  18.456  0.00  0.00    +0.000 C 
ATOM      7  C   UNL     1      -1.100  11.793  19.742  0.00  0.00    +0.000 C 
ENDROOT
BRANCH   7   8
ATOM      8  C   UNL     1      -2.032  11.980  20.931  0.00  0.00    +0.000 A 
ATOM      9  C   UNL     1      -1.506  11.788  22.223  0.00  0.00    +0.000 A 
ATOM     10  C   UNL     1      -2.254  12.101  23.363  0.00  0.00    +0.000 A 
ATOM     11  C   UNL     1      -3.549  12.591  23.232  0.00  0.00    +0.000 A 
ATOM     12  C   UNL     1      -4.103  12.760  21.962  0.00  0.00    +0.000 A 
ATOM     13  C   UNL     1      -3.345  12.462  20.818  0.00  0.00    +0.000 A 
ATOM     14  O   UNL     1      -5.383  13.198  21.755  0.00  0.00    +0.000 OA
ATOM     15  C   UNL     1      -6.005  13.713  22.936  0.00  0.00    +0.000 C 
ATOM     16  C   UNL     1      -5.612  12.972  24.205  0.00  0.00    +0.000 C 
ATOM     17  O   UNL     1      -4.199  12.915  24.391  0.00  0.00    +0.000 OA
ENDBRANCH   7   8
BRANCH   2  18
ATOM     18  C   UNL     1       1.385   8.977  19.364  0.00  0.00    +0.000 A 
ATOM     19  C   UNL     1       1.822   8.757  18.038  0.00  0.00    +0.000 A 
ATOM     20  N   UNL     1       2.620   7.693  17.907  0.00  0.00    +0.000 NA
ATOM     21  N   UNL     1       2.660   7.175  19.151  0.00  0.00    +0.000 N 
ATOM     22  C   UNL     1       1.888   7.873  20.035  0.00  0.00    +0.000 A 
BRANCH  21  23
ATOM     23  C   UNL     1       3.472   5.991  19.422  0.00  0.00    +0.000 C 
BRANCH  23  24
ATOM     24  C   UNL     1       2.648   4.734  19.268  0.00  0.00    +0.000 A 
ATOM     25  C   UNL     1       1.680   4.435  20.245  0.00  0.00    +0.000 A 
ATOM     26  C   UNL     1       0.787   3.376  20.071  0.00  0.00    +0.000 A 
ATOM     27  C   UNL     1       0.851   2.593  18.923  0.00  0.00    +0.000 A 
ATOM     28  C   UNL     1       1.834   2.845  17.967  0.00  0.00    +0.000 A 
ATOM     29  C   UNL     1       2.734   3.901  18.140  0.00  0.00    +0.000 A 
ATOM     30 CL   UNL     1       3.934   4.125  16.920  0.00  0.00    +0.000 Cl
ENDBRANCH  23  24
ENDBRANCH  21  23
ENDBRANCH   2  18
TORSDOF 4
ENDMDL
MODEL 8
REMARK VINA RESULT:      -8.0      0.791      1.496
REMARK  Name = 
REMARK  4 active torsions:
REMARK  status: ('A' for Active; 'I' for Inactive)
REMARK    1  A    between atoms: C_2  and  C_3
REMARK    2  A    between atoms: N_6  and  C_7
REMARK    3  A    between atoms: C_7  and  C_8
REMARK    4  A    between atoms: C_20  and  C_21
REMARK                            x       y       z     vdW  Elec       q    Type
REMARK                         _______ _______ _______ _____ _____    ______ ____
ROOT
ATOM      1  O   UNL     1       1.918   9.017  17.420  0.00  0.00    +0.000 OA
ATOM      2  C   UNL     1       1.995   8.383  18.476  0.00  0.00    +0.000 C 
ATOM      3  N   UNL     1       1.527   8.936  19.674  0.00  0.00    +0.000 N 
ATOM      4  C   UNL     1       1.328   8.235  20.934  0.00  0.00    +0.000 C 
ATOM      5  C   UNL     1      -0.139   8.440  21.240  0.00  0.00    +0.000 C 
ATOM      6  C   UNL     1      -0.379   9.866  20.785  0.00  0.00    +0.000 C 
ATOM      7  C   UNL     1       0.574  10.056  19.584  0.00  0.00    +0.000 C 
ENDROOT
BRANCH   7   8
ATOM      8  C   UNL     1       1.140  11.468  19.618  0.00  0.00    +0.000 A 
ATOM      9  C   UNL     1       0.917  12.244  20.773  0.00  0.00    +0.000 A 
ATOM     10  C   UNL     1       1.542  13.484  20.944  0.00  0.00    +0.000 A 
ATOM     11  C   UNL     1       2.385  13.980  19.956  0.00  0.00    +0.000 A 
ATOM     12  C   UNL     1       2.597  13.243  18.789  0.00  0.00    +0.000 A 
ATOM     13  C   UNL     1       1.982  11.991  18.625  0.00  0.00    +0.000 A 
ATOM     14  O   UNL     1       3.379  13.684  17.756  0.00  0.00    +0.000 OA
ATOM     15  C   UNL     1       4.163  14.834  18.087  0.00  0.00    +0.000 C 
ATOM     16  C   UNL     1       3.456  15.805  19.022  0.00  0.00    +0.000 C 
ATOM     17  O   UNL     1       2.993  15.177  20.215  0.00  0.00    +0.000 OA
ENDBRANCH   7   8
BRANCH   2  18
ATOM     18  C   UNL     1       2.467   6.996  18.443  0.00  0.00    +0.000 A 
ATOM     19  C   UNL     1       1.832   5.757  18.203  0.00  0.00    +0.000 A 
ATOM     20  N   UNL     1       2.675   4.720  18.170  0.00  0.00    +0.000 NA
ATOM     21  N   UNL     1       3.870   5.278  18.452  0.00  0.00    +0.000 N 
ATOM     22  C   UNL     1       3.780   6.620  18.683  0.00  0.00    +0.000 A 
BRANCH  21  23
ATOM     23  C   UNL     1       5.072   4.448  18.484  0.00  0.00    +0.000 C 
BRANCH  23  24
ATOM     24  C   UNL     1       5.802   4.518  17.162  0.00  0.00    +0.000 A 
ATOM     25  C   UNL     1       5.307   3.770  16.076  0.00  0.00    +0.000 A 
ATOM     26  C   UNL     1       5.846   3.919  14.797  0.00  0.00    +0.000 A 
ATOM     27  C   UNL     1       6.892   4.811  14.582  0.00  0.00    +0.000 A 
ATOM     28  C   UNL     1       7.425   5.525  15.655  0.00  0.00    +0.000 A 
ATOM     29  C   UNL     1       6.892   5.374  16.939  0.00  0.00    +0.000 A 
ATOM     30 CL   UNL     1       7.630   6.277  18.212  0.00  0.00    +0.000 Cl
ENDBRANCH  23  24
ENDBRANCH  21  23
ENDBRANCH   2  18
TORSDOF 4
ENDMDL
MODEL 9
REMARK VINA RESULT:      -8.0      5.125     10.068
REMARK  Name = 
REMARK  4 active torsions:
REMARK  status: ('A' for Active; 'I' for Inactive)
REMARK    1  A    between atoms: C_2  and  C_3
REMARK    2  A    between atoms: N_6  and  C_7
REMARK    3  A    between atoms: C_7  and  C_8
REMARK    4  A    between atoms: C_20  and  C_21
REMARK                            x       y       z     vdW  Elec       q    Type
REMARK                         _______ _______ _______ _____ _____    ______ ____
ROOT
ATOM      1  O   UNL     1       0.510  10.193  18.246  0.00  0.00    +0.000 OA
ATOM      2  C   UNL     1      -0.288  10.074  19.179  0.00  0.00    +0.000 C 
ATOM      3  N   UNL     1       0.009   9.242  20.267  0.00  0.00    +0.000 N 
ATOM      4  C   UNL     1      -0.705   9.185  21.534  0.00  0.00    +0.000 C 
ATOM      5  C   UNL     1       0.352   9.508  22.566  0.00  0.00    +0.000 C 
ATOM      6  C   UNL     1       1.578   8.801  22.020  0.00  0.00    +0.000 C 
ATOM      7  C   UNL     1       1.418   8.878  20.485  0.00  0.00    +0.000 C 
ENDROOT
BRANCH   7   8
ATOM      8  C   UNL     1       1.914   7.577  19.870  0.00  0.00    +0.000 A 
ATOM      9  C   UNL     1       2.557   7.638  18.617  0.00  0.00    +0.000 A 
ATOM     10  C   UNL     1       3.183   6.513  18.070  0.00  0.00    +0.000 A 
ATOM     11  C   UNL     1       3.159   5.302  18.753  0.00  0.00    +0.000 A 
ATOM     12  C   UNL     1       2.502   5.210  19.981  0.00  0.00    +0.000 A 
ATOM     13  C   UNL     1       1.889   6.343  20.538  0.00  0.00    +0.000 A 
ATOM     14  O   UNL     1       2.401   4.044  20.691  0.00  0.00    +0.000 OA
ATOM     15  C   UNL     1       3.248   3.002  20.196  0.00  0.00    +0.000 C 
ATOM     16  C   UNL     1       3.393   3.002  18.682  0.00  0.00    +0.000 C 
ATOM     17  O   UNL     1       3.830   4.261  18.173  0.00  0.00    +0.000 OA
ENDBRANCH   7   8
BRANCH   2  18
ATOM     18  C   UNL     1      -1.493  10.907  19.199  0.00  0.00    +0.000 A 
ATOM     19  C   UNL     1      -1.855  12.079  19.899  0.00  0.00    +0.000 A 
ATOM     20  N   UNL     1      -3.041  12.576  19.536  0.00  0.00    +0.000 NA
ATOM     21  N   UNL     1      -3.491  11.685  18.628  0.00  0.00    +0.000 N 
ATOM     22  C   UNL     1      -2.627  10.643  18.445  0.00  0.00    +0.000 A 
BRANCH  21  23
ATOM     23  C   UNL     1      -4.775  11.901  17.968  0.00  0.00    +0.000 C 
BRANCH  23  24
ATOM     24  C   UNL     1      -5.915  11.512  18.881  0.00  0.00    +0.000 A 
ATOM     25  C   UNL     1      -6.316  10.162  18.924  0.00  0.00    +0.000 A 
ATOM     26  C   UNL     1      -7.252   9.721  19.861  0.00  0.00    +0.000 A 
ATOM     27  C   UNL     1      -7.810  10.621  20.764  0.00  0.00    +0.000 A 
ATOM     28  C   UNL     1      -7.460  11.969  20.704  0.00  0.00    +0.000 A 
ATOM     29  C   UNL     1      -6.527  12.416  19.764  0.00  0.00    +0.000 A 
ATOM     30 CL   UNL     1      -6.171  14.105  19.744  0.00  0.00    +0.000 Cl
ENDBRANCH  23  24
ENDBRANCH  21  23
ENDBRANCH   2  18
TORSDOF 4
ENDMDL
