MODEL 1
REMARK VINA RESULT:      -8.7      0.000      0.000
REMARK  Name = 
REMARK  4 active torsions:
REMARK  status: ('A' for Active; 'I' for Inactive)
REMARK    1  A    between atoms: C_1  and  C_2
REMARK    2  A    between atoms: C_10  and  N_11
REMARK    3  A    between atoms: C_12  and  C_14
REMARK    4  A    between atoms: N_19  and  C_20
REMARK                            x       y       z     vdW  Elec       q    Type
REMARK                         _______ _______ _______ _____ _____    ______ ____
ROOT
ATOM      1  N   UNL     1       0.700   9.746  19.407  0.00  0.00    +0.000 N 
ATOM      2  C   UNL     1       1.593   9.242  18.486  0.00  0.00    +0.000 C 
ATOM      3  O   UNL     1       1.915   9.804  17.446  0.00  0.00    +0.000 OA
ATOM      4  H   UNL     1       0.523   9.216  20.254  0.00  0.00    +0.000 HD
ENDROOT
BRANCH   1  14
ATOM      5  C   UNL     1      -5.299  11.608  17.362  0.00  0.00    +0.000 C 
ATOM      6  C   UNL     1      -3.879  11.414  17.808  0.00  0.00    +0.000 A 
ATOM      7  C   UNL     1      -2.946  10.741  16.997  0.00  0.00    +0.000 A 
ATOM      8  C   UNL     1      -1.621  10.567  17.415  0.00  0.00    +0.000 A 
ATOM      9  C   UNL     1      -1.234  11.071  18.648  0.00  0.00    +0.000 A 
ATOM     10  C   UNL     1      -2.153  11.753  19.446  0.00  0.00    +0.000 A 
ATOM     11  C   UNL     1      -3.471  11.926  19.047  0.00  0.00    +0.000 A 
ATOM     12  C   UNL     1      -1.528  12.285  20.690  0.00  0.00    +0.000 C 
ATOM     13  C   UNL     1      -0.074  11.793  20.603  0.00  0.00    +0.000 C 
ATOM     14  C   UNL     1       0.139  11.074  19.249  0.00  0.00    +0.000 C 
ENDBRANCH   1  14
BRANCH   2  15
ATOM     15  C   UNL     1       2.262   7.914  18.861  0.00  0.00    +0.000 A 
ATOM     16  C   UNL     1       1.776   7.299  20.111  0.00  0.00    +0.000 A 
ATOM     17  C   UNL     1       2.230   6.081  20.396  0.00  0.00    +0.000 A 
ATOM     18  C   UNL     1       3.198   5.397  19.511  0.00  0.00    +0.000 A 
ATOM     19  O   UNL     1       3.525   4.260  19.846  0.00  0.00    +0.000 OA
ATOM     20  N   UNL     1       3.675   6.149  18.426  0.00  0.00    +0.000 N 
ATOM     21  N   UNL     1       3.171   7.409  18.086  0.00  0.00    +0.000 NA
BRANCH  20  22
ATOM     22  C   UNL     1       4.699   5.666  17.542  0.00  0.00    +0.000 A 
ATOM     23  C   UNL     1       5.978   6.248  17.502  0.00  0.00    +0.000 A 
ATOM     24  C   UNL     1       6.958   5.794  16.614  0.00  0.00    +0.000 A 
ATOM     25  C   UNL     1       6.664   4.753  15.746  0.00  0.00    +0.000 A 
ATOM     26  F   UNL     1       7.599   4.330  14.887  0.00  0.00    +0.000 F 
ATOM     27  C   UNL     1       5.416   4.151  15.762  0.00  0.00    +0.000 A 
ATOM     28  C   UNL     1       4.441   4.596  16.665  0.00  0.00    +0.000 A 
ENDBRANCH  20  22
ENDBRANCH   2  15
TORSDOF 3
ENDMDL
MODEL 2
REMARK VINA RESULT:      -8.6      2.932      4.392
REMARK  Name = 
REMARK  4 active torsions:
REMARK  status: ('A' for Active; 'I' for Inactive)
REMARK    1  A    between atoms: C_1  and  C_2
REMARK    2  A    between atoms: C_10  and  N_11
REMARK    3  A    between atoms: C_12  and  C_14
REMARK    4  A    between atoms: N_19  and  C_20
REMARK                            x       y       z     vdW  Elec       q    Type
REMARK                         _______ _______ _______ _____ _____    ______ ____
ROOT
ATOM      1  N   UNL     1       3.127   7.783  18.119  0.00  0.00    +0.000 N 
ATOM      2  C   UNL     1       3.236   6.419  17.947  0.00  0.00    +0.000 C 
ATOM      3  O   UNL     1       2.291   5.638  17.953  0.00  0.00    +0.000 OA
ATOM      4  H   UNL     1       3.969   8.348  18.066  0.00  0.00    +0.000 HD
ENDROOT
BRANCH   1  14
ATOM      5  C   UNL     1      -0.226   9.788  23.444  0.00  0.00    +0.000 C 
ATOM      6  C   UNL     1       0.335   9.373  22.115  0.00  0.00    +0.000 A 
ATOM      7  C   UNL     1       0.648   8.028  21.844  0.00  0.00    +0.000 A 
ATOM      8  C   UNL     1       1.166   7.646  20.601  0.00  0.00    +0.000 A 
ATOM      9  C   UNL     1       1.370   8.616  19.630  0.00  0.00    +0.000 A 
ATOM     10  C   UNL     1       1.046   9.948  19.892  0.00  0.00    +0.000 A 
ATOM     11  C   UNL     1       0.538  10.341  21.122  0.00  0.00    +0.000 A 
ATOM     12  C   UNL     1       1.260  10.820  18.703  0.00  0.00    +0.000 C 
ATOM     13  C   UNL     1       1.828   9.858  17.646  0.00  0.00    +0.000 C 
ATOM     14  C   UNL     1       1.829   8.420  18.217  0.00  0.00    +0.000 C 
ENDBRANCH   1  14
BRANCH   2  15
ATOM     15  C   UNL     1       4.646   5.890  17.662  0.00  0.00    +0.000 A 
ATOM     16  C   UNL     1       5.513   5.748  18.848  0.00  0.00    +0.000 A 
ATOM     17  C   UNL     1       6.692   5.161  18.662  0.00  0.00    +0.000 A 
ATOM     18  C   UNL     1       7.118   4.703  17.322  0.00  0.00    +0.000 A 
ATOM     19  O   UNL     1       8.210   4.141  17.265  0.00  0.00    +0.000 OA
ATOM     20  N   UNL     1       6.253   5.019  16.262  0.00  0.00    +0.000 N 
ATOM     21  N   UNL     1       4.990   5.590  16.449  0.00  0.00    +0.000 NA
BRANCH  20  22
ATOM     22  C   UNL     1       6.577   4.742  14.891  0.00  0.00    +0.000 A 
ATOM     23  C   UNL     1       7.597   5.434  14.215  0.00  0.00    +0.000 A 
ATOM     24  C   UNL     1       7.883   5.183  12.870  0.00  0.00    +0.000 A 
ATOM     25  C   UNL     1       7.142   4.235  12.180  0.00  0.00    +0.000 A 
ATOM     26  F   UNL     1       7.408   4.006  10.889  0.00  0.00    +0.000 F 
ATOM     27  C   UNL     1       6.133   3.527  12.815  0.00  0.00    +0.000 A 
ATOM     28  C   UNL     1       5.861   3.769  14.168  0.00  0.00    +0.000 A 
ENDBRANCH  20  22
ENDBRANCH   2  15
TORSDOF 3
ENDMDL
MODEL 3
REMARK VINA RESULT:      -8.3      0.900      1.269
REMARK  Name = 
REMARK  4 active torsions:
REMARK  status: ('A' for Active; 'I' for Inactive)
REMARK    1  A    between atoms: C_1  and  C_2
REMARK    2  A    between atoms: C_10  and  N_11
REMARK    3  A    between atoms: C_12  and  C_14
REMARK    4  A    between atoms: N_19  and  C_20
REMARK                            x       y       z     vdW  Elec       q    Type
REMARK                         _______ _______ _______ _____ _____    ______ ____
ROOT
ATOM      1  N   UNL     1       0.014   9.976  18.747  0.00  0.00    +0.000 N 
ATOM      2  C   UNL     1       1.353   9.787  18.477  0.00  0.00    +0.000 C 
ATOM      3  O   UNL     1       2.091  10.631  17.982  0.00  0.00    +0.000 OA
ATOM      4  H   UNL     1      -0.505   9.223  19.187  0.00  0.00    +0.000 HD
ENDROOT
BRANCH   1  14
ATOM      5  C   UNL     1      -6.345  11.545  17.895  0.00  0.00    +0.000 C 
ATOM      6  C   UNL     1      -4.856  11.413  18.027  0.00  0.00    +0.000 A 
ATOM      7  C   UNL     1      -4.109  10.639  17.120  0.00  0.00    +0.000 A 
ATOM      8  C   UNL     1      -2.719  10.523  17.245  0.00  0.00    +0.000 A 
ATOM      9  C   UNL     1      -2.081  11.187  18.283  0.00  0.00    +0.000 A 
ATOM     10  C   UNL     1      -2.817  11.968  19.174  0.00  0.00    +0.000 A 
ATOM     11  C   UNL     1      -4.196  12.085  19.065  0.00  0.00    +0.000 A 
ATOM     12  C   UNL     1      -1.945  12.661  20.164  0.00  0.00    +0.000 C 
ATOM     13  C   UNL     1      -0.533  12.163  19.813  0.00  0.00    +0.000 C 
ATOM     14  C   UNL     1      -0.609  11.271  18.551  0.00  0.00    +0.000 C 
ENDBRANCH   1  14
BRANCH   2  15
ATOM     15  C   UNL     1       1.937   8.436  18.906  0.00  0.00    +0.000 A 
ATOM     16  C   UNL     1       1.593   8.011  20.276  0.00  0.00    +0.000 A 
ATOM     17  C   UNL     1       1.963   6.785  20.634  0.00  0.00    +0.000 A 
ATOM     18  C   UNL     1       2.710   5.907  19.707  0.00  0.00    +0.000 A 
ATOM     19  O   UNL     1       2.972   4.780  20.123  0.00  0.00    +0.000 OA
ATOM     20  N   UNL     1       3.085   6.485  18.484  0.00  0.00    +0.000 N 
ATOM     21  N   UNL     1       2.661   7.753  18.074  0.00  0.00    +0.000 NA
BRANCH  20  22
ATOM     22  C   UNL     1       3.907   5.801  17.526  0.00  0.00    +0.000 A 
ATOM     23  C   UNL     1       3.833   4.409  17.346  0.00  0.00    +0.000 A 
ATOM     24  C   UNL     1       4.661   3.745  16.435  0.00  0.00    +0.000 A 
ATOM     25  C   UNL     1       5.583   4.471  15.696  0.00  0.00    +0.000 A 
ATOM     26  F   UNL     1       6.385   3.833  14.836  0.00  0.00    +0.000 F 
ATOM     27  C   UNL     1       5.680   5.847  15.843  0.00  0.00    +0.000 A 
ATOM     28  C   UNL     1       4.836   6.511  16.742  0.00  0.00    +0.000 A 
ENDBRANCH  20  22
ENDBRANCH   2  15
TORSDOF 3
ENDMDL
MODEL 4
REMARK VINA RESULT:      -8.0      3.454      8.515
REMARK  Name = 
REMARK  4 active torsions:
REMARK  status: ('A' for Active; 'I' for Inactive)
REMARK    1  A    between atoms: C_1  and  C_2
REMARK    2  A    between atoms: C_10  and  N_11
REMARK    3  A    between atoms: C_12  and  C_14
REMARK    4  A    between atoms: N_19  and  C_20
REMARK                            x       y       z     vdW  Elec       q    Type
REMARK                         _______ _______ _______ _____ _____    ______ ____
ROOT
ATOM      1  N   UNL     1       1.451   8.167  19.569  0.00  0.00    +0.000 N 
ATOM      2  C   UNL     1       1.103   8.891  20.689  0.00  0.00    +0.000 C 
ATOM      3  O   UNL     1       1.643   8.784  21.785  0.00  0.00    +0.000 OA
ATOM      4  H   UNL     1       0.962   8.352  18.699  0.00  0.00    +0.000 HD
ENDROOT
BRANCH   1  14
ATOM      5  C   UNL     1       1.681   1.577  19.179  0.00  0.00    +0.000 C 
ATOM      6  C   UNL     1       1.859   3.060  19.325  0.00  0.00    +0.000 A 
ATOM      7  C   UNL     1       1.264   3.764  20.388  0.00  0.00    +0.000 A 
ATOM      8  C   UNL     1       1.437   5.148  20.523  0.00  0.00    +0.000 A 
ATOM      9  C   UNL     1       2.208   5.822  19.587  0.00  0.00    +0.000 A 
ATOM     10  C   UNL     1       2.811   5.124  18.541  0.00  0.00    +0.000 A 
ATOM     11  C   UNL     1       2.642   3.754  18.392  0.00  0.00    +0.000 A 
ATOM     12  C   UNL     1       3.659   6.008  17.692  0.00  0.00    +0.000 C 
ATOM     13  C   UNL     1       3.467   7.401  18.316  0.00  0.00    +0.000 C 
ATOM     14  C   UNL     1       2.591   7.271  19.586  0.00  0.00    +0.000 C 
ENDBRANCH   1  14
BRANCH   2  15
ATOM     15  C   UNL     1       0.005   9.943  20.492  0.00  0.00    +0.000 A 
ATOM     16  C   UNL     1      -0.144  10.907  21.599  0.00  0.00    +0.000 A 
ATOM     17  C   UNL     1      -0.987  11.918  21.404  0.00  0.00    +0.000 A 
ATOM     18  C   UNL     1      -1.756  12.044  20.147  0.00  0.00    +0.000 A 
ATOM     19  O   UNL     1      -2.479  13.034  20.054  0.00  0.00    +0.000 OA
ATOM     20  N   UNL     1      -1.615  10.987  19.234  0.00  0.00    +0.000 N 
ATOM     21  N   UNL     1      -0.697   9.946  19.402  0.00  0.00    +0.000 NA
BRANCH  20  22
ATOM     22  C   UNL     1      -2.379  10.909  18.020  0.00  0.00    +0.000 A 
ATOM     23  C   UNL     1      -3.639  11.519  17.895  0.00  0.00    +0.000 A 
ATOM     24  C   UNL     1      -4.391  11.409  16.722  0.00  0.00    +0.000 A 
ATOM     25  C   UNL     1      -3.891  10.675  15.657  0.00  0.00    +0.000 A 
ATOM     26  F   UNL     1      -4.619  10.558  14.540  0.00  0.00    +0.000 F 
ATOM     27  C   UNL     1      -2.649  10.064  15.741  0.00  0.00    +0.000 A 
ATOM     28  C   UNL     1      -1.890  10.192  16.911  0.00  0.00    +0.000 A 
ENDBRANCH  20  22
ENDBRANCH   2  15
TORSDOF 3
ENDMDL
MODEL 5
REMARK VINA RESULT:      -8.0      1.234      1.346
REMARK  Name = 
REMARK  4 active torsions:
REMARK  status: ('A' for Active; 'I' for Inactive)
REMARK    1  A    between atoms: C_1  and  C_2
REMARK    2  A    between atoms: C_10  and  N_11
REMARK    3  A    between atoms: C_12  and  C_14
REMARK    4  A    between atoms: N_19  and  C_20
REMARK                            x       y       z     vdW  Elec       q    Type
REMARK                         _______ _______ _______ _____ _____    ______ ____
ROOT
ATOM      1  N   UNL     1       1.663   9.233  18.660  0.00  0.00    +0.000 N 
ATOM      2  C   UNL     1       1.534   8.573  19.863  0.00  0.00    +0.000 C 
ATOM      3  O   UNL     1       0.990   9.037  20.858  0.00  0.00    +0.000 OA
ATOM      4  H   UNL     1       2.104   8.749  17.884  0.00  0.00    +0.000 HD
ENDROOT
BRANCH   1  14
ATOM      5  C   UNL     1      -4.706  10.854  17.998  0.00  0.00    +0.000 C 
ATOM      6  C   UNL     1      -3.215  10.708  18.080  0.00  0.00    +0.000 A 
ATOM      7  C   UNL     1      -2.510   9.902  17.167  0.00  0.00    +0.000 A 
ATOM      8  C   UNL     1      -1.118   9.773  17.244  0.00  0.00    +0.000 A 
ATOM      9  C   UNL     1      -0.434  10.456  18.240  0.00  0.00    +0.000 A 
ATOM     10  C   UNL     1      -1.129  11.268  19.136  0.00  0.00    +0.000 A 
ATOM     11  C   UNL     1      -2.510  11.398  19.075  0.00  0.00    +0.000 A 
ATOM     12  C   UNL     1      -0.214  11.976  20.076  0.00  0.00    +0.000 C 
ATOM     13  C   UNL     1       1.179  11.452  19.688  0.00  0.00    +0.000 C 
ATOM     14  C   UNL     1       1.047  10.529  18.452  0.00  0.00    +0.000 C 
ENDBRANCH   1  14
BRANCH   2  15
ATOM     15  C   UNL     1       2.061   7.133  19.896  0.00  0.00    +0.000 A 
ATOM     16  C   UNL     1       1.367   6.235  20.840  0.00  0.00    +0.000 A 
ATOM     17  C   UNL     1       1.700   4.948  20.797  0.00  0.00    +0.000 A 
ATOM     18  C   UNL     1       2.738   4.454  19.865  0.00  0.00    +0.000 A 
ATOM     19  O   UNL     1       2.945   3.243  19.879  0.00  0.00    +0.000 OA
ATOM     20  N   UNL     1       3.408   5.436  19.118  0.00  0.00    +0.000 N 
ATOM     21  N   UNL     1       3.036   6.784  19.116  0.00  0.00    +0.000 NA
BRANCH  20  22
ATOM     22  C   UNL     1       4.514   5.129  18.254  0.00  0.00    +0.000 A 
ATOM     23  C   UNL     1       5.847   5.257  18.682  0.00  0.00    +0.000 A 
ATOM     24  C   UNL     1       6.917   4.990  17.824  0.00  0.00    +0.000 A 
ATOM     25  C   UNL     1       6.664   4.597  16.518  0.00  0.00    +0.000 A 
ATOM     26  F   UNL     1       7.691   4.355  15.694  0.00  0.00    +0.000 F 
ATOM     27  C   UNL     1       5.362   4.454  16.063  0.00  0.00    +0.000 A 
ATOM     28  C   UNL     1       4.292   4.705  16.931  0.00  0.00    +0.000 A 
ENDBRANCH  20  22
ENDBRANCH   2  15
TORSDOF 3
ENDMDL
MODEL 6
REMARK VINA RESULT:      -7.9      4.374      9.601
REMARK  Name = 
REMARK  4 active torsions:
REMARK  status: ('A' for Active; 'I' for Inactive)
REMARK    1  A    between atoms: C_1  and  C_2
REMARK    2  A    between atoms: C_10  and  N_11
REMARK    3  A    between atoms: C_12  and  C_14
REMARK    4  A    between atoms: N_19  and  C_20
REMARK                            x       y       z     vdW  Elec       q    Type
REMARK                         _______ _______ _______ _____ _____    ______ ____
ROOT
ATOM      1  N   UNL     1       1.475   8.403  19.314  0.00  0.00    +0.000 N 
ATOM      2  C   UNL     1       1.049   9.045  20.457  0.00  0.00    +0.000 C 
ATOM      3  O   UNL     1       1.489   8.833  21.581  0.00  0.00    +0.000 OA
ATOM      4  H   UNL     1       1.068   8.674  18.424  0.00  0.00    +0.000 HD
ENDROOT
BRANCH   1  14
ATOM      5  C   UNL     1       1.486   1.798  19.311  0.00  0.00    +0.000 C 
ATOM      6  C   UNL     1       1.714   3.280  19.363  0.00  0.00    +0.000 A 
ATOM      7  C   UNL     1       1.174   4.065  20.399  0.00  0.00    +0.000 A 
ATOM      8  C   UNL     1       1.394   5.447  20.446  0.00  0.00    +0.000 A 
ATOM      9  C   UNL     1       2.158   6.040  19.450  0.00  0.00    +0.000 A 
ATOM     10  C   UNL     1       2.707   5.262  18.431  0.00  0.00    +0.000 A 
ATOM     11  C   UNL     1       2.490   3.892  18.369  0.00  0.00    +0.000 A 
ATOM     12  C   UNL     1       3.556   6.066  17.508  0.00  0.00    +0.000 C 
ATOM     13  C   UNL     1       3.427   7.498  18.053  0.00  0.00    +0.000 C 
ATOM     14  C   UNL     1       2.586   7.473  19.353  0.00  0.00    +0.000 C 
ENDBRANCH   1  14
BRANCH   2  15
ATOM     15  C   UNL     1      -0.000  10.145  20.256  0.00  0.00    +0.000 A 
ATOM     16  C   UNL     1      -0.486  10.301  18.871  0.00  0.00    +0.000 A 
ATOM     17  C   UNL     1      -1.496  11.146  18.682  0.00  0.00    +0.000 A 
ATOM     18  C   UNL     1      -2.078  11.910  19.807  0.00  0.00    +0.000 A 
ATOM     19  O   UNL     1      -3.031  12.636  19.531  0.00  0.00    +0.000 OA
ATOM     20  N   UNL     1      -1.434  11.764  21.046  0.00  0.00    +0.000 N 
ATOM     21  N   UNL     1      -0.405  10.843  21.271  0.00  0.00    +0.000 NA
BRANCH  20  22
ATOM     22  C   UNL     1      -1.809  12.522  22.207  0.00  0.00    +0.000 A 
ATOM     23  C   UNL     1      -3.028  12.305  22.871  0.00  0.00    +0.000 A 
ATOM     24  C   UNL     1      -3.402  13.072  23.979  0.00  0.00    +0.000 A 
ATOM     25  C   UNL     1      -2.558  14.075  24.432  0.00  0.00    +0.000 A 
ATOM     26  F   UNL     1      -2.923  14.817  25.484  0.00  0.00    +0.000 F 
ATOM     27  C   UNL     1      -1.344  14.313  23.805  0.00  0.00    +0.000 A 
ATOM     28  C   UNL     1      -0.964  13.531  22.706  0.00  0.00    +0.000 A 
ENDBRANCH  20  22
ENDBRANCH   2  15
TORSDOF 3
ENDMDL
MODEL 7
REMARK VINA RESULT:      -7.9      2.467      3.654
REMARK  Name = 
REMARK  4 active torsions:
REMARK  status: ('A' for Active; 'I' for Inactive)
REMARK    1  A    between atoms: C_1  and  C_2
REMARK    2  A    between atoms: C_10  and  N_11
REMARK    3  A    between atoms: C_12  and  C_14
REMARK    4  A    between atoms: N_19  and  C_20
REMARK                            x       y       z     vdW  Elec       q    Type
REMARK                         _______ _______ _______ _____ _____    ______ ____
ROOT
ATOM      1  N   UNL     1       0.858   9.510  18.514  0.00  0.00    +0.000 N 
ATOM      2  C   UNL     1       2.077   9.396  17.881  0.00  0.00    +0.000 C 
ATOM      3  O   UNL     1       2.694  10.330  17.380  0.00  0.00    +0.000 OA
ATOM      4  H   UNL     1       0.444   8.679  18.924  0.00  0.00    +0.000 HD
ENDROOT
BRANCH   1  14
ATOM      5  C   UNL     1      -5.340  11.527  17.446  0.00  0.00    +0.000 C 
ATOM      6  C   UNL     1      -3.883  11.298  17.722  0.00  0.00    +0.000 A 
ATOM      7  C   UNL     1      -3.004  10.886  16.703  0.00  0.00    +0.000 A 
ATOM      8  C   UNL     1      -1.644  10.678  16.965  0.00  0.00    +0.000 A 
ATOM      9  C   UNL     1      -1.168  10.887  18.252  0.00  0.00    +0.000 A 
ATOM     10  C   UNL     1      -2.035  11.310  19.259  0.00  0.00    +0.000 A 
ATOM     11  C   UNL     1      -3.386  11.512  19.015  0.00  0.00    +0.000 A 
ATOM     12  C   UNL     1      -1.321  11.554  20.545  0.00  0.00    +0.000 C 
ATOM     13  C   UNL     1       0.133  11.167  20.231  0.00  0.00    +0.000 C 
ATOM     14  C   UNL     1       0.250  10.808  18.730  0.00  0.00    +0.000 C 
ENDBRANCH   1  14
BRANCH   2  15
ATOM     15  C   UNL     1       2.706   7.998  17.885  0.00  0.00    +0.000 A 
ATOM     16  C   UNL     1       3.823   7.811  16.938  0.00  0.00    +0.000 A 
ATOM     17  C   UNL     1       4.483   6.658  17.012  0.00  0.00    +0.000 A 
ATOM     18  C   UNL     1       4.092   5.609  17.978  0.00  0.00    +0.000 A 
ATOM     19  O   UNL     1       4.791   4.598  17.989  0.00  0.00    +0.000 OA
ATOM     20  N   UNL     1       2.932   5.867  18.726  0.00  0.00    +0.000 N 
ATOM     21  N   UNL     1       2.257   7.091  18.696  0.00  0.00    +0.000 NA
BRANCH  20  22
ATOM     22  C   UNL     1       2.361   4.901  19.623  0.00  0.00    +0.000 A 
ATOM     23  C   UNL     1       2.801   4.774  20.952  0.00  0.00    +0.000 A 
ATOM     24  C   UNL     1       2.264   3.809  21.809  0.00  0.00    +0.000 A 
ATOM     25  C   UNL     1       1.282   2.949  21.340  0.00  0.00    +0.000 A 
ATOM     26  F   UNL     1       0.780   2.016  22.158  0.00  0.00    +0.000 F 
ATOM     27  C   UNL     1       0.819   3.050  20.037  0.00  0.00    +0.000 A 
ATOM     28  C   UNL     1       1.346   4.030  19.186  0.00  0.00    +0.000 A 
ENDBRANCH  20  22
ENDBRANCH   2  15
TORSDOF 3
ENDMDL
MODEL 8
REMARK VINA RESULT:      -7.8      3.983      9.305
REMARK  Name = 
REMARK  4 active torsions:
REMARK  status: ('A' for Active; 'I' for Inactive)
REMARK    1  A    between atoms: C_1  and  C_2
REMARK    2  A    between atoms: C_10  and  N_11
REMARK    3  A    between atoms: C_12  and  C_14
REMARK    4  A    between atoms: N_19  and  C_20
REMARK                            x       y       z     vdW  Elec       q    Type
REMARK                         _______ _______ _______ _____ _____    ______ ____
ROOT
ATOM      1  N   UNL     1       2.118   8.153  19.242  0.00  0.00    +0.000 N 
ATOM      2  C   UNL     1       1.732   9.080  18.298  0.00  0.00    +0.000 C 
ATOM      3  O   UNL     1       1.574   8.839  17.106  0.00  0.00    +0.000 OA
ATOM      4  H   UNL     1       2.191   8.446  20.211  0.00  0.00    +0.000 HD
ENDROOT
BRANCH   1  14
ATOM      5  C   UNL     1       7.542   4.721  17.685  0.00  0.00    +0.000 C 
ATOM      6  C   UNL     1       6.191   5.309  17.965  0.00  0.00    +0.000 A 
ATOM      7  C   UNL     1       5.683   6.370  17.192  0.00  0.00    +0.000 A 
ATOM      8  C   UNL     1       4.418   6.912  17.455  0.00  0.00    +0.000 A 
ATOM      9  C   UNL     1       3.665   6.387  18.495  0.00  0.00    +0.000 A 
ATOM     10  C   UNL     1       4.161   5.326  19.253  0.00  0.00    +0.000 A 
ATOM     11  C   UNL     1       5.415   4.784  19.008  0.00  0.00    +0.000 A 
ATOM     12  C   UNL     1       3.175   4.853  20.266  0.00  0.00    +0.000 C 
ATOM     13  C   UNL     1       1.985   5.810  20.087  0.00  0.00    +0.000 C 
ATOM     14  C   UNL     1       2.268   6.753  18.892  0.00  0.00    +0.000 C 
ENDBRANCH   1  14
BRANCH   2  15
ATOM     15  C   UNL     1       1.420  10.485  18.828  0.00  0.00    +0.000 A 
ATOM     16  C   UNL     1       2.250  11.566  18.262  0.00  0.00    +0.000 A 
ATOM     17  C   UNL     1       1.917  12.811  18.590  0.00  0.00    +0.000 A 
ATOM     18  C   UNL     1       0.787  13.088  19.502  0.00  0.00    +0.000 A 
ATOM     19  O   UNL     1       0.540  14.274  19.712  0.00  0.00    +0.000 OA
ATOM     20  N   UNL     1       0.167  11.964  20.070  0.00  0.00    +0.000 N 
ATOM     21  N   UNL     1       0.472  10.651  19.697  0.00  0.00    +0.000 NA
BRANCH  20  22
ATOM     22  C   UNL     1      -0.870  12.069  21.058  0.00  0.00    +0.000 A 
ATOM     23  C   UNL     1      -0.683  11.628  22.379  0.00  0.00    +0.000 A 
ATOM     24  C   UNL     1      -1.709  11.702  23.326  0.00  0.00    +0.000 A 
ATOM     25  C   UNL     1      -2.943  12.215  22.956  0.00  0.00    +0.000 A 
ATOM     26  F   UNL     1      -3.929  12.272  23.860  0.00  0.00    +0.000 F 
ATOM     27  C   UNL     1      -3.162  12.666  21.664  0.00  0.00    +0.000 A 
ATOM     28  C   UNL     1      -2.127  12.607  20.722  0.00  0.00    +0.000 A 
ENDBRANCH  20  22
ENDBRANCH   2  15
TORSDOF 3
ENDMDL
MODEL 9
REMARK VINA RESULT:      -7.7      3.973      8.947
REMARK  Name = 
REMARK  4 active torsions:
REMARK  status: ('A' for Active; 'I' for Inactive)
REMARK    1  A    between atoms: C_1  and  C_2
REMARK    2  A    between atoms: C_10  and  N_11
REMARK    3  A    between atoms: C_12  and  C_14
REMARK    4  A    between atoms: N_19  and  C_20
REMARK                            x       y       z     vdW  Elec       q    Type
REMARK                         _______ _______ _______ _____ _____    ______ ____
ROOT
ATOM      1  N   UNL     1       2.063   7.434  18.836  0.00  0.00    +0.000 N 
ATOM      2  C   UNL     1       1.811   8.678  18.298  0.00  0.00    +0.000 C 
ATOM      3  O   UNL     1       1.947   8.967  17.114  0.00  0.00    +0.000 OA
ATOM      4  H   UNL     1       1.890   7.288  19.825  0.00  0.00    +0.000 HD
ENDROOT
BRANCH   1  14
ATOM      5  C   UNL     1       7.927   4.570  17.817  0.00  0.00    +0.000 C 
ATOM      6  C   UNL     1       6.520   5.090  17.865  0.00  0.00    +0.000 A 
ATOM      7  C   UNL     1       6.221   6.418  17.508  0.00  0.00    +0.000 A 
ATOM      8  C   UNL     1       4.906   6.898  17.550  0.00  0.00    +0.000 A 
ATOM      9  C   UNL     1       3.891   6.040  17.951  0.00  0.00    +0.000 A 
ATOM     10  C   UNL     1       4.184   4.719  18.291  0.00  0.00    +0.000 A 
ATOM     11  C   UNL     1       5.484   4.234  18.260  0.00  0.00    +0.000 A 
ATOM     12  C   UNL     1       2.955   3.940  18.616  0.00  0.00    +0.000 C 
ATOM     13  C   UNL     1       1.826   4.976  18.490  0.00  0.00    +0.000 C 
ATOM     14  C   UNL     1       2.419   6.314  17.986  0.00  0.00    +0.000 C 
ENDBRANCH   1  14
BRANCH   2  15
ATOM     15  C   UNL     1       1.258   9.728  19.269  0.00  0.00    +0.000 A 
ATOM     16  C   UNL     1       0.688   9.187  20.518  0.00  0.00    +0.000 A 
ATOM     17  C   UNL     1       0.327  10.071  21.444  0.00  0.00    +0.000 A 
ATOM     18  C   UNL     1       0.467  11.525  21.213  0.00  0.00    +0.000 A 
ATOM     19  O   UNL     1       0.138  12.254  22.146  0.00  0.00    +0.000 OA
ATOM     20  N   UNL     1       0.900  11.903  19.932  0.00  0.00    +0.000 N 
ATOM     21  N   UNL     1       1.330  10.987  18.967  0.00  0.00    +0.000 NA
BRANCH  20  22
ATOM     22  C   UNL     1       0.979  13.276  19.518  0.00  0.00    +0.000 A 
ATOM     23  C   UNL     1       2.187  13.994  19.558  0.00  0.00    +0.000 A 
ATOM     24  C   UNL     1       2.248  15.340  19.185  0.00  0.00    +0.000 A 
ATOM     25  C   UNL     1       1.093  15.989  18.774  0.00  0.00    +0.000 A 
ATOM     26  F   UNL     1       1.151  17.281  18.431  0.00  0.00    +0.000 F 
ATOM     27  C   UNL     1      -0.115  15.310  18.715  0.00  0.00    +0.000 A 
ATOM     28  C   UNL     1      -0.170  13.957  19.072  0.00  0.00    +0.000 A 
ENDBRANCH  20  22
ENDBRANCH   2  15
TORSDOF 3
ENDMDL
