MODEL 1
REMARK VINA RESULT:      -8.3      0.000      0.000
REMARK  Name = 
REMARK  7 active torsions:
REMARK  status: ('A' for Active; 'I' for Inactive)
REMARK    1  A    between atoms: C_1  and  C_2
REMARK    2  A    between atoms: C_5  and  N_6
REMARK    3  A    between atoms: C_8  and  C_9
REMARK    4  A    between atoms: C_11  and  N_12
REMARK    5  A    between atoms: C_13  and  C_15
REMARK    6  A    between atoms: C_15  and  C_16
REMARK    7  A    between atoms: C_25  and  C_26
REMARK                            x       y       z     vdW  Elec       q    Type
REMARK                         _______ _______ _______ _____ _____    ______ ____
ROOT
ATOM      1  N   UNL     1       2.532   6.542  18.503  0.00  0.00    +0.000 N 
ATOM      2  N   UNL     1       1.798   7.658  18.635  0.00  0.00    +0.000 NA
ATOM      3  C   UNL     1       2.459   8.604  17.969  0.00  0.00    +0.000 A 
ATOM      4  C   UNL     1       1.955  10.005  17.923  0.00  0.00    +0.000 C 
ATOM      5  C   UNL     1       3.601   8.090  17.321  0.00  0.00    +0.000 A 
ATOM      6  C   UNL     1       3.624   6.749  17.655  0.00  0.00    +0.000 A 
ENDROOT
BRANCH   1  11
ATOM      7  C   UNL     1       1.233   2.165  21.996  0.00  0.00    +0.000 C 
ATOM      8  C   UNL     1       1.605   3.286  21.071  0.00  0.00    +0.000 A 
ATOM      9  C   UNL     1       2.262   4.421  21.548  0.00  0.00    +0.000 A 
ATOM     10  C   UNL     1       2.591   5.460  20.675  0.00  0.00    +0.000 A 
ATOM     11  C   UNL     1       2.268   5.396  19.303  0.00  0.00    +0.000 A 
ATOM     12  C   UNL     1       1.627   4.241  18.805  0.00  0.00    +0.000 A 
ATOM     13  C   UNL     1       1.299   3.979  17.359  0.00  0.00    +0.000 C 
ATOM     14  C   UNL     1       1.290   3.212  19.711  0.00  0.00    +0.000 A 
ENDBRANCH   1  11
BRANCH   6  15
ATOM     15  N   UNL     1       4.488   5.800  17.140  0.00  0.00    +0.000 N 
ATOM     16  C   UNL     1       5.562   5.230  17.909  0.00  0.00    +0.000 C 
ATOM     17  O   UNL     1       5.638   5.422  19.091  0.00  0.00    +0.000 OA
ATOM     18  H   UNL     1       4.367   5.529  16.162  0.00  0.00    +0.000 HD
BRANCH  16  19
ATOM     19  C   UNL     1       6.488   4.270  17.179  0.00  0.00    +0.000 C 
BRANCH  19  20
ATOM     20  C   UNL     1       6.862   4.790  15.849  0.00  0.00    +0.000 A 
ATOM     21  N   UNL     1       7.598   5.882  15.762  0.00  0.00    +0.000 NA
ATOM     22  O   UNL     1       8.034   5.955  14.458  0.00  0.00    +0.000 OA
ATOM     23  C   UNL     1       7.418   4.993  13.736  0.00  0.00    +0.000 A 
ATOM     24  C   UNL     1       7.596   4.752  12.388  0.00  0.00    +0.000 A 
ATOM     25  C   UNL     1       6.520   4.125  11.776  0.00  0.00    +0.000 A 
ATOM     26  C   UNL     1       5.686   3.307  12.534  0.00  0.00    +0.000 A 
ATOM     27  C   UNL     1       5.804   3.243  13.934  0.00  0.00    +0.000 A 
ATOM     28  C   UNL     1       6.585   4.245  14.544  0.00  0.00    +0.000 A 
ENDBRANCH  19  20
ENDBRANCH  16  19
ENDBRANCH   6  15
TORSDOF 4
ENDMDL
MODEL 2
REMARK VINA RESULT:      -8.0      3.070      8.011
REMARK  Name = 
REMARK  7 active torsions:
REMARK  status: ('A' for Active; 'I' for Inactive)
REMARK    1  A    between atoms: C_1  and  C_2
REMARK    2  A    between atoms: C_5  and  N_6
REMARK    3  A    between atoms: C_8  and  C_9
REMARK    4  A    between atoms: C_11  and  N_12
REMARK    5  A    between atoms: C_13  and  C_15
REMARK    6  A    between atoms: C_15  and  C_16
REMARK    7  A    between atoms: C_25  and  C_26
REMARK                            x       y       z     vdW  Elec       q    Type
REMARK                         _______ _______ _______ _____ _____    ______ ____
ROOT
ATOM      1  N   UNL     1       3.610   4.645  18.725  0.00  0.00    +0.000 N 
ATOM      2  N   UNL     1       3.412   3.587  19.528  0.00  0.00    +0.000 NA
ATOM      3  C   UNL     1       2.614   4.020  20.503  0.00  0.00    +0.000 A 
ATOM      4  C   UNL     1       2.201   3.119  21.615  0.00  0.00    +0.000 C 
ATOM      5  C   UNL     1       2.212   5.357  20.298  0.00  0.00    +0.000 A 
ATOM      6  C   UNL     1       2.845   5.741  19.131  0.00  0.00    +0.000 A 
ENDROOT
BRANCH   1  11
ATOM      7  C   UNL     1       7.441   4.810  14.442  0.00  0.00    +0.000 C 
ATOM      8  C   UNL     1       6.459   4.731  15.573  0.00  0.00    +0.000 A 
ATOM      9  C   UNL     1       5.160   4.266  15.364  0.00  0.00    +0.000 A 
ATOM     10  C   UNL     1       4.255   4.210  16.426  0.00  0.00    +0.000 A 
ATOM     11  C   UNL     1       4.621   4.623  17.724  0.00  0.00    +0.000 A 
ATOM     12  C   UNL     1       5.940   5.071  17.953  0.00  0.00    +0.000 A 
ATOM     13  C   UNL     1       6.512   5.457  19.291  0.00  0.00    +0.000 C 
ATOM     14  C   UNL     1       6.831   5.133  16.859  0.00  0.00    +0.000 A 
ENDBRANCH   1  11
BRANCH   6  15
ATOM     15  N   UNL     1       2.645   6.932  18.456  0.00  0.00    +0.000 N 
ATOM     16  C   UNL     1       1.992   8.064  19.056  0.00  0.00    +0.000 C 
ATOM     17  O   UNL     1       1.759   8.083  20.233  0.00  0.00    +0.000 OA
ATOM     18  H   UNL     1       2.947   6.981  17.481  0.00  0.00    +0.000 HD
BRANCH  16  19
ATOM     19  C   UNL     1       1.760   9.271  18.160  0.00  0.00    +0.000 C 
BRANCH  19  20
ATOM     20  C   UNL     1       0.694  10.140  18.696  0.00  0.00    +0.000 A 
ATOM     21  N   UNL     1       0.956  10.935  19.717  0.00  0.00    +0.000 NA
ATOM     22  O   UNL     1      -0.095  11.820  19.801  0.00  0.00    +0.000 OA
ATOM     23  C   UNL     1      -1.057  11.441  18.931  0.00  0.00    +0.000 A 
ATOM     24  C   UNL     1      -2.264  12.080  18.728  0.00  0.00    +0.000 A 
ATOM     25  C   UNL     1      -3.266  11.260  18.230  0.00  0.00    +0.000 A 
ATOM     26  C   UNL     1      -2.919  10.149  17.465  0.00  0.00    +0.000 A 
ATOM     27  C   UNL     1      -1.578   9.744  17.333  0.00  0.00    +0.000 A 
ATOM     28  C   UNL     1      -0.659  10.319  18.232  0.00  0.00    +0.000 A 
ENDBRANCH  19  20
ENDBRANCH  16  19
ENDBRANCH   6  15
TORSDOF 4
ENDMDL
MODEL 3
REMARK VINA RESULT:      -7.7      2.917      7.847
REMARK  Name = 
REMARK  7 active torsions:
REMARK  status: ('A' for Active; 'I' for Inactive)
REMARK    1  A    between atoms: C_1  and  C_2
REMARK    2  A    between atoms: C_5  and  N_6
REMARK    3  A    between atoms: C_8  and  C_9
REMARK    4  A    between atoms: C_11  and  N_12
REMARK    5  A    between atoms: C_13  and  C_15
REMARK    6  A    between atoms: C_15  and  C_16
REMARK    7  A    between atoms: C_25  and  C_26
REMARK                            x       y       z     vdW  Elec       q    Type
REMARK                         _______ _______ _______ _____ _____    ______ ____
ROOT
ATOM      1  N   UNL     1       3.708   4.302  19.072  0.00  0.00    +0.000 N 
ATOM      2  N   UNL     1       3.370   3.121  19.614  0.00  0.00    +0.000 NA
ATOM      3  C   UNL     1       2.711   3.415  20.734  0.00  0.00    +0.000 A 
ATOM      4  C   UNL     1       2.205   2.340  21.632  0.00  0.00    +0.000 C 
ATOM      5  C   UNL     1       2.539   4.807  20.893  0.00  0.00    +0.000 A 
ATOM      6  C   UNL     1       3.168   5.368  19.797  0.00  0.00    +0.000 A 
ENDROOT
BRANCH   1  11
ATOM      7  C   UNL     1       7.213   4.830  14.547  0.00  0.00    +0.000 C 
ATOM      8  C   UNL     1       6.320   4.658  15.738  0.00  0.00    +0.000 A 
ATOM      9  C   UNL     1       5.046   4.103  15.606  0.00  0.00    +0.000 A 
ATOM     10  C   UNL     1       4.222   3.960  16.724  0.00  0.00    +0.000 A 
ATOM     11  C   UNL     1       4.647   4.374  18.005  0.00  0.00    +0.000 A 
ATOM     12  C   UNL     1       5.943   4.913  18.155  0.00  0.00    +0.000 A 
ATOM     13  C   UNL     1       6.576   5.314  19.461  0.00  0.00    +0.000 C 
ATOM     14  C   UNL     1       6.750   5.061  17.006  0.00  0.00    +0.000 A 
ENDBRANCH   1  11
BRANCH   6  15
ATOM     15  N   UNL     1       3.145   6.705  19.447  0.00  0.00    +0.000 N 
ATOM     16  C   UNL     1       2.338   7.212  18.370  0.00  0.00    +0.000 C 
ATOM     17  O   UNL     1       1.509   6.519  17.847  0.00  0.00    +0.000 OA
ATOM     18  H   UNL     1       3.757   7.341  19.963  0.00  0.00    +0.000 HD
BRANCH  16  19
ATOM     19  C   UNL     1       2.489   8.689  18.041  0.00  0.00    +0.000 C 
BRANCH  19  20
ATOM     20  C   UNL     1       1.480   9.502  18.750  0.00  0.00    +0.000 A 
ATOM     21  N   UNL     1       0.819  10.435  18.090  0.00  0.00    +0.000 NA
ATOM     22  O   UNL     1      -0.234  10.808  18.896  0.00  0.00    +0.000 OA
ATOM     23  C   UNL     1      -0.096  10.211  20.100  0.00  0.00    +0.000 A 
ATOM     24  C   UNL     1      -0.955  10.343  21.174  0.00  0.00    +0.000 A 
ATOM     25  C   UNL     1      -0.366  10.107  22.407  0.00  0.00    +0.000 A 
ATOM     26  C   UNL     1       0.733   9.256  22.485  0.00  0.00    +0.000 A 
ATOM     27  C   UNL     1       1.364   8.771  21.324  0.00  0.00    +0.000 A 
ATOM     28  C   UNL     1       1.028   9.411  20.115  0.00  0.00    +0.000 A 
ENDBRANCH  19  20
ENDBRANCH  16  19
ENDBRANCH   6  15
TORSDOF 4
ENDMDL
MODEL 4
REMARK VINA RESULT:      -7.6      2.745      7.955
REMARK  Name = 
REMARK  7 active torsions:
REMARK  status: ('A' for Active; 'I' for Inactive)
REMARK    1  A    between atoms: C_1  and  C_2
REMARK    2  A    between atoms: C_5  and  N_6
REMARK    3  A    between atoms: C_8  and  C_9
REMARK    4  A    between atoms: C_11  and  N_12
REMARK    5  A    between atoms: C_13  and  C_15
REMARK    6  A    between atoms: C_15  and  C_16
REMARK    7  A    between atoms: C_25  and  C_26
REMARK                            x       y       z     vdW  Elec       q    Type
REMARK                         _______ _______ _______ _____ _____    ______ ____
ROOT
ATOM      1  N   UNL     1       3.572   4.497  18.679  0.00  0.00    +0.000 N 
ATOM      2  N   UNL     1       3.474   3.478  19.549  0.00  0.00    +0.000 NA
ATOM      3  C   UNL     1       2.610   3.882  20.479  0.00  0.00    +0.000 A 
ATOM      4  C   UNL     1       2.273   3.015  21.642  0.00  0.00    +0.000 C 
ATOM      5  C   UNL     1       2.068   5.149  20.179  0.00  0.00    +0.000 A 
ATOM      6  C   UNL     1       2.682   5.525  18.998  0.00  0.00    +0.000 A 
ENDROOT
BRANCH   1  11
ATOM      7  C   UNL     1       7.475   4.845  14.474  0.00  0.00    +0.000 C 
ATOM      8  C   UNL     1       6.476   4.720  15.584  0.00  0.00    +0.000 A 
ATOM      9  C   UNL     1       5.203   4.198  15.349  0.00  0.00    +0.000 A 
ATOM     10  C   UNL     1       4.280   4.098  16.392  0.00  0.00    +0.000 A 
ATOM     11  C   UNL     1       4.603   4.523  17.699  0.00  0.00    +0.000 A 
ATOM     12  C   UNL     1       5.896   5.028  17.954  0.00  0.00    +0.000 A 
ATOM     13  C   UNL     1       6.424   5.434  19.305  0.00  0.00    +0.000 C 
ATOM     14  C   UNL     1       6.805   5.133  16.879  0.00  0.00    +0.000 A 
ENDBRANCH   1  11
BRANCH   6  15
ATOM     15  N   UNL     1       2.367   6.639  18.242  0.00  0.00    +0.000 N 
ATOM     16  C   UNL     1       2.026   7.906  18.831  0.00  0.00    +0.000 C 
ATOM     17  O   UNL     1       2.180   8.097  20.006  0.00  0.00    +0.000 OA
ATOM     18  H   UNL     1       2.348   6.533  17.225  0.00  0.00    +0.000 HD
BRANCH  16  19
ATOM     19  C   UNL     1       1.612   9.013  17.874  0.00  0.00    +0.000 C 
BRANCH  19  20
ATOM     20  C   UNL     1       1.027  10.159  18.599  0.00  0.00    +0.000 A 
ATOM     21  N   UNL     1      -0.070   9.984  19.311  0.00  0.00    +0.000 NA
ATOM     22  O   UNL     1      -0.207  11.108  20.096  0.00  0.00    +0.000 OA
ATOM     23  C   UNL     1       0.721  12.017  19.724  0.00  0.00    +0.000 A 
ATOM     24  C   UNL     1       0.897  13.269  20.279  0.00  0.00    +0.000 A 
ATOM     25  C   UNL     1       1.497  14.188  19.431  0.00  0.00    +0.000 A 
ATOM     26  C   UNL     1       2.352  13.734  18.430  0.00  0.00    +0.000 A 
ATOM     27  C   UNL     1       2.484  12.362  18.150  0.00  0.00    +0.000 A 
ATOM     28  C   UNL     1       1.509  11.512  18.710  0.00  0.00    +0.000 A 
ENDBRANCH  19  20
ENDBRANCH  16  19
ENDBRANCH   6  15
TORSDOF 4
ENDMDL
MODEL 5
REMARK VINA RESULT:      -7.5      3.021      8.287
REMARK  Name = 
REMARK  7 active torsions:
REMARK  status: ('A' for Active; 'I' for Inactive)
REMARK    1  A    between atoms: C_1  and  C_2
REMARK    2  A    between atoms: C_5  and  N_6
REMARK    3  A    between atoms: C_8  and  C_9
REMARK    4  A    between atoms: C_11  and  N_12
REMARK    5  A    between atoms: C_13  and  C_15
REMARK    6  A    between atoms: C_15  and  C_16
REMARK    7  A    between atoms: C_25  and  C_26
REMARK                            x       y       z     vdW  Elec       q    Type
REMARK                         _______ _______ _______ _____ _____    ______ ____
ROOT
ATOM      1  N   UNL     1       3.536   4.671  18.740  0.00  0.00    +0.000 N 
ATOM      2  N   UNL     1       3.323   3.630  19.561  0.00  0.00    +0.000 NA
ATOM      3  C   UNL     1       2.519   4.085  20.519  0.00  0.00    +0.000 A 
ATOM      4  C   UNL     1       2.089   3.208  21.643  0.00  0.00    +0.000 C 
ATOM      5  C   UNL     1       2.128   5.421  20.287  0.00  0.00    +0.000 A 
ATOM      6  C   UNL     1       2.775   5.780  19.119  0.00  0.00    +0.000 A 
ENDROOT
BRANCH   1  11
ATOM      7  C   UNL     1       7.412   4.736  14.496  0.00  0.00    +0.000 C 
ATOM      8  C   UNL     1       6.418   4.684  15.617  0.00  0.00    +0.000 A 
ATOM      9  C   UNL     1       5.114   4.235  15.399  0.00  0.00    +0.000 A 
ATOM     10  C   UNL     1       4.197   4.203  16.452  0.00  0.00    +0.000 A 
ATOM     11  C   UNL     1       4.557   4.624  17.751  0.00  0.00    +0.000 A 
ATOM     12  C   UNL     1       5.880   5.055  17.988  0.00  0.00    +0.000 A 
ATOM     13  C   UNL     1       6.444   5.446  19.328  0.00  0.00    +0.000 C 
ATOM     14  C   UNL     1       6.783   5.093  16.903  0.00  0.00    +0.000 A 
ENDBRANCH   1  11
BRANCH   6  15
ATOM     15  N   UNL     1       2.590   6.959  18.421  0.00  0.00    +0.000 N 
ATOM     16  C   UNL     1       1.986   8.124  19.010  0.00  0.00    +0.000 C 
ATOM     17  O   UNL     1       1.785   8.177  20.192  0.00  0.00    +0.000 OA
ATOM     18  H   UNL     1       2.867   6.977  17.437  0.00  0.00    +0.000 HD
BRANCH  16  19
ATOM     19  C   UNL     1       1.763   9.315  18.091  0.00  0.00    +0.000 C 
BRANCH  19  20
ATOM     20  C   UNL     1       0.558  10.075  18.481  0.00  0.00    +0.000 A 
ATOM     21  N   UNL     1      -0.596   9.803  17.902  0.00  0.00    +0.000 NA
ATOM     22  O   UNL     1      -1.565  10.429  18.654  0.00  0.00    +0.000 OA
ATOM     23  C   UNL     1      -0.965  11.206  19.582  0.00  0.00    +0.000 A 
ATOM     24  C   UNL     1      -1.606  11.991  20.521  0.00  0.00    +0.000 A 
ATOM     25  C   UNL     1      -0.854  13.064  20.975  0.00  0.00    +0.000 A 
ATOM     26  C   UNL     1       0.536  12.977  20.960  0.00  0.00    +0.000 A 
ATOM     27  C   UNL     1       1.193  11.901  20.336  0.00  0.00    +0.000 A 
ATOM     28  C   UNL     1       0.408  11.095  19.488  0.00  0.00    +0.000 A 
ENDBRANCH  19  20
ENDBRANCH  16  19
ENDBRANCH   6  15
TORSDOF 4
ENDMDL
MODEL 6
REMARK VINA RESULT:      -7.5      4.041      7.806
REMARK  Name = 
REMARK  7 active torsions:
REMARK  status: ('A' for Active; 'I' for Inactive)
REMARK    1  A    between atoms: C_1  and  C_2
REMARK    2  A    between atoms: C_5  and  N_6
REMARK    3  A    between atoms: C_8  and  C_9
REMARK    4  A    between atoms: C_11  and  N_12
REMARK    5  A    between atoms: C_13  and  C_15
REMARK    6  A    between atoms: C_15  and  C_16
REMARK    7  A    between atoms: C_25  and  C_26
REMARK                            x       y       z     vdW  Elec       q    Type
REMARK                         _______ _______ _______ _____ _____    ______ ____
ROOT
ATOM      1  N   UNL     1      -0.166  11.694  18.743  0.00  0.00    +0.000 N 
ATOM      2  N   UNL     1      -1.312  12.234  18.299  0.00  0.00    +0.000 NA
ATOM      3  C   UNL     1      -1.960  11.247  17.682  0.00  0.00    +0.000 A 
ATOM      4  C   UNL     1      -3.275  11.485  17.024  0.00  0.00    +0.000 C 
ATOM      5  C   UNL     1      -1.274  10.020  17.791  0.00  0.00    +0.000 A 
ATOM      6  C   UNL     1      -0.126  10.318  18.501  0.00  0.00    +0.000 A 
ENDROOT
BRANCH   1  11
ATOM      7  C   UNL     1       4.014  15.295  20.355  0.00  0.00    +0.000 C 
ATOM      8  C   UNL     1       2.944  14.325  19.953  0.00  0.00    +0.000 A 
ATOM      9  C   UNL     1       2.900  13.800  18.661  0.00  0.00    +0.000 A 
ATOM     10  C   UNL     1       1.890  12.905  18.300  0.00  0.00    +0.000 A 
ATOM     11  C   UNL     1       0.893  12.516  19.220  0.00  0.00    +0.000 A 
ATOM     12  C   UNL     1       0.942  13.020  20.537  0.00  0.00    +0.000 A 
ATOM     13  C   UNL     1       0.013  12.633  21.657  0.00  0.00    +0.000 C 
ATOM     14  C   UNL     1       1.964  13.935  20.872  0.00  0.00    +0.000 A 
ENDBRANCH   1  11
BRANCH   6  15
ATOM     15  N   UNL     1       0.796   9.401  18.971  0.00  0.00    +0.000 N 
ATOM     16  C   UNL     1       0.773   8.899  20.319  0.00  0.00    +0.000 C 
ATOM     17  O   UNL     1      -0.162   9.119  21.038  0.00  0.00    +0.000 OA
ATOM     18  H   UNL     1       1.538   9.104  18.334  0.00  0.00    +0.000 HD
BRANCH  16  19
ATOM     19  C   UNL     1       1.908   7.969  20.719  0.00  0.00    +0.000 C 
BRANCH  19  20
ATOM     20  C   UNL     1       2.148   6.940  19.688  0.00  0.00    +0.000 A 
ATOM     21  N   UNL     1       2.745   7.278  18.561  0.00  0.00    +0.000 NA
ATOM     22  O   UNL     1       3.101   6.100  17.942  0.00  0.00    +0.000 OA
ATOM     23  C   UNL     1       2.565   5.066  18.627  0.00  0.00    +0.000 A 
ATOM     24  C   UNL     1       2.700   3.728  18.312  0.00  0.00    +0.000 A 
ATOM     25  C   UNL     1       1.675   2.925  18.791  0.00  0.00    +0.000 A 
ATOM     26  C   UNL     1       0.983   3.313  19.935  0.00  0.00    +0.000 A 
ATOM     27  C   UNL     1       1.181   4.581  20.512  0.00  0.00    +0.000 A 
ATOM     28  C   UNL     1       1.869   5.527  19.726  0.00  0.00    +0.000 A 
ENDBRANCH  19  20
ENDBRANCH  16  19
ENDBRANCH   6  15
TORSDOF 4
ENDMDL
MODEL 7
REMARK VINA RESULT:      -7.5      3.772      8.680
REMARK  Name = 
REMARK  7 active torsions:
REMARK  status: ('A' for Active; 'I' for Inactive)
REMARK    1  A    between atoms: C_1  and  C_2
REMARK    2  A    between atoms: C_5  and  N_6
REMARK    3  A    between atoms: C_8  and  C_9
REMARK    4  A    between atoms: C_11  and  N_12
REMARK    5  A    between atoms: C_13  and  C_15
REMARK    6  A    between atoms: C_15  and  C_16
REMARK    7  A    between atoms: C_25  and  C_26
REMARK                            x       y       z     vdW  Elec       q    Type
REMARK                         _______ _______ _______ _____ _____    ______ ____
ROOT
ATOM      1  N   UNL     1       2.695   5.127  19.181  0.00  0.00    +0.000 N 
ATOM      2  N   UNL     1       2.162   4.074  18.540  0.00  0.00    +0.000 NA
ATOM      3  C   UNL     1       1.224   3.595  19.355  0.00  0.00    +0.000 A 
ATOM      4  C   UNL     1       0.433   2.387  18.989  0.00  0.00    +0.000 C 
ATOM      5  C   UNL     1       1.077   4.388  20.512  0.00  0.00    +0.000 A 
ATOM      6  C   UNL     1       2.020   5.391  20.375  0.00  0.00    +0.000 A 
ENDROOT
BRANCH   1  11
ATOM      7  C   UNL     1       7.678   7.159  17.160  0.00  0.00    +0.000 C 
ATOM      8  C   UNL     1       6.379   6.659  17.715  0.00  0.00    +0.000 A 
ATOM      9  C   UNL     1       6.340   5.557  18.570  0.00  0.00    +0.000 A 
ATOM     10  C   UNL     1       5.120   5.097  19.070  0.00  0.00    +0.000 A 
ATOM     11  C   UNL     1       3.903   5.724  18.724  0.00  0.00    +0.000 A 
ATOM     12  C   UNL     1       3.933   6.856  17.882  0.00  0.00    +0.000 A 
ATOM     13  C   UNL     1       2.739   7.689  17.496  0.00  0.00    +0.000 C 
ATOM     14  C   UNL     1       5.177   7.290  17.377  0.00  0.00    +0.000 A 
ENDBRANCH   1  11
BRANCH   6  15
ATOM     15  N   UNL     1       2.159   6.490  21.203  0.00  0.00    +0.000 N 
ATOM     16  C   UNL     1       1.420   7.708  21.007  0.00  0.00    +0.000 C 
ATOM     17  O   UNL     1       0.513   7.754  20.221  0.00  0.00    +0.000 OA
ATOM     18  H   UNL     1       2.844   6.430  21.959  0.00  0.00    +0.000 HD
BRANCH  16  19
ATOM     19  C   UNL     1       1.749   8.863  21.940  0.00  0.00    +0.000 C 
BRANCH  19  20
ATOM     20  C   UNL     1       0.553   9.681  22.224  0.00  0.00    +0.000 A 
ATOM     21  N   UNL     1       0.030   9.667  23.435  0.00  0.00    +0.000 NA
ATOM     22  O   UNL     1      -0.855  10.721  23.489  0.00  0.00    +0.000 OA
ATOM     23  C   UNL     1      -0.974  11.255  22.253  0.00  0.00    +0.000 A 
ATOM     24  C   UNL     1      -1.772  12.328  21.907  0.00  0.00    +0.000 A 
ATOM     25  C   UNL     1      -2.146  12.352  20.571  0.00  0.00    +0.000 A 
ATOM     26  C   UNL     1      -1.322  11.752  19.623  0.00  0.00    +0.000 A 
ATOM     27  C   UNL     1      -0.214  10.974  20.006  0.00  0.00    +0.000 A 
ATOM     28  C   UNL     1      -0.156  10.592  21.361  0.00  0.00    +0.000 A 
ENDBRANCH  19  20
ENDBRANCH  16  19
ENDBRANCH   6  15
TORSDOF 4
ENDMDL
MODEL 8
REMARK VINA RESULT:      -7.5      2.821      7.981
REMARK  Name = 
REMARK  7 active torsions:
REMARK  status: ('A' for Active; 'I' for Inactive)
REMARK    1  A    between atoms: C_1  and  C_2
REMARK    2  A    between atoms: C_5  and  N_6
REMARK    3  A    between atoms: C_8  and  C_9
REMARK    4  A    between atoms: C_11  and  N_12
REMARK    5  A    between atoms: C_13  and  C_15
REMARK    6  A    between atoms: C_15  and  C_16
REMARK    7  A    between atoms: C_25  and  C_26
REMARK                            x       y       z     vdW  Elec       q    Type
REMARK                         _______ _______ _______ _____ _____    ______ ____
ROOT
ATOM      1  N   UNL     1       3.627   4.372  18.645  0.00  0.00    +0.000 N 
ATOM      2  N   UNL     1       3.580   3.350  19.514  0.00  0.00    +0.000 NA
ATOM      3  C   UNL     1       2.694   3.708  20.443  0.00  0.00    +0.000 A 
ATOM      4  C   UNL     1       2.400   2.825  21.605  0.00  0.00    +0.000 C 
ATOM      5  C   UNL     1       2.087   4.945  20.141  0.00  0.00    +0.000 A 
ATOM      6  C   UNL     1       2.683   5.353  18.962  0.00  0.00    +0.000 A 
ENDROOT
BRANCH   1  11
ATOM      7  C   UNL     1       7.519   4.928  14.451  0.00  0.00    +0.000 C 
ATOM      8  C   UNL     1       6.524   4.749  15.558  0.00  0.00    +0.000 A 
ATOM      9  C   UNL     1       5.274   4.178  15.314  0.00  0.00    +0.000 A 
ATOM     10  C   UNL     1       4.354   4.029  16.355  0.00  0.00    +0.000 A 
ATOM     11  C   UNL     1       4.657   4.451  17.667  0.00  0.00    +0.000 A 
ATOM     12  C   UNL     1       5.928   5.006  17.931  0.00  0.00    +0.000 A 
ATOM     13  C   UNL     1       6.437   5.418  19.287  0.00  0.00    +0.000 C 
ATOM     14  C   UNL     1       6.833   5.161  16.858  0.00  0.00    +0.000 A 
ENDBRANCH   1  11
BRANCH   6  15
ATOM     15  N   UNL     1       2.313   6.448  18.204  0.00  0.00    +0.000 N 
ATOM     16  C   UNL     1       2.032   7.734  18.784  0.00  0.00    +0.000 C 
ATOM     17  O   UNL     1       2.288   7.955  19.936  0.00  0.00    +0.000 OA
ATOM     18  H   UNL     1       2.206   6.314  17.196  0.00  0.00    +0.000 HD
BRANCH  16  19
ATOM     19  C   UNL     1       1.545   8.819  17.836  0.00  0.00    +0.000 C 
BRANCH  19  20
ATOM     20  C   UNL     1       1.513  10.137  18.499  0.00  0.00    +0.000 A 
ATOM     21  N   UNL     1       2.338  11.086  18.098  0.00  0.00    +0.000 NA
ATOM     22  O   UNL     1       1.888  12.258  18.665  0.00  0.00    +0.000 OA
ATOM     23  C   UNL     1       0.894  11.970  19.533  0.00  0.00    +0.000 A 
ATOM     24  C   UNL     1       0.193  12.884  20.296  0.00  0.00    +0.000 A 
ATOM     25  C   UNL     1      -0.361  12.355  21.452  0.00  0.00    +0.000 A 
ATOM     26  C   UNL     1      -0.693  11.003  21.491  0.00  0.00    +0.000 A 
ATOM     27  C   UNL     1      -0.319  10.129  20.454  0.00  0.00    +0.000 A 
ATOM     28  C   UNL     1       0.642  10.613  19.543  0.00  0.00    +0.000 A 
ENDBRANCH  19  20
ENDBRANCH  16  19
ENDBRANCH   6  15
TORSDOF 4
ENDMDL
MODEL 9
REMARK VINA RESULT:      -7.4      1.220      1.533
REMARK  Name = 
REMARK  7 active torsions:
REMARK  status: ('A' for Active; 'I' for Inactive)
REMARK    1  A    between atoms: C_1  and  C_2
REMARK    2  A    between atoms: C_5  and  N_6
REMARK    3  A    between atoms: C_8  and  C_9
REMARK    4  A    between atoms: C_11  and  N_12
REMARK    5  A    between atoms: C_13  and  C_15
REMARK    6  A    between atoms: C_15  and  C_16
REMARK    7  A    between atoms: C_25  and  C_26
REMARK                            x       y       z     vdW  Elec       q    Type
REMARK                         _______ _______ _______ _____ _____    ______ ____
ROOT
ATOM      1  N   UNL     1       2.689   6.549  18.460  0.00  0.00    +0.000 N 
ATOM      2  N   UNL     1       1.753   7.510  18.425  0.00  0.00    +0.000 NA
ATOM      3  C   UNL     1       2.335   8.558  17.845  0.00  0.00    +0.000 A 
ATOM      4  C   UNL     1       1.601   9.841  17.663  0.00  0.00    +0.000 C 
ATOM      5  C   UNL     1       3.647   8.261  17.417  0.00  0.00    +0.000 A 
ATOM      6  C   UNL     1       3.855   6.949  17.801  0.00  0.00    +0.000 A 
ENDROOT
BRANCH   1  11
ATOM      7  C   UNL     1       1.611   2.018  21.830  0.00  0.00    +0.000 C 
ATOM      8  C   UNL     1       1.931   3.186  20.946  0.00  0.00    +0.000 A 
ATOM      9  C   UNL     1       2.220   4.438  21.488  0.00  0.00    +0.000 A 
ATOM     10  C   UNL     1       2.505   5.519  20.651  0.00  0.00    +0.000 A 
ATOM     11  C   UNL     1       2.504   5.377  19.246  0.00  0.00    +0.000 A 
ATOM     12  C   UNL     1       2.239   4.109  18.687  0.00  0.00    +0.000 A 
ATOM     13  C   UNL     1       2.291   3.773  17.220  0.00  0.00    +0.000 C 
ATOM     14  C   UNL     1       1.938   3.037  19.555  0.00  0.00    +0.000 A 
ENDBRANCH   1  11
BRANCH   6  15
ATOM     15  N   UNL     1       4.952   6.175  17.474  0.00  0.00    +0.000 N 
ATOM     16  C   UNL     1       6.272   6.725  17.319  0.00  0.00    +0.000 C 
ATOM     17  O   UNL     1       6.507   7.855  17.648  0.00  0.00    +0.000 OA
ATOM     18  H   UNL     1       4.797   5.178  17.306  0.00  0.00    +0.000 HD
BRANCH  16  19
ATOM     19  C   UNL     1       7.362   5.766  16.865  0.00  0.00    +0.000 C 
BRANCH  19  20
ATOM     20  C   UNL     1       6.842   4.784  15.893  0.00  0.00    +0.000 A 
ATOM     21  N   UNL     1       6.100   3.779  16.320  0.00  0.00    +0.000 NA
ATOM     22  O   UNL     1       5.522   3.221  15.202  0.00  0.00    +0.000 OA
ATOM     23  C   UNL     1       6.054   3.795  14.100  0.00  0.00    +0.000 A 
ATOM     24  C   UNL     1       5.727   3.498  12.792  0.00  0.00    +0.000 A 
ATOM     25  C   UNL     1       6.728   3.787  11.876  0.00  0.00    +0.000 A 
ATOM     26  C   UNL     1       7.642   4.797  12.161  0.00  0.00    +0.000 A 
ATOM     27  C   UNL     1       7.680   5.410  13.427  0.00  0.00    +0.000 A 
ATOM     28  C   UNL     1       6.972   4.762  14.458  0.00  0.00    +0.000 A 
ENDBRANCH  19  20
ENDBRANCH  16  19
ENDBRANCH   6  15
TORSDOF 4
ENDMDL
