MODEL 1
REMARK VINA RESULT:      -9.0      0.000      0.000
REMARK  Name = 
REMARK  6 active torsions:
REMARK  status: ('A' for Active; 'I' for Inactive)
REMARK    1  A    between atoms: C_1  and  C_2
REMARK    2  A    between atoms: C_7  and  N_8
REMARK    3  A    between atoms: C_9  and  C_11
REMARK    4  A    between atoms: C_11  and  N_12
REMARK    5  A    between atoms: C_16  and  C_17
REMARK    6  A    between atoms: C_16  and  C_18
REMARK                            x       y       z     vdW  Elec       q    Type
REMARK                         _______ _______ _______ _____ _____    ______ ____
ROOT
ATOM      1  N   UNL     1       5.676   5.604  17.993  0.00  0.00    +0.000 N 
ATOM      2  C   UNL     1       5.766   5.373  19.325  0.00  0.00    +0.000 C 
ATOM      3  O   UNL     1       6.771   5.461  20.010  0.00  0.00    +0.000 OA
ATOM      4  N   UNL     1       4.536   4.960  19.783  0.00  0.00    +0.000 N 
ATOM      5  C   UNL     1       3.502   5.174  18.787  0.00  0.00    +0.000 C 
ATOM      6  C   UNL     1       2.513   4.020  18.707  0.00  0.00    +0.000 C 
ATOM      7  C   UNL     1       4.433   5.252  17.550  0.00  0.00    +0.000 C 
ATOM      8  O   UNL     1       4.098   5.135  16.379  0.00  0.00    +0.000 OA
ATOM      9  H   UNL     1       4.381   4.842  20.778  0.00  0.00    +0.000 HD
ENDROOT
BRANCH   5  10
ATOM     10  C   UNL     1       2.787   6.515  18.986  0.00  0.00    +0.000 A 
ATOM     11  C   UNL     1       2.717   7.444  17.934  0.00  0.00    +0.000 A 
ATOM     12  C   UNL     1       2.095   8.682  18.101  0.00  0.00    +0.000 A 
ATOM     13  C   UNL     1       1.500   9.021  19.320  0.00  0.00    +0.000 A 
ATOM     14  C   UNL     1       0.854  10.255  19.494  0.00  0.00    +0.000 A 
ATOM     15  C   UNL     1       0.260  10.580  20.712  0.00  0.00    +0.000 A 
ATOM     16  C   UNL     1       0.319   9.686  21.774  0.00  0.00    +0.000 A 
ATOM     17  C   UNL     1       0.960   8.456  21.619  0.00  0.00    +0.000 A 
ATOM     18  C   UNL     1       1.549   8.106  20.391  0.00  0.00    +0.000 A 
ATOM     19  C   UNL     1       2.185   6.862  20.210  0.00  0.00    +0.000 A 
ENDBRANCH   5  10
BRANCH   1  20
ATOM     20  C   UNL     1       6.719   6.145  17.152  0.00  0.00    +0.000 C 
BRANCH  20  22
ATOM     21  N   UNL     1       6.419   5.509  14.821  0.00  0.00    +0.000 N 
ATOM     22  C   UNL     1       7.101   5.242  15.988  0.00  0.00    +0.000 C 
ATOM     23  O   UNL     1       7.818   4.260  16.175  0.00  0.00    +0.000 OA
ATOM     24  H   UNL     1       5.466   5.842  14.947  0.00  0.00    +0.000 HD
BRANCH  21  31
ATOM     25  C   UNL     1       8.594   5.931  12.760  0.00  0.00    +0.000 C 
ATOM     26  C   UNL     1       7.531   4.873  12.709  0.00  0.00    +0.000 A 
ATOM     27  C   UNL     1       7.502   3.997  11.616  0.00  0.00    +0.000 A 
ATOM     28  C   UNL     1       6.501   3.038  11.511  0.00  0.00    +0.000 A 
ATOM     29  C   UNL     1       5.538   2.997  12.502  0.00  0.00    +0.000 A 
ATOM     30  N   UNL     1       5.515   3.834  13.557  0.00  0.00    +0.000 NA
ATOM     31  C   UNL     1       6.530   4.720  13.675  0.00  0.00    +0.000 A 
ENDBRANCH  21  31
ENDBRANCH  20  22
ENDBRANCH   1  20
TORSDOF 4
ENDMDL
MODEL 2
REMARK VINA RESULT:      -8.9      0.538      1.433
REMARK  Name = 
REMARK  6 active torsions:
REMARK  status: ('A' for Active; 'I' for Inactive)
REMARK    1  A    between atoms: C_1  and  C_2
REMARK    2  A    between atoms: C_7  and  N_8
REMARK    3  A    between atoms: C_9  and  C_11
REMARK    4  A    between atoms: C_11  and  N_12
REMARK    5  A    between atoms: C_16  and  C_17
REMARK    6  A    between atoms: C_16  and  C_18
REMARK                            x       y       z     vdW  Elec       q    Type
REMARK                         _______ _______ _______ _____ _____    ______ ____
ROOT
ATOM      1  N   UNL     1       5.586   5.516  18.058  0.00  0.00    +0.000 N 
ATOM      2  C   UNL     1       5.790   5.193  19.359  0.00  0.00    +0.000 C 
ATOM      3  O   UNL     1       6.841   5.278  19.970  0.00  0.00    +0.000 OA
ATOM      4  N   UNL     1       4.618   4.689  19.875  0.00  0.00    +0.000 N 
ATOM      5  C   UNL     1       3.500   4.925  18.979  0.00  0.00    +0.000 C 
ATOM      6  C   UNL     1       2.558   3.734  18.885  0.00  0.00    +0.000 C 
ATOM      7  C   UNL     1       4.327   5.139  17.685  0.00  0.00    +0.000 C 
ATOM      8  O   UNL     1       3.907   5.093  16.537  0.00  0.00    +0.000 OA
ATOM      9  H   UNL     1       4.547   4.490  20.866  0.00  0.00    +0.000 HD
ENDROOT
BRANCH   5  10
ATOM     10  C   UNL     1       2.747   6.212  19.335  0.00  0.00    +0.000 A 
ATOM     11  C   UNL     1       2.069   6.320  20.561  0.00  0.00    +0.000 A 
ATOM     12  C   UNL     1       1.354   7.471  20.894  0.00  0.00    +0.000 A 
ATOM     13  C   UNL     1       1.316   8.563  20.022  0.00  0.00    +0.000 A 
ATOM     14  C   UNL     1       0.617   9.733  20.355  0.00  0.00    +0.000 A 
ATOM     15  C   UNL     1       0.589  10.817  19.479  0.00  0.00    +0.000 A 
ATOM     16  C   UNL     1       1.242  10.738  18.256  0.00  0.00    +0.000 A 
ATOM     17  C   UNL     1       1.940   9.580  17.908  0.00  0.00    +0.000 A 
ATOM     18  C   UNL     1       1.992   8.484  18.787  0.00  0.00    +0.000 A 
ATOM     19  C   UNL     1       2.705   7.315  18.461  0.00  0.00    +0.000 A 
ENDBRANCH   5  10
BRANCH   1  20
ATOM     20  C   UNL     1       6.535   6.167  17.186  0.00  0.00    +0.000 C 
BRANCH  20  22
ATOM     21  N   UNL     1       6.248   5.484  14.867  0.00  0.00    +0.000 N 
ATOM     22  C   UNL     1       6.987   5.305  16.016  0.00  0.00    +0.000 C 
ATOM     23  O   UNL     1       7.816   4.412  16.188  0.00  0.00    +0.000 OA
ATOM     24  H   UNL     1       5.267   5.707  15.017  0.00  0.00    +0.000 HD
BRANCH  21  31
ATOM     25  C   UNL     1       8.493   5.959  12.894  0.00  0.00    +0.000 C 
ATOM     26  C   UNL     1       7.453   4.882  12.796  0.00  0.00    +0.000 A 
ATOM     27  C   UNL     1       7.482   4.012  11.698  0.00  0.00    +0.000 A 
ATOM     28  C   UNL     1       6.505   3.035  11.550  0.00  0.00    +0.000 A 
ATOM     29  C   UNL     1       5.505   2.970  12.502  0.00  0.00    +0.000 A 
ATOM     30  N   UNL     1       5.425   3.800  13.560  0.00  0.00    +0.000 NA
ATOM     31  C   UNL     1       6.418   4.704  13.722  0.00  0.00    +0.000 A 
ENDBRANCH  21  31
ENDBRANCH  20  22
ENDBRANCH   1  20
TORSDOF 4
ENDMDL
MODEL 3
REMARK VINA RESULT:      -8.4      2.728      4.107
REMARK  Name = 
REMARK  6 active torsions:
REMARK  status: ('A' for Active; 'I' for Inactive)
REMARK    1  A    between atoms: C_1  and  C_2
REMARK    2  A    between atoms: C_7  and  N_8
REMARK    3  A    between atoms: C_9  and  C_11
REMARK    4  A    between atoms: C_11  and  N_12
REMARK    5  A    between atoms: C_16  and  C_17
REMARK    6  A    between atoms: C_16  and  C_18
REMARK                            x       y       z     vdW  Elec       q    Type
REMARK                         _______ _______ _______ _____ _____    ______ ____
ROOT
ATOM      1  N   UNL     1       3.938   3.459  17.930  0.00  0.00    +0.000 N 
ATOM      2  C   UNL     1       4.403   3.305  19.194  0.00  0.00    +0.000 C 
ATOM      3  O   UNL     1       5.562   3.110  19.522  0.00  0.00    +0.000 OA
ATOM      4  N   UNL     1       3.336   3.346  20.063  0.00  0.00    +0.000 N 
ATOM      5  C   UNL     1       2.132   3.813  19.399  0.00  0.00    +0.000 C 
ATOM      6  C   UNL     1       0.891   3.039  19.818  0.00  0.00    +0.000 C 
ATOM      7  C   UNL     1       2.574   3.499  17.947  0.00  0.00    +0.000 C 
ATOM      8  O   UNL     1       1.845   3.415  16.967  0.00  0.00    +0.000 OA
ATOM      9  H   UNL     1       3.499   3.354  21.063  0.00  0.00    +0.000 HD
ENDROOT
BRANCH   5  10
ATOM     10  C   UNL     1       1.938   5.324  19.570  0.00  0.00    +0.000 A 
ATOM     11  C   UNL     1       1.500   5.848  20.798  0.00  0.00    +0.000 A 
ATOM     12  C   UNL     1       1.290   7.217  20.968  0.00  0.00    +0.000 A 
ATOM     13  C   UNL     1       1.535   8.110  19.920  0.00  0.00    +0.000 A 
ATOM     14  C   UNL     1       1.347   9.491  20.086  0.00  0.00    +0.000 A 
ATOM     15  C   UNL     1       1.598  10.372  19.036  0.00  0.00    +0.000 A 
ATOM     16  C   UNL     1       2.025   9.885  17.806  0.00  0.00    +0.000 A 
ATOM     17  C   UNL     1       2.214   8.514  17.625  0.00  0.00    +0.000 A 
ATOM     18  C   UNL     1       1.981   7.613  18.679  0.00  0.00    +0.000 A 
ATOM     19  C   UNL     1       2.183   6.228  18.520  0.00  0.00    +0.000 A 
ENDBRANCH   5  10
BRANCH   1  20
ATOM     20  C   UNL     1       4.744   3.573  16.737  0.00  0.00    +0.000 C 
BRANCH  20  22
ATOM     21  N   UNL     1       5.718   5.582  17.708  0.00  0.00    +0.000 N 
ATOM     22  C   UNL     1       5.944   4.496  16.891  0.00  0.00    +0.000 C 
ATOM     23  O   UNL     1       6.938   4.344  16.181  0.00  0.00    +0.000 OA
ATOM     24  H   UNL     1       4.767   5.943  17.688  0.00  0.00    +0.000 HD
BRANCH  21  31
ATOM     25  C   UNL     1       8.012   5.391  19.671  0.00  0.00    +0.000 C 
ATOM     26  C   UNL     1       7.727   6.553  18.766  0.00  0.00    +0.000 A 
ATOM     27  C   UNL     1       8.566   7.675  18.822  0.00  0.00    +0.000 A 
ATOM     28  C   UNL     1       8.301   8.789  18.034  0.00  0.00    +0.000 A 
ATOM     29  C   UNL     1       7.183   8.757  17.222  0.00  0.00    +0.000 A 
ATOM     30  N   UNL     1       6.337   7.711  17.155  0.00  0.00    +0.000 NA
ATOM     31  C   UNL     1       6.644   6.612  17.882  0.00  0.00    +0.000 A 
ENDBRANCH  21  31
ENDBRANCH  20  22
ENDBRANCH   1  20
TORSDOF 4
ENDMDL
MODEL 4
REMARK VINA RESULT:      -8.3      3.930      6.388
REMARK  Name = 
REMARK  6 active torsions:
REMARK  status: ('A' for Active; 'I' for Inactive)
REMARK    1  A    between atoms: C_1  and  C_2
REMARK    2  A    between atoms: C_7  and  N_8
REMARK    3  A    between atoms: C_9  and  C_11
REMARK    4  A    between atoms: C_11  and  N_12
REMARK    5  A    between atoms: C_16  and  C_17
REMARK    6  A    between atoms: C_16  and  C_18
REMARK                            x       y       z     vdW  Elec       q    Type
REMARK                         _______ _______ _______ _____ _____    ______ ____
ROOT
ATOM      1  N   UNL     1       6.708   6.677  17.697  0.00  0.00    +0.000 N 
ATOM      2  C   UNL     1       7.413   5.748  18.387  0.00  0.00    +0.000 C 
ATOM      3  O   UNL     1       8.187   5.960  19.305  0.00  0.00    +0.000 OA
ATOM      4  N   UNL     1       7.158   4.509  17.843  0.00  0.00    +0.000 N 
ATOM      5  C   UNL     1       6.035   4.557  16.925  0.00  0.00    +0.000 C 
ATOM      6  C   UNL     1       6.262   3.722  15.673  0.00  0.00    +0.000 C 
ATOM      7  C   UNL     1       6.074   6.081  16.645  0.00  0.00    +0.000 C 
ATOM      8  O   UNL     1       5.536   6.663  15.712  0.00  0.00    +0.000 OA
ATOM      9  H   UNL     1       7.515   3.676  18.296  0.00  0.00    +0.000 HD
ENDROOT
BRANCH   5  10
ATOM     10  C   UNL     1       4.718   4.187  17.616  0.00  0.00    +0.000 A 
ATOM     11  C   UNL     1       3.498   4.308  16.927  0.00  0.00    +0.000 A 
ATOM     12  C   UNL     1       2.284   4.003  17.545  0.00  0.00    +0.000 A 
ATOM     13  C   UNL     1       2.253   3.544  18.865  0.00  0.00    +0.000 A 
ATOM     14  C   UNL     1       1.040   3.216  19.490  0.00  0.00    +0.000 A 
ATOM     15  C   UNL     1       1.021   2.756  20.805  0.00  0.00    +0.000 A 
ATOM     16  C   UNL     1       2.209   2.634  21.516  0.00  0.00    +0.000 A 
ATOM     17  C   UNL     1       3.424   2.959  20.910  0.00  0.00    +0.000 A 
ATOM     18  C   UNL     1       3.462   3.409  19.578  0.00  0.00    +0.000 A 
ATOM     19  C   UNL     1       4.679   3.725  18.944  0.00  0.00    +0.000 A 
ENDBRANCH   5  10
BRANCH   1  20
ATOM     20  C   UNL     1       6.621   8.084  18.012  0.00  0.00    +0.000 C 
BRANCH  20  22
ATOM     21  N   UNL     1       8.038  10.003  18.502  0.00  0.00    +0.000 N 
ATOM     22  C   UNL     1       7.910   8.852  17.755  0.00  0.00    +0.000 C 
ATOM     23  O   UNL     1       8.645   8.534  16.821  0.00  0.00    +0.000 OA
ATOM     24  H   UNL     1       7.164  10.481  18.707  0.00  0.00    +0.000 HD
BRANCH  21  31
ATOM     25  C   UNL     1       7.674  12.636  17.057  0.00  0.00    +0.000 C 
ATOM     26  C   UNL     1       8.948  12.147  17.682  0.00  0.00    +0.000 A 
ATOM     27  C   UNL     1      10.096  12.947  17.592  0.00  0.00    +0.000 A 
ATOM     28  C   UNL     1      11.304  12.502  18.115  0.00  0.00    +0.000 A 
ATOM     29  C   UNL     1      11.335  11.250  18.700  0.00  0.00    +0.000 A 
ATOM     30  N   UNL     1      10.262  10.439  18.788  0.00  0.00    +0.000 NA
ATOM     31  C   UNL     1       9.082  10.913  18.329  0.00  0.00    +0.000 A 
ENDBRANCH  21  31
ENDBRANCH  20  22
ENDBRANCH   1  20
TORSDOF 4
ENDMDL
MODEL 5
REMARK VINA RESULT:      -8.3      1.386      2.243
REMARK  Name = 
REMARK  6 active torsions:
REMARK  status: ('A' for Active; 'I' for Inactive)
REMARK    1  A    between atoms: C_1  and  C_2
REMARK    2  A    between atoms: C_7  and  N_8
REMARK    3  A    between atoms: C_9  and  C_11
REMARK    4  A    between atoms: C_11  and  N_12
REMARK    5  A    between atoms: C_16  and  C_17
REMARK    6  A    between atoms: C_16  and  C_18
REMARK                            x       y       z     vdW  Elec       q    Type
REMARK                         _______ _______ _______ _____ _____    ______ ____
ROOT
ATOM      1  N   UNL     1       4.078   3.784  18.202  0.00  0.00    +0.000 N 
ATOM      2  C   UNL     1       5.055   4.299  18.988  0.00  0.00    +0.000 C 
ATOM      3  O   UNL     1       6.256   4.243  18.781  0.00  0.00    +0.000 OA
ATOM      4  N   UNL     1       4.474   4.853  20.105  0.00  0.00    +0.000 N 
ATOM      5  C   UNL     1       3.035   4.963  19.953  0.00  0.00    +0.000 C 
ATOM      6  C   UNL     1       2.279   4.598  21.223  0.00  0.00    +0.000 C 
ATOM      7  C   UNL     1       2.874   3.902  18.835  0.00  0.00    +0.000 C 
ATOM      8  O   UNL     1       1.833   3.351  18.498  0.00  0.00    +0.000 OA
ATOM      9  H   UNL     1       5.040   5.381  20.760  0.00  0.00    +0.000 HD
ENDROOT
BRANCH   5  10
ATOM     10  C   UNL     1       2.621   6.341  19.428  0.00  0.00    +0.000 A 
ATOM     11  C   UNL     1       2.963   6.734  18.122  0.00  0.00    +0.000 A 
ATOM     12  C   UNL     1       2.620   7.995  17.632  0.00  0.00    +0.000 A 
ATOM     13  C   UNL     1       1.902   8.895  18.424  0.00  0.00    +0.000 A 
ATOM     14  C   UNL     1       1.534  10.158  17.934  0.00  0.00    +0.000 A 
ATOM     15  C   UNL     1       0.815  11.047  18.731  0.00  0.00    +0.000 A 
ATOM     16  C   UNL     1       0.468  10.691  20.029  0.00  0.00    +0.000 A 
ATOM     17  C   UNL     1       0.829   9.440  20.532  0.00  0.00    +0.000 A 
ATOM     18  C   UNL     1       1.540   8.526  19.735  0.00  0.00    +0.000 A 
ATOM     19  C   UNL     1       1.897   7.253  20.219  0.00  0.00    +0.000 A 
ENDBRANCH   5  10
BRANCH   1  20
ATOM     20  C   UNL     1       4.259   3.202  16.892  0.00  0.00    +0.000 C 
BRANCH  20  22
ATOM     21  N   UNL     1       5.759   3.503  14.998  0.00  0.00    +0.000 N 
ATOM     22  C   UNL     1       4.923   4.137  15.891  0.00  0.00    +0.000 C 
ATOM     23  O   UNL     1       4.835   5.357  16.030  0.00  0.00    +0.000 OA
ATOM     24  H   UNL     1       6.242   2.688  15.367  0.00  0.00    +0.000 HD
BRANCH  21  31
ATOM     25  C   UNL     1       5.619   2.994  12.019  0.00  0.00    +0.000 C 
ATOM     26  C   UNL     1       6.508   3.995  12.697  0.00  0.00    +0.000 A 
ATOM     27  C   UNL     1       7.378   4.766  11.913  0.00  0.00    +0.000 A 
ATOM     28  C   UNL     1       8.251   5.665  12.513  0.00  0.00    +0.000 A 
ATOM     29  C   UNL     1       8.245   5.753  13.892  0.00  0.00    +0.000 A 
ATOM     30  N   UNL     1       7.443   5.015  14.684  0.00  0.00    +0.000 NA
ATOM     31  C   UNL     1       6.557   4.190  14.082  0.00  0.00    +0.000 A 
ENDBRANCH  21  31
ENDBRANCH  20  22
ENDBRANCH   1  20
TORSDOF 4
ENDMDL
MODEL 6
REMARK VINA RESULT:      -8.2      2.682      3.776
REMARK  Name = 
REMARK  6 active torsions:
REMARK  status: ('A' for Active; 'I' for Inactive)
REMARK    1  A    between atoms: C_1  and  C_2
REMARK    2  A    between atoms: C_7  and  N_8
REMARK    3  A    between atoms: C_9  and  C_11
REMARK    4  A    between atoms: C_11  and  N_12
REMARK    5  A    between atoms: C_16  and  C_17
REMARK    6  A    between atoms: C_16  and  C_18
REMARK                            x       y       z     vdW  Elec       q    Type
REMARK                         _______ _______ _______ _____ _____    ______ ____
ROOT
ATOM      1  N   UNL     1       3.951   3.461  18.006  0.00  0.00    +0.000 N 
ATOM      2  C   UNL     1       4.356   3.426  19.299  0.00  0.00    +0.000 C 
ATOM      3  O   UNL     1       5.492   3.229  19.697  0.00  0.00    +0.000 OA
ATOM      4  N   UNL     1       3.256   3.593  20.108  0.00  0.00    +0.000 N 
ATOM      5  C   UNL     1       2.099   4.027  19.346  0.00  0.00    +0.000 C 
ATOM      6  C   UNL     1       0.814   3.342  19.786  0.00  0.00    +0.000 C 
ATOM      7  C   UNL     1       2.589   3.547  17.956  0.00  0.00    +0.000 C 
ATOM      8  O   UNL     1       1.899   3.384  16.958  0.00  0.00    +0.000 OA
ATOM      9  H   UNL     1       3.377   3.701  21.109  0.00  0.00    +0.000 HD
ENDROOT
BRANCH   5  10
ATOM     10  C   UNL     1       1.954   5.552  19.350  0.00  0.00    +0.000 A 
ATOM     11  C   UNL     1       2.257   6.296  18.196  0.00  0.00    +0.000 A 
ATOM     12  C   UNL     1       2.158   7.688  18.184  0.00  0.00    +0.000 A 
ATOM     13  C   UNL     1       1.729   8.380  19.320  0.00  0.00    +0.000 A 
ATOM     14  C   UNL     1       1.606   9.778  19.314  0.00  0.00    +0.000 A 
ATOM     15  C   UNL     1       1.173  10.458  20.450  0.00  0.00    +0.000 A 
ATOM     16  C   UNL     1       0.874   9.753  21.610  0.00  0.00    +0.000 A 
ATOM     17  C   UNL     1       0.993   8.362  21.634  0.00  0.00    +0.000 A 
ATOM     18  C   UNL     1       1.413   7.660  20.490  0.00  0.00    +0.000 A 
ATOM     19  C   UNL     1       1.522   6.256  20.489  0.00  0.00    +0.000 A 
ENDBRANCH   5  10
BRANCH   1  20
ATOM     20  C   UNL     1       4.809   3.422  16.845  0.00  0.00    +0.000 C 
BRANCH  20  22
ATOM     21  N   UNL     1       5.774   5.454  17.778  0.00  0.00    +0.000 N 
ATOM     22  C   UNL     1       5.969   4.406  16.905  0.00  0.00    +0.000 C 
ATOM     23  O   UNL     1       6.888   4.331  16.090  0.00  0.00    +0.000 OA
ATOM     24  H   UNL     1       4.809   5.761  17.871  0.00  0.00    +0.000 HD
BRANCH  21  31
ATOM     25  C   UNL     1       8.125   5.432  19.682  0.00  0.00    +0.000 C 
ATOM     26  C   UNL     1       7.766   6.548  18.746  0.00  0.00    +0.000 A 
ATOM     27  C   UNL     1       8.556   7.706  18.739  0.00  0.00    +0.000 A 
ATOM     28  C   UNL     1       8.222   8.778  17.921  0.00  0.00    +0.000 A 
ATOM     29  C   UNL     1       7.085   8.669  17.142  0.00  0.00    +0.000 A 
ATOM     30  N   UNL     1       6.285   7.586  17.135  0.00  0.00    +0.000 NA
ATOM     31  C   UNL     1       6.658   6.528  17.890  0.00  0.00    +0.000 A 
ENDBRANCH  21  31
ENDBRANCH  20  22
ENDBRANCH   1  20
TORSDOF 4
ENDMDL
MODEL 7
REMARK VINA RESULT:      -8.2      2.800      3.748
REMARK  Name = 
REMARK  6 active torsions:
REMARK  status: ('A' for Active; 'I' for Inactive)
REMARK    1  A    between atoms: C_1  and  C_2
REMARK    2  A    between atoms: C_7  and  N_8
REMARK    3  A    between atoms: C_9  and  C_11
REMARK    4  A    between atoms: C_11  and  N_12
REMARK    5  A    between atoms: C_16  and  C_17
REMARK    6  A    between atoms: C_16  and  C_18
REMARK                            x       y       z     vdW  Elec       q    Type
REMARK                         _______ _______ _______ _____ _____    ______ ____
ROOT
ATOM      1  N   UNL     1       3.650   2.859  18.437  0.00  0.00    +0.000 N 
ATOM      2  C   UNL     1       4.088   2.915  19.718  0.00  0.00    +0.000 C 
ATOM      3  O   UNL     1       5.218   2.677  20.109  0.00  0.00    +0.000 OA
ATOM      4  N   UNL     1       3.025   3.234  20.532  0.00  0.00    +0.000 N 
ATOM      5  C   UNL     1       1.880   3.675  19.758  0.00  0.00    +0.000 C 
ATOM      6  C   UNL     1       0.563   3.127  20.288  0.00  0.00    +0.000 C 
ATOM      7  C   UNL     1       2.296   3.036  18.408  0.00  0.00    +0.000 C 
ATOM      8  O   UNL     1       1.569   2.830  17.446  0.00  0.00    +0.000 OA
ATOM      9  H   UNL     1       3.181   3.425  21.515  0.00  0.00    +0.000 HD
ENDROOT
BRANCH   5  10
ATOM     10  C   UNL     1       1.839   5.201  19.620  0.00  0.00    +0.000 A 
ATOM     11  C   UNL     1       2.240   5.816  18.421  0.00  0.00    +0.000 A 
ATOM     12  C   UNL     1       2.237   7.204  18.282  0.00  0.00    +0.000 A 
ATOM     13  C   UNL     1       1.809   8.023  19.331  0.00  0.00    +0.000 A 
ATOM     14  C   UNL     1       1.782   9.420  19.196  0.00  0.00    +0.000 A 
ATOM     15  C   UNL     1       1.350  10.227  20.247  0.00  0.00    +0.000 A 
ATOM     16  C   UNL     1       0.954   9.650  21.448  0.00  0.00    +0.000 A 
ATOM     17  C   UNL     1       0.977   8.263  21.599  0.00  0.00    +0.000 A 
ATOM     18  C   UNL     1       1.395   7.434  20.543  0.00  0.00    +0.000 A 
ATOM     19  C   UNL     1       1.409   6.032  20.671  0.00  0.00    +0.000 A 
ENDBRANCH   5  10
BRANCH   1  20
ATOM     20  C   UNL     1       4.471   2.652  17.266  0.00  0.00    +0.000 C 
BRANCH  20  22
ATOM     21  N   UNL     1       5.522   4.715  18.019  0.00  0.00    +0.000 N 
ATOM     22  C   UNL     1       5.530   3.725  17.061  0.00  0.00    +0.000 C 
ATOM     23  O   UNL     1       6.182   3.760  16.018  0.00  0.00    +0.000 OA
ATOM     24  H   UNL     1       4.604   4.937  18.398  0.00  0.00    +0.000 HD
BRANCH  21  31
ATOM     25  C   UNL     1       4.988   6.962  16.064  0.00  0.00    +0.000 C 
ATOM     26  C   UNL     1       6.101   6.920  17.069  0.00  0.00    +0.000 A 
ATOM     27  C   UNL     1       7.004   7.991  17.123  0.00  0.00    +0.000 A 
ATOM     28  C   UNL     1       8.076   7.961  18.006  0.00  0.00    +0.000 A 
ATOM     29  C   UNL     1       8.228   6.842  18.804  0.00  0.00    +0.000 A 
ATOM     30  N   UNL     1       7.398   5.781  18.768  0.00  0.00    +0.000 NA
ATOM     31  C   UNL     1       6.326   5.854  17.947  0.00  0.00    +0.000 A 
ENDBRANCH  21  31
ENDBRANCH  20  22
ENDBRANCH   1  20
TORSDOF 4
ENDMDL
MODEL 8
REMARK VINA RESULT:      -8.1      8.131     11.228
REMARK  Name = 
REMARK  6 active torsions:
REMARK  status: ('A' for Active; 'I' for Inactive)
REMARK    1  A    between atoms: C_1  and  C_2
REMARK    2  A    between atoms: C_7  and  N_8
REMARK    3  A    between atoms: C_9  and  C_11
REMARK    4  A    between atoms: C_11  and  N_12
REMARK    5  A    between atoms: C_16  and  C_17
REMARK    6  A    between atoms: C_16  and  C_18
REMARK                            x       y       z     vdW  Elec       q    Type
REMARK                         _______ _______ _______ _____ _____    ______ ____
ROOT
ATOM      1  N   UNL     1      -4.346  13.324  22.121  0.00  0.00    +0.000 N 
ATOM      2  C   UNL     1      -4.447  12.754  23.346  0.00  0.00    +0.000 C 
ATOM      3  O   UNL     1      -5.448  12.256  23.834  0.00  0.00    +0.000 OA
ATOM      4  N   UNL     1      -3.237  12.880  23.990  0.00  0.00    +0.000 N 
ATOM      5  C   UNL     1      -2.194  13.308  23.076  0.00  0.00    +0.000 C 
ATOM      6  C   UNL     1      -1.259  14.339  23.691  0.00  0.00    +0.000 C 
ATOM      7  C   UNL     1      -3.120  13.910  21.989  0.00  0.00    +0.000 C 
ATOM      8  O   UNL     1      -2.790  14.684  21.100  0.00  0.00    +0.000 OA
ATOM      9  H   UNL     1      -3.088  12.419  24.880  0.00  0.00    +0.000 HD
ENDROOT
BRANCH   5  10
ATOM     10  C   UNL     1      -1.419  12.118  22.499  0.00  0.00    +0.000 A 
ATOM     11  C   UNL     1      -1.256  10.944  23.256  0.00  0.00    +0.000 A 
ATOM     12  C   UNL     1      -0.532   9.859  22.761  0.00  0.00    +0.000 A 
ATOM     13  C   UNL     1       0.034   9.903  21.484  0.00  0.00    +0.000 A 
ATOM     14  C   UNL     1       0.748   8.810  20.969  0.00  0.00    +0.000 A 
ATOM     15  C   UNL     1       1.305   8.863  19.693  0.00  0.00    +0.000 A 
ATOM     16  C   UNL     1       1.169  10.013  18.923  0.00  0.00    +0.000 A 
ATOM     17  C   UNL     1       0.464  11.110  19.422  0.00  0.00    +0.000 A 
ATOM     18  C   UNL     1      -0.117  11.065  20.701  0.00  0.00    +0.000 A 
ATOM     19  C   UNL     1      -0.846  12.155  21.214  0.00  0.00    +0.000 A 
ENDBRANCH   5  10
BRANCH   1  20
ATOM     20  C   UNL     1      -5.362  13.317  21.094  0.00  0.00    +0.000 C 
BRANCH  20  22
ATOM     21  N   UNL     1      -4.078  12.432  19.225  0.00  0.00    +0.000 N 
ATOM     22  C   UNL     1      -5.168  12.233  20.043  0.00  0.00    +0.000 C 
ATOM     23  O   UNL     1      -6.038  11.383  19.863  0.00  0.00    +0.000 OA
ATOM     24  H   UNL     1      -3.857  13.407  19.033  0.00  0.00    +0.000 HD
BRANCH  21  31
ATOM     25  C   UNL     1      -5.707  12.531  16.677  0.00  0.00    +0.000 C 
ATOM     26  C   UNL     1      -4.513  11.655  16.921  0.00  0.00    +0.000 A 
ATOM     27  C   UNL     1      -4.100  10.778  15.909  0.00  0.00    +0.000 A 
ATOM     28  C   UNL     1      -3.030   9.916  16.121  0.00  0.00    +0.000 A 
ATOM     29  C   UNL     1      -2.413   9.941  17.357  0.00  0.00    +0.000 A 
ATOM     30  N   UNL     1      -2.792  10.750  18.366  0.00  0.00    +0.000 NA
ATOM     31  C   UNL     1      -3.794  11.625  18.122  0.00  0.00    +0.000 A 
ENDBRANCH  21  31
ENDBRANCH  20  22
ENDBRANCH   1  20
TORSDOF 4
ENDMDL
MODEL 9
REMARK VINA RESULT:      -8.0      0.995      2.006
REMARK  Name = 
REMARK  6 active torsions:
REMARK  status: ('A' for Active; 'I' for Inactive)
REMARK    1  A    between atoms: C_1  and  C_2
REMARK    2  A    between atoms: C_7  and  N_8
REMARK    3  A    between atoms: C_9  and  C_11
REMARK    4  A    between atoms: C_11  and  N_12
REMARK    5  A    between atoms: C_16  and  C_17
REMARK    6  A    between atoms: C_16  and  C_18
REMARK                            x       y       z     vdW  Elec       q    Type
REMARK                         _______ _______ _______ _____ _____    ______ ____
ROOT
ATOM      1  N   UNL     1       5.225   5.385  18.295  0.00  0.00    +0.000 N 
ATOM      2  C   UNL     1       5.007   4.677  19.431  0.00  0.00    +0.000 C 
ATOM      3  O   UNL     1       5.853   4.304  20.226  0.00  0.00    +0.000 OA
ATOM      4  N   UNL     1       3.664   4.390  19.518  0.00  0.00    +0.000 N 
ATOM      5  C   UNL     1       2.896   5.155  18.553  0.00  0.00    +0.000 C 
ATOM      6  C   UNL     1       1.795   4.337  17.894  0.00  0.00    +0.000 C 
ATOM      7  C   UNL     1       4.063   5.479  17.585  0.00  0.00    +0.000 C 
ATOM      8  O   UNL     1       3.962   5.863  16.427  0.00  0.00    +0.000 OA
ATOM      9  H   UNL     1       3.294   3.956  20.356  0.00  0.00    +0.000 HD
ENDROOT
BRANCH   5  10
ATOM     10  C   UNL     1       2.347   6.451  19.160  0.00  0.00    +0.000 A 
ATOM     11  C   UNL     1       1.908   6.477  20.495  0.00  0.00    +0.000 A 
ATOM     12  C   UNL     1       1.380   7.638  21.061  0.00  0.00    +0.000 A 
ATOM     13  C   UNL     1       1.296   8.818  20.317  0.00  0.00    +0.000 A 
ATOM     14  C   UNL     1       0.785   9.997  20.882  0.00  0.00    +0.000 A 
ATOM     15  C   UNL     1       0.710  11.169  20.131  0.00  0.00    +0.000 A 
ATOM     16  C   UNL     1       1.129  11.174  18.806  0.00  0.00    +0.000 A 
ATOM     17  C   UNL     1       1.637  10.009  18.229  0.00  0.00    +0.000 A 
ATOM     18  C   UNL     1       1.734   8.823  18.977  0.00  0.00    +0.000 A 
ATOM     19  C   UNL     1       2.260   7.642  18.417  0.00  0.00    +0.000 A 
ENDBRANCH   5  10
BRANCH   1  20
ATOM     20  C   UNL     1       6.483   5.965  17.884  0.00  0.00    +0.000 C 
BRANCH  20  22
ATOM     21  N   UNL     1       6.483   5.710  15.463  0.00  0.00    +0.000 N 
ATOM     22  C   UNL     1       7.080   5.321  16.642  0.00  0.00    +0.000 C 
ATOM     23  O   UNL     1       7.892   4.402  16.749  0.00  0.00    +0.000 OA
ATOM     24  H   UNL     1       5.488   5.913  15.532  0.00  0.00    +0.000 HD
BRANCH  21  31
ATOM     25  C   UNL     1       5.015   3.308  14.354  0.00  0.00    +0.000 C 
ATOM     26  C   UNL     1       6.130   4.046  13.672  0.00  0.00    +0.000 A 
ATOM     27  C   UNL     1       6.568   3.600  12.418  0.00  0.00    +0.000 A 
ATOM     28  C   UNL     1       7.631   4.230  11.781  0.00  0.00    +0.000 A 
ATOM     29  C   UNL     1       8.244   5.283  12.433  0.00  0.00    +0.000 A 
ATOM     30  N   UNL     1       7.871   5.729  13.649  0.00  0.00    +0.000 NA
ATOM     31  C   UNL     1       6.796   5.145  14.225  0.00  0.00    +0.000 A 
ENDBRANCH  21  31
ENDBRANCH  20  22
ENDBRANCH   1  20
TORSDOF 4
ENDMDL
