MODEL 1
REMARK VINA RESULT:      -8.7      0.000      0.000
REMARK  Name = 
REMARK  3 active torsions:
REMARK  status: ('A' for Active; 'I' for Inactive)
REMARK    1  A    between atoms: C_1  and  C_2
REMARK    2  A    between atoms: C_2  and  C_3
REMARK    3  A    between atoms: C_6  and  C_7
REMARK                            x       y       z     vdW  Elec       q    Type
REMARK                         _______ _______ _______ _____ _____    ______ ____
ROOT
ATOM      1  C   UNL     1       2.835   6.951  18.584  0.00  0.00    +0.000 A 
ATOM      2  C   UNL     1       2.356   6.790  19.898  0.00  0.00    +0.000 A 
ATOM      3  C   UNL     1       1.638   7.809  20.536  0.00  0.00    +0.000 A 
ATOM      4  C   UNL     1       1.369   9.002  19.861  0.00  0.00    +0.000 A 
ATOM      5  C   UNL     1       1.880   9.198  18.577  0.00  0.00    +0.000 A 
ATOM      6  C   UNL     1       2.566   8.170  17.932  0.00  0.00    +0.000 A 
ENDROOT
BRANCH   4   7
ATOM      7  C   UNL     1       0.543  10.049  20.518  0.00  0.00    +0.000 C 
ATOM      8  O   UNL     1       0.843  10.386  21.661  0.00  0.00    +0.000 OA
ATOM      9  N   UNL     1      -0.564  10.587  19.819  0.00  0.00    +0.000 N 
ATOM     10  C   UNL     1      -1.379  11.521  20.591  0.00  0.00    +0.000 C 
ATOM     11  C   UNL     1      -2.469  12.278  19.817  0.00  0.00    +0.000 C 
ATOM     12  C   UNL     1      -2.969  11.609  18.566  0.00  0.00    +0.000 A 
ATOM     13  C   UNL     1      -4.035  12.176  17.842  0.00  0.00    +0.000 A 
ATOM     14  C   UNL     1      -4.435  11.623  16.620  0.00  0.00    +0.000 A 
ATOM     15  C   UNL     1      -3.766  10.521  16.116  0.00  0.00    +0.000 A 
ATOM     16  F   UNL     1      -4.132  10.012  14.930  0.00  0.00    +0.000 F 
ATOM     17  C   UNL     1      -2.729   9.943  16.833  0.00  0.00    +0.000 A 
ATOM     18  F   UNL     1      -2.097   8.870  16.331  0.00  0.00    +0.000 F 
ATOM     19  C   UNL     1      -2.330  10.468  18.067  0.00  0.00    +0.000 A 
ATOM     20  C   UNL     1      -1.282   9.747  18.859  0.00  0.00    +0.000 C 
ENDBRANCH   4   7
BRANCH   1  22
ATOM     21  C   UNL     1       2.721   4.695  17.436  0.00  0.00    +0.000 C 
ATOM     22  C   UNL     1       3.621   5.843  17.877  0.00  0.00    +0.000 C 
ATOM     23  N   UNL     1       4.392   6.377  16.768  0.00  0.00    +0.000 N 
ATOM     24  C   UNL     1       5.718   6.536  17.086  0.00  0.00    +0.000 C 
ATOM     25  O   UNL     1       6.531   7.125  16.399  0.00  0.00    +0.000 OA
ATOM     26  N   UNL     1       5.956   5.917  18.262  0.00  0.00    +0.000 N 
ATOM     27  C   UNL     1       4.816   5.341  18.730  0.00  0.00    +0.000 C 
ATOM     28  O   UNL     1       4.764   4.596  19.699  0.00  0.00    +0.000 OA
ATOM     29  H   UNL     1       4.015   6.839  15.954  0.00  0.00    +0.000 HD
ATOM     30  H   UNL     1       6.870   5.807  18.666  0.00  0.00    +0.000 HD
ENDBRANCH   1  22
TORSDOF 2
ENDMDL
MODEL 2
REMARK VINA RESULT:      -8.4      3.762      4.779
REMARK  Name = 
REMARK  3 active torsions:
REMARK  status: ('A' for Active; 'I' for Inactive)
REMARK    1  A    between atoms: C_1  and  C_2
REMARK    2  A    between atoms: C_2  and  C_3
REMARK    3  A    between atoms: C_6  and  C_7
REMARK                            x       y       z     vdW  Elec       q    Type
REMARK                         _______ _______ _______ _____ _____    ______ ____
ROOT
ATOM      1  C   UNL     1       2.055   4.333  19.225  0.00  0.00    +0.000 A 
ATOM      2  C   UNL     1       1.730   4.734  17.916  0.00  0.00    +0.000 A 
ATOM      3  C   UNL     1       1.769   6.084  17.543  0.00  0.00    +0.000 A 
ATOM      4  C   UNL     1       2.155   7.054  18.471  0.00  0.00    +0.000 A 
ATOM      5  C   UNL     1       2.433   6.678  19.786  0.00  0.00    +0.000 A 
ATOM      6  C   UNL     1       2.425   5.331  20.146  0.00  0.00    +0.000 A 
ENDROOT
BRANCH   4   7
ATOM      7  C   UNL     1       2.267   8.475  18.047  0.00  0.00    +0.000 C 
ATOM      8  O   UNL     1       3.016   8.737  17.109  0.00  0.00    +0.000 OA
ATOM      9  N   UNL     1       1.539   9.461  18.755  0.00  0.00    +0.000 N 
ATOM     10  C   UNL     1       1.806  10.834  18.336  0.00  0.00    +0.000 C 
ATOM     11  C   UNL     1       0.898  11.919  18.936  0.00  0.00    +0.000 C 
ATOM     12  C   UNL     1       0.257  11.583  20.255  0.00  0.00    +0.000 A 
ATOM     13  C   UNL     1      -0.512  12.549  20.931  0.00  0.00    +0.000 A 
ATOM     14  C   UNL     1      -1.201  12.213  22.102  0.00  0.00    +0.000 A 
ATOM     15  C   UNL     1      -1.136  10.919  22.587  0.00  0.00    +0.000 A 
ATOM     16  F   UNL     1      -1.822  10.593  23.692  0.00  0.00    +0.000 F 
ATOM     17  C   UNL     1      -0.362   9.966  21.940  0.00  0.00    +0.000 A 
ATOM     18  F   UNL     1      -0.305   8.718  22.430  0.00  0.00    +0.000 F 
ATOM     19  C   UNL     1       0.352  10.289  20.780  0.00  0.00    +0.000 A 
ATOM     20  C   UNL     1       1.262   9.262  20.178  0.00  0.00    +0.000 C 
ENDBRANCH   4   7
BRANCH   1  22
ATOM     21  C   UNL     1       0.832   2.122  19.030  0.00  0.00    +0.000 C 
ATOM     22  C   UNL     1       2.016   2.859  19.644  0.00  0.00    +0.000 C 
ATOM     23  N   UNL     1       3.274   2.199  19.344  0.00  0.00    +0.000 N 
ATOM     24  C   UNL     1       4.066   2.059  20.457  0.00  0.00    +0.000 C 
ATOM     25  O   UNL     1       5.229   1.702  20.441  0.00  0.00    +0.000 OA
ATOM     26  N   UNL     1       3.331   2.360  21.548  0.00  0.00    +0.000 N 
ATOM     27  C   UNL     1       2.062   2.690  21.185  0.00  0.00    +0.000 C 
ATOM     28  O   UNL     1       1.142   2.870  21.971  0.00  0.00    +0.000 OA
ATOM     29  H   UNL     1       3.678   2.086  18.426  0.00  0.00    +0.000 HD
ATOM     30  H   UNL     1       3.653   2.244  22.493  0.00  0.00    +0.000 HD
ENDBRANCH   1  22
TORSDOF 2
ENDMDL
MODEL 3
REMARK VINA RESULT:      -8.3      3.335      8.296
REMARK  Name = 
REMARK  3 active torsions:
REMARK  status: ('A' for Active; 'I' for Inactive)
REMARK    1  A    between atoms: C_1  and  C_2
REMARK    2  A    between atoms: C_2  and  C_3
REMARK    3  A    between atoms: C_6  and  C_7
REMARK                            x       y       z     vdW  Elec       q    Type
REMARK                         _______ _______ _______ _____ _____    ______ ____
ROOT
ATOM      1  C   UNL     1       1.301  10.044  19.214  0.00  0.00    +0.000 A 
ATOM      2  C   UNL     1       1.847   9.261  18.180  0.00  0.00    +0.000 A 
ATOM      3  C   UNL     1       2.168   7.913  18.388  0.00  0.00    +0.000 A 
ATOM      4  C   UNL     1       1.930   7.321  19.631  0.00  0.00    +0.000 A 
ATOM      5  C   UNL     1       1.436   8.097  20.680  0.00  0.00    +0.000 A 
ATOM      6  C   UNL     1       1.086   9.429  20.462  0.00  0.00    +0.000 A 
ENDROOT
BRANCH   4   7
ATOM      7  C   UNL     1       2.204   5.872  19.820  0.00  0.00    +0.000 C 
ATOM      8  O   UNL     1       1.760   5.330  20.830  0.00  0.00    +0.000 OA
ATOM      9  N   UNL     1       2.985   5.190  18.857  0.00  0.00    +0.000 N 
ATOM     10  C   UNL     1       3.293   3.802  19.192  0.00  0.00    +0.000 C 
ATOM     11  C   UNL     1       3.966   2.967  18.092  0.00  0.00    +0.000 C 
ATOM     12  C   UNL     1       4.737   3.743  17.058  0.00  0.00    +0.000 A 
ATOM     13  C   UNL     1       5.468   3.062  16.067  0.00  0.00    +0.000 A 
ATOM     14  C   UNL     1       6.098   3.771  15.038  0.00  0.00    +0.000 A 
ATOM     15  C   UNL     1       5.986   5.149  14.989  0.00  0.00    +0.000 A 
ATOM     16  F   UNL     1       6.566   5.824  13.985  0.00  0.00    +0.000 F 
ATOM     17  C   UNL     1       5.286   5.831  15.974  0.00  0.00    +0.000 A 
ATOM     18  F   UNL     1       5.196   7.169  15.914  0.00  0.00    +0.000 F 
ATOM     19  C   UNL     1       4.668   5.140  17.023  0.00  0.00    +0.000 A 
ATOM     20  C   UNL     1       4.019   5.922  18.125  0.00  0.00    +0.000 C 
ENDBRANCH   4   7
BRANCH   1  22
ATOM     21  C   UNL     1       2.106  12.306  18.403  0.00  0.00    +0.000 C 
ATOM     22  C   UNL     1       0.945  11.519  18.998  0.00  0.00    +0.000 C 
ATOM     23  N   UNL     1      -0.260  11.652  18.199  0.00  0.00    +0.000 N 
ATOM     24  C   UNL     1      -1.363  11.933  18.966  0.00  0.00    +0.000 C 
ATOM     25  O   UNL     1      -2.511  11.917  18.562  0.00  0.00    +0.000 OA
ATOM     26  N   UNL     1      -0.953  12.243  20.213  0.00  0.00    +0.000 N 
ATOM     27  C   UNL     1       0.404  12.183  20.292  0.00  0.00    +0.000 C 
ATOM     28  O   UNL     1       1.059  12.550  21.257  0.00  0.00    +0.000 OA
ATOM     29  H   UNL     1      -0.380  11.326  17.251  0.00  0.00    +0.000 HD
ATOM     30  H   UNL     1      -1.562  12.578  20.940  0.00  0.00    +0.000 HD
ENDBRANCH   1  22
TORSDOF 2
ENDMDL
MODEL 4
REMARK VINA RESULT:      -8.2      1.074      1.668
REMARK  Name = 
REMARK  3 active torsions:
REMARK  status: ('A' for Active; 'I' for Inactive)
REMARK    1  A    between atoms: C_1  and  C_2
REMARK    2  A    between atoms: C_2  and  C_3
REMARK    3  A    between atoms: C_6  and  C_7
REMARK                            x       y       z     vdW  Elec       q    Type
REMARK                         _______ _______ _______ _____ _____    ______ ____
ROOT
ATOM      1  C   UNL     1       3.318   7.242  18.182  0.00  0.00    +0.000 A 
ATOM      2  C   UNL     1       2.976   8.480  17.604  0.00  0.00    +0.000 A 
ATOM      3  C   UNL     1       2.086   9.353  18.243  0.00  0.00    +0.000 A 
ATOM      4  C   UNL     1       1.538   9.011  19.481  0.00  0.00    +0.000 A 
ATOM      5  C   UNL     1       1.828   7.767  20.043  0.00  0.00    +0.000 A 
ATOM      6  C   UNL     1       2.739   6.914  19.423  0.00  0.00    +0.000 A 
ENDROOT
BRANCH   4   7
ATOM      7  C   UNL     1       0.653   9.976  20.186  0.00  0.00    +0.000 C 
ATOM      8  O   UNL     1       0.938  10.278  21.343  0.00  0.00    +0.000 OA
ATOM      9  N   UNL     1      -0.488  10.477  19.516  0.00  0.00    +0.000 N 
ATOM     10  C   UNL     1      -1.353  11.325  20.332  0.00  0.00    +0.000 C 
ATOM     11  C   UNL     1      -2.491  12.048  19.595  0.00  0.00    +0.000 C 
ATOM     12  C   UNL     1      -2.956  11.408  18.316  0.00  0.00    +0.000 A 
ATOM     13  C   UNL     1      -4.058  11.941  17.621  0.00  0.00    +0.000 A 
ATOM     14  C   UNL     1      -4.430  11.421  16.376  0.00  0.00    +0.000 A 
ATOM     15  C   UNL     1      -3.699  10.385  15.821  0.00  0.00    +0.000 A 
ATOM     16  F   UNL     1      -4.040   9.909  14.615  0.00  0.00    +0.000 F 
ATOM     17  C   UNL     1      -2.625   9.838  16.509  0.00  0.00    +0.000 A 
ATOM     18  F   UNL     1      -1.933   8.829  15.957  0.00  0.00    +0.000 F 
ATOM     19  C   UNL     1      -2.252  10.331  17.764  0.00  0.00    +0.000 A 
ATOM     20  C   UNL     1      -1.158   9.639  18.521  0.00  0.00    +0.000 C 
ENDBRANCH   4   7
BRANCH   1  22
ATOM     21  C   UNL     1       4.466   6.604  16.015  0.00  0.00    +0.000 C 
ATOM     22  C   UNL     1       4.291   6.280  17.494  0.00  0.00    +0.000 C 
ATOM     23  N   UNL     1       5.566   6.241  18.189  0.00  0.00    +0.000 N 
ATOM     24  C   UNL     1       5.689   5.130  18.986  0.00  0.00    +0.000 C 
ATOM     25  O   UNL     1       6.577   4.954  19.799  0.00  0.00    +0.000 OA
ATOM     26  N   UNL     1       4.683   4.278  18.695  0.00  0.00    +0.000 N 
ATOM     27  C   UNL     1       3.896   4.796  17.714  0.00  0.00    +0.000 C 
ATOM     28  O   UNL     1       2.997   4.185  17.153  0.00  0.00    +0.000 OA
ATOM     29  H   UNL     1       6.192   7.022  18.320  0.00  0.00    +0.000 HD
ATOM     30  H   UNL     1       4.603   3.351  19.075  0.00  0.00    +0.000 HD
ENDBRANCH   1  22
TORSDOF 2
ENDMDL
MODEL 5
REMARK VINA RESULT:      -8.2      3.192      3.647
REMARK  Name = 
REMARK  3 active torsions:
REMARK  status: ('A' for Active; 'I' for Inactive)
REMARK    1  A    between atoms: C_1  and  C_2
REMARK    2  A    between atoms: C_2  and  C_3
REMARK    3  A    between atoms: C_6  and  C_7
REMARK                            x       y       z     vdW  Elec       q    Type
REMARK                         _______ _______ _______ _____ _____    ______ ____
ROOT
ATOM      1  C   UNL     1       3.142   6.247  18.647  0.00  0.00    +0.000 A 
ATOM      2  C   UNL     1       2.683   5.892  19.929  0.00  0.00    +0.000 A 
ATOM      3  C   UNL     1       1.874   6.760  20.674  0.00  0.00    +0.000 A 
ATOM      4  C   UNL     1       1.494   7.993  20.138  0.00  0.00    +0.000 A 
ATOM      5  C   UNL     1       1.982   8.381  18.890  0.00  0.00    +0.000 A 
ATOM      6  C   UNL     1       2.759   7.503  18.137  0.00  0.00    +0.000 A 
ENDROOT
BRANCH   4   7
ATOM      7  C   UNL     1       0.575   8.876  20.904  0.00  0.00    +0.000 C 
ATOM      8  O   UNL     1      -0.258   8.344  21.633  0.00  0.00    +0.000 OA
ATOM      9  N   UNL     1       0.675  10.278  20.738  0.00  0.00    +0.000 N 
ATOM     10  C   UNL     1      -0.346  11.050  21.442  0.00  0.00    +0.000 C 
ATOM     11  C   UNL     1      -0.161  12.575  21.453  0.00  0.00    +0.000 C 
ATOM     12  C   UNL     1       0.652  13.146  20.323  0.00  0.00    +0.000 A 
ATOM     13  C   UNL     1       0.795  14.540  20.192  0.00  0.00    +0.000 A 
ATOM     14  C   UNL     1       1.637  15.077  19.211  0.00  0.00    +0.000 A 
ATOM     15  C   UNL     1       2.344  14.229  18.377  0.00  0.00    +0.000 A 
ATOM     16  F   UNL     1       3.173  14.746  17.458  0.00  0.00    +0.000 F 
ATOM     17  C   UNL     1       2.192  12.854  18.484  0.00  0.00    +0.000 A 
ATOM     18  F   UNL     1       2.880  12.047  17.661  0.00  0.00    +0.000 F 
ATOM     19  C   UNL     1       1.338  12.299  19.444  0.00  0.00    +0.000 A 
ATOM     20  C   UNL     1       1.118  10.817  19.452  0.00  0.00    +0.000 C 
ENDBRANCH   4   7
BRANCH   1  22
ATOM     21  C   UNL     1       3.244   4.116  17.281  0.00  0.00    +0.000 C 
ATOM     22  C   UNL     1       4.026   5.305  17.824  0.00  0.00    +0.000 C 
ATOM     23  N   UNL     1       4.711   6.026  16.765  0.00  0.00    +0.000 N 
ATOM     24  C   UNL     1       6.019   6.296  17.082  0.00  0.00    +0.000 C 
ATOM     25  O   UNL     1       6.749   7.035  16.448  0.00  0.00    +0.000 OA
ATOM     26  N   UNL     1       6.348   5.594  18.187  0.00  0.00    +0.000 N 
ATOM     27  C   UNL     1       5.286   4.855  18.609  0.00  0.00    +0.000 C 
ATOM     28  O   UNL     1       5.336   4.017  19.499  0.00  0.00    +0.000 OA
ATOM     29  H   UNL     1       4.268   6.522  16.005  0.00  0.00    +0.000 HD
ATOM     30  H   UNL     1       7.277   5.546  18.568  0.00  0.00    +0.000 HD
ENDBRANCH   1  22
TORSDOF 2
ENDMDL
MODEL 6
REMARK VINA RESULT:      -8.2      3.693      4.664
REMARK  Name = 
REMARK  3 active torsions:
REMARK  status: ('A' for Active; 'I' for Inactive)
REMARK    1  A    between atoms: C_1  and  C_2
REMARK    2  A    between atoms: C_2  and  C_3
REMARK    3  A    between atoms: C_6  and  C_7
REMARK                            x       y       z     vdW  Elec       q    Type
REMARK                         _______ _______ _______ _____ _____    ______ ____
ROOT
ATOM      1  C   UNL     1       2.050   5.097  19.816  0.00  0.00    +0.000 A 
ATOM      2  C   UNL     1       1.770   6.180  20.670  0.00  0.00    +0.000 A 
ATOM      3  C   UNL     1       1.810   7.499  20.202  0.00  0.00    +0.000 A 
ATOM      4  C   UNL     1       2.114   7.757  18.863  0.00  0.00    +0.000 A 
ATOM      5  C   UNL     1       2.443   6.699  18.016  0.00  0.00    +0.000 A 
ATOM      6  C   UNL     1       2.370   5.385  18.475  0.00  0.00    +0.000 A 
ENDROOT
BRANCH   4   7
ATOM      7  C   UNL     1       2.082   9.155  18.357  0.00  0.00    +0.000 C 
ATOM      8  O   UNL     1       2.816   9.441  17.414  0.00  0.00    +0.000 OA
ATOM      9  N   UNL     1       1.240  10.096  18.996  0.00  0.00    +0.000 N 
ATOM     10  C   UNL     1       1.368  11.464  18.500  0.00  0.00    +0.000 C 
ATOM     11  C   UNL     1       0.339  12.478  19.023  0.00  0.00    +0.000 C 
ATOM     12  C   UNL     1      -0.287  12.152  20.352  0.00  0.00    +0.000 A 
ATOM     13  C   UNL     1      -1.167  13.067  20.960  0.00  0.00    +0.000 A 
ATOM     14  C   UNL     1      -1.838  12.728  22.140  0.00  0.00    +0.000 A 
ATOM     15  C   UNL     1      -1.644  11.478  22.703  0.00  0.00    +0.000 A 
ATOM     16  F   UNL     1      -2.311  11.145  23.817  0.00  0.00    +0.000 F 
ATOM     17  C   UNL     1      -0.762  10.578  22.123  0.00  0.00    +0.000 A 
ATOM     18  F   UNL     1      -0.581   9.374  22.687  0.00  0.00    +0.000 F 
ATOM     19  C   UNL     1      -0.065  10.908  20.954  0.00  0.00    +0.000 A 
ATOM     20  C   UNL     1       0.960   9.952  20.425  0.00  0.00    +0.000 C 
ENDBRANCH   4   7
BRANCH   1  22
ATOM     21  C   UNL     1       2.229   3.559  21.821  0.00  0.00    +0.000 C 
ATOM     22  C   UNL     1       2.008   3.650  20.316  0.00  0.00    +0.000 C 
ATOM     23  N   UNL     1       0.776   2.996  19.914  0.00  0.00    +0.000 N 
ATOM     24  C   UNL     1       0.955   2.172  18.830  0.00  0.00    +0.000 C 
ATOM     25  O   UNL     1       0.055   1.653  18.197  0.00  0.00    +0.000 OA
ATOM     26  N   UNL     1       2.279   2.029  18.613  0.00  0.00    +0.000 N 
ATOM     27  C   UNL     1       2.987   2.735  19.535  0.00  0.00    +0.000 C 
ATOM     28  O   UNL     1       4.202   2.676  19.669  0.00  0.00    +0.000 OA
ATOM     29  H   UNL     1      -0.157   3.276  20.180  0.00  0.00    +0.000 HD
ATOM     30  H   UNL     1       2.674   1.400  17.935  0.00  0.00    +0.000 HD
ENDBRANCH   1  22
TORSDOF 2
ENDMDL
MODEL 7
REMARK VINA RESULT:      -8.0      3.478      4.154
REMARK  Name = 
REMARK  3 active torsions:
REMARK  status: ('A' for Active; 'I' for Inactive)
REMARK    1  A    between atoms: C_1  and  C_2
REMARK    2  A    between atoms: C_2  and  C_3
REMARK    3  A    between atoms: C_6  and  C_7
REMARK                            x       y       z     vdW  Elec       q    Type
REMARK                         _______ _______ _______ _____ _____    ______ ____
ROOT
ATOM      1  C   UNL     1       2.932   6.076  18.882  0.00  0.00    +0.000 A 
ATOM      2  C   UNL     1       2.377   5.739  20.131  0.00  0.00    +0.000 A 
ATOM      3  C   UNL     1       1.598   6.657  20.847  0.00  0.00    +0.000 A 
ATOM      4  C   UNL     1       1.343   7.923  20.314  0.00  0.00    +0.000 A 
ATOM      5  C   UNL     1       1.926   8.290  19.100  0.00  0.00    +0.000 A 
ATOM      6  C   UNL     1       2.675   7.364  18.374  0.00  0.00    +0.000 A 
ENDROOT
BRANCH   4   7
ATOM      7  C   UNL     1       0.454   8.864  21.045  0.00  0.00    +0.000 C 
ATOM      8  O   UNL     1      -0.408   8.387  21.779  0.00  0.00    +0.000 OA
ATOM      9  N   UNL     1       0.613  10.256  20.842  0.00  0.00    +0.000 N 
ATOM     10  C   UNL     1      -0.381  11.088  21.513  0.00  0.00    +0.000 C 
ATOM     11  C   UNL     1      -0.133  12.604  21.485  0.00  0.00    +0.000 C 
ATOM     12  C   UNL     1       0.715  13.109  20.350  0.00  0.00    +0.000 A 
ATOM     13  C   UNL     1       0.918  14.492  20.183  0.00  0.00    +0.000 A 
ATOM     14  C   UNL     1       1.791  14.967  19.198  0.00  0.00    +0.000 A 
ATOM     15  C   UNL     1       2.471  14.068  18.395  0.00  0.00    +0.000 A 
ATOM     16  F   UNL     1       3.330  14.525  17.473  0.00  0.00    +0.000 F 
ATOM     17  C   UNL     1       2.260  12.704  18.538  0.00  0.00    +0.000 A 
ATOM     18  F   UNL     1       2.923  11.847  17.744  0.00  0.00    +0.000 F 
ATOM     19  C   UNL     1       1.374  12.211  19.502  0.00  0.00    +0.000 A 
ATOM     20  C   UNL     1       1.092  10.740  19.547  0.00  0.00    +0.000 C 
ENDBRANCH   4   7
BRANCH   1  22
ATOM     21  C   UNL     1       4.426   5.722  16.866  0.00  0.00    +0.000 C 
ATOM     22  C   UNL     1       3.785   5.079  18.090  0.00  0.00    +0.000 C 
ATOM     23  N   UNL     1       4.775   4.447  18.945  0.00  0.00    +0.000 N 
ATOM     24  C   UNL     1       4.400   3.182  19.324  0.00  0.00    +0.000 C 
ATOM     25  O   UNL     1       4.964   2.516  20.172  0.00  0.00    +0.000 OA
ATOM     26  N   UNL     1       3.332   2.809  18.588  0.00  0.00    +0.000 N 
ATOM     27  C   UNL     1       2.991   3.799  17.718  0.00  0.00    +0.000 C 
ATOM     28  O   UNL     1       2.155   3.686  16.833  0.00  0.00    +0.000 OA
ATOM     29  H   UNL     1       5.515   4.920  19.442  0.00  0.00    +0.000 HD
ATOM     30  H   UNL     1       2.927   1.890  18.608  0.00  0.00    +0.000 HD
ENDBRANCH   1  22
TORSDOF 2
ENDMDL
MODEL 8
REMARK VINA RESULT:      -8.0      4.165      5.205
REMARK  Name = 
REMARK  3 active torsions:
REMARK  status: ('A' for Active; 'I' for Inactive)
REMARK    1  A    between atoms: C_1  and  C_2
REMARK    2  A    between atoms: C_2  and  C_3
REMARK    3  A    between atoms: C_6  and  C_7
REMARK                            x       y       z     vdW  Elec       q    Type
REMARK                         _______ _______ _______ _____ _____    ______ ____
ROOT
ATOM      1  C   UNL     1       2.116   7.541  19.033  0.00  0.00    +0.000 A 
ATOM      2  C   UNL     1       1.670   8.018  20.280  0.00  0.00    +0.000 A 
ATOM      3  C   UNL     1       0.935   9.207  20.377  0.00  0.00    +0.000 A 
ATOM      4  C   UNL     1       0.617   9.929  19.224  0.00  0.00    +0.000 A 
ATOM      5  C   UNL     1       1.094   9.496  17.987  0.00  0.00    +0.000 A 
ATOM      6  C   UNL     1       1.797   8.296  17.888  0.00  0.00    +0.000 A 
ENDROOT
BRANCH   4   7
ATOM      7  C   UNL     1      -0.226  11.149  19.329  0.00  0.00    +0.000 C 
ATOM      8  O   UNL     1      -1.437  10.999  19.480  0.00  0.00    +0.000 OA
ATOM      9  N   UNL     1       0.388  12.419  19.219  0.00  0.00    +0.000 N 
ATOM     10  C   UNL     1      -0.539  13.547  19.218  0.00  0.00    +0.000 C 
ATOM     11  C   UNL     1       0.090  14.947  19.300  0.00  0.00    +0.000 C 
ATOM     12  C   UNL     1       1.506  15.060  18.805  0.00  0.00    +0.000 A 
ATOM     13  C   UNL     1       2.134  16.318  18.748  0.00  0.00    +0.000 A 
ATOM     14  C   UNL     1       3.484  16.422  18.393  0.00  0.00    +0.000 A 
ATOM     15  C   UNL     1       4.207  15.276  18.112  0.00  0.00    +0.000 A 
ATOM     16  F   UNL     1       5.508  15.375  17.802  0.00  0.00    +0.000 F 
ATOM     17  C   UNL     1       3.591  14.033  18.144  0.00  0.00    +0.000 A 
ATOM     18  F   UNL     1       4.306  12.933  17.861  0.00  0.00    +0.000 F 
ATOM     19  C   UNL     1       2.236  13.912  18.475  0.00  0.00    +0.000 A 
ATOM     20  C   UNL     1       1.584  12.566  18.388  0.00  0.00    +0.000 C 
ENDBRANCH   4   7
BRANCH   1  22
ATOM     21  C   UNL     1       4.135   6.402  18.009  0.00  0.00    +0.000 C 
ATOM     22  C   UNL     1       2.920   6.242  18.914  0.00  0.00    +0.000 C 
ATOM     23  N   UNL     1       3.290   5.737  20.225  0.00  0.00    +0.000 N 
ATOM     24  C   UNL     1       2.480   4.705  20.631  0.00  0.00    +0.000 C 
ATOM     25  O   UNL     1       2.468   4.232  21.752  0.00  0.00    +0.000 OA
ATOM     26  N   UNL     1       1.732   4.306  19.581  0.00  0.00    +0.000 N 
ATOM     27  C   UNL     1       2.033   5.046  18.479  0.00  0.00    +0.000 C 
ATOM     28  O   UNL     1       1.615   4.813  17.354  0.00  0.00    +0.000 OA
ATOM     29  H   UNL     1       3.869   6.213  20.900  0.00  0.00    +0.000 HD
ATOM     30  H   UNL     1       1.126   3.504  19.593  0.00  0.00    +0.000 HD
ENDBRANCH   1  22
TORSDOF 2
ENDMDL
MODEL 9
REMARK VINA RESULT:      -8.0      1.366      1.881
REMARK  Name = 
REMARK  3 active torsions:
REMARK  status: ('A' for Active; 'I' for Inactive)
REMARK    1  A    between atoms: C_1  and  C_2
REMARK    2  A    between atoms: C_2  and  C_3
REMARK    3  A    between atoms: C_6  and  C_7
REMARK                            x       y       z     vdW  Elec       q    Type
REMARK                         _______ _______ _______ _____ _____    ______ ____
ROOT
ATOM      1  C   UNL     1       3.016   5.424  18.805  0.00  0.00    +0.000 A 
ATOM      2  C   UNL     1       3.025   6.756  18.349  0.00  0.00    +0.000 A 
ATOM      3  C   UNL     1       2.438   7.781  19.100  0.00  0.00    +0.000 A 
ATOM      4  C   UNL     1       1.847   7.494  20.333  0.00  0.00    +0.000 A 
ATOM      5  C   UNL     1       1.786   6.172  20.777  0.00  0.00    +0.000 A 
ATOM      6  C   UNL     1       2.400   5.158  20.043  0.00  0.00    +0.000 A 
ENDROOT
BRANCH   4   7
ATOM      7  C   UNL     1       1.292   8.599  21.159  0.00  0.00    +0.000 C 
ATOM      8  O   UNL     1       1.606   8.643  22.346  0.00  0.00    +0.000 OA
ATOM      9  N   UNL     1       0.407   9.526  20.559  0.00  0.00    +0.000 N 
ATOM     10  C   UNL     1      -0.172  10.501  21.479  0.00  0.00    +0.000 C 
ATOM     11  C   UNL     1      -0.978  11.644  20.843  0.00  0.00    +0.000 C 
ATOM     12  C   UNL     1      -1.567  11.357  19.488  0.00  0.00    +0.000 A 
ATOM     13  C   UNL     1      -2.403  12.305  18.868  0.00  0.00    +0.000 A 
ATOM     14  C   UNL     1      -2.867  12.096  17.564  0.00  0.00    +0.000 A 
ATOM     15  C   UNL     1      -2.486  10.957  16.878  0.00  0.00    +0.000 A 
ATOM     16  F   UNL     1      -2.908  10.774  15.618  0.00  0.00    +0.000 F 
ATOM     17  C   UNL     1      -1.681  10.006  17.488  0.00  0.00    +0.000 A 
ATOM     18  F   UNL     1      -1.329   8.903  16.809  0.00  0.00    +0.000 F 
ATOM     19  C   UNL     1      -1.226  10.187  18.800  0.00  0.00    +0.000 A 
ATOM     20  C   UNL     1      -0.452   9.086  19.459  0.00  0.00    +0.000 C 
ENDBRANCH   4   7
BRANCH   1  22
ATOM     21  C   UNL     1       2.619   3.316  17.457  0.00  0.00    +0.000 C 
ATOM     22  C   UNL     1       3.657   4.295  17.992  0.00  0.00    +0.000 C 
ATOM     23  N   UNL     1       4.491   4.827  16.929  0.00  0.00    +0.000 N 
ATOM     24  C   UNL     1       5.826   4.787  17.248  0.00  0.00    +0.000 C 
ATOM     25  O   UNL     1       6.709   5.329  16.609  0.00  0.00    +0.000 OA
ATOM     26  N   UNL     1       5.982   4.037  18.359  0.00  0.00    +0.000 N 
ATOM     27  C   UNL     1       4.777   3.570  18.784  0.00  0.00    +0.000 C 
ATOM     28  O   UNL     1       4.629   2.751  19.681  0.00  0.00    +0.000 OA
ATOM     29  H   UNL     1       4.177   5.406  16.164  0.00  0.00    +0.000 HD
ATOM     30  H   UNL     1       6.873   3.777  18.743  0.00  0.00    +0.000 HD
ENDBRANCH   1  22
TORSDOF 2
ENDMDL
