MODEL 1
REMARK VINA RESULT:      -8.9      0.000      0.000
REMARK  Name = 
REMARK  4 active torsions:
REMARK  status: ('A' for Active; 'I' for Inactive)
REMARK    1  A    between atoms: C_2  and  C_15
REMARK    2  A    between atoms: N_3  and  C_4
REMARK    3  A    between atoms: C_20  and  S_21
REMARK    4  A    between atoms: S_21  and  N_24
REMARK                            x       y       z     vdW  Elec       q    Type
REMARK                         _______ _______ _______ _____ _____    ______ ____
ROOT
ATOM      1  C   UNL     1       2.167   6.853  19.276  0.00  0.00    +0.000 A 
ATOM      2  C   UNL     1       1.475   6.465  20.440  0.00  0.00    +0.000 A 
ATOM      3  C   UNL     1       1.662   5.201  21.006  0.00  0.00    +0.000 A 
ATOM      4  C   UNL     1       2.561   4.314  20.426  0.00  0.00    +0.000 A 
ATOM      5  F   UNL     1       2.771   3.147  21.043  0.00  0.00    +0.000 F 
ATOM      6  C   UNL     1       3.259   4.681  19.282  0.00  0.00    +0.000 A 
ATOM      7  C   UNL     1       3.039   5.938  18.677  0.00  0.00    +0.000 A 
ENDROOT
BRANCH   1   9
ATOM      8  O   UNL     1       2.593   8.644  17.826  0.00  0.00    +0.000 OA
ATOM      9  C   UNL     1       1.981   8.267  18.823  0.00  0.00    +0.000 C 
ATOM     10  N   UNL     1       1.101   9.101  19.495  0.00  0.00    +0.000 N 
ATOM     11  H   UNL     1       0.726   8.861  20.401  0.00  0.00    +0.000 HD
BRANCH  10  12
ATOM     12  C   UNL     1       0.870  10.457  18.980  0.00  0.00    +0.000 C 
ATOM     13  C   UNL     1       1.443  11.516  19.934  0.00  0.00    +0.000 C 
ATOM     14  C   UNL     1       0.425  12.069  20.911  0.00  0.00    +0.000 C 
ATOM     15  S   UNL     1      -0.829  13.016  20.013  0.00  0.00    +0.000 S 
ATOM     16  C   UNL     1      -1.323  11.795  18.812  0.00  0.00    +0.000 A 
ATOM     17  C   UNL     1      -2.541  12.029  18.149  0.00  0.00    +0.000 A 
ATOM     18  C   UNL     1      -3.024  11.129  17.200  0.00  0.00    +0.000 A 
ATOM     19  C   UNL     1      -2.293   9.985  16.925  0.00  0.00    +0.000 A 
ATOM     20  F   UNL     1      -2.748   9.112  16.017  0.00  0.00    +0.000 F 
ATOM     21  C   UNL     1      -1.075   9.747  17.554  0.00  0.00    +0.000 A 
ATOM     22  C   UNL     1      -0.554  10.661  18.494  0.00  0.00    +0.000 A 
ENDBRANCH  10  12
ENDBRANCH   1   9
BRANCH   6  23
ATOM     23  S   UNL     1       4.450   3.567  18.582  0.00  0.00    +0.000 S 
ATOM     24  O   UNL     1       5.447   3.250  19.581  0.00  0.00    +0.000 OA
ATOM     25  O   UNL     1       3.688   2.511  17.946  0.00  0.00    +0.000 OA
BRANCH  23  26
ATOM     26  N   UNL     1       5.191   4.505  17.340  0.00  0.00    +0.000 NA
ATOM     27  C   UNL     1       6.567   4.968  17.658  0.00  0.00    +0.000 C 
ATOM     28  C   UNL     1       7.127   5.885  16.580  0.00  0.00    +0.000 C 
ATOM     29  C   UNL     1       7.040   5.225  15.212  0.00  0.00    +0.000 C 
ATOM     30  C   UNL     1       5.586   4.905  14.908  0.00  0.00    +0.000 C 
ATOM     31  C   UNL     1       4.991   3.979  15.962  0.00  0.00    +0.000 C 
ENDBRANCH  23  26
ENDBRANCH   6  23
TORSDOF 4
ENDMDL
MODEL 2
REMARK VINA RESULT:      -8.8      0.926      1.479
REMARK  Name = 
REMARK  4 active torsions:
REMARK  status: ('A' for Active; 'I' for Inactive)
REMARK    1  A    between atoms: C_2  and  C_15
REMARK    2  A    between atoms: N_3  and  C_4
REMARK    3  A    between atoms: C_20  and  S_21
REMARK    4  A    between atoms: S_21  and  N_24
REMARK                            x       y       z     vdW  Elec       q    Type
REMARK                         _______ _______ _______ _____ _____    ______ ____
ROOT
ATOM      1  C   UNL     1       2.161   7.191  19.014  0.00  0.00    +0.000 A 
ATOM      2  C   UNL     1       1.712   6.775  20.283  0.00  0.00    +0.000 A 
ATOM      3  C   UNL     1       2.045   5.518  20.792  0.00  0.00    +0.000 A 
ATOM      4  C   UNL     1       2.850   4.664  20.046  0.00  0.00    +0.000 A 
ATOM      5  F   UNL     1       3.212   3.504  20.602  0.00  0.00    +0.000 F 
ATOM      6  C   UNL     1       3.309   5.059  18.795  0.00  0.00    +0.000 A 
ATOM      7  C   UNL     1       2.937   6.309  18.254  0.00  0.00    +0.000 A 
ENDROOT
BRANCH   1   9
ATOM      8  O   UNL     1       2.280   9.013  17.544  0.00  0.00    +0.000 OA
ATOM      9  C   UNL     1       1.846   8.599  18.617  0.00  0.00    +0.000 C 
ATOM     10  N   UNL     1       1.043   9.385  19.429  0.00  0.00    +0.000 N 
ATOM     11  H   UNL     1       0.821   9.120  20.377  0.00  0.00    +0.000 HD
BRANCH  10  12
ATOM     12  C   UNL     1       0.675  10.734  18.976  0.00  0.00    +0.000 C 
ATOM     13  C   UNL     1       1.215  11.805  19.936  0.00  0.00    +0.000 C 
ATOM     14  C   UNL     1       0.213  12.241  20.985  0.00  0.00    +0.000 C 
ATOM     15  S   UNL     1      -1.162  13.111  20.191  0.00  0.00    +0.000 S 
ATOM     16  C   UNL     1      -1.624  11.893  18.975  0.00  0.00    +0.000 A 
ATOM     17  C   UNL     1      -2.892  12.047  18.387  0.00  0.00    +0.000 A 
ATOM     18  C   UNL     1      -3.354  11.142  17.433  0.00  0.00    +0.000 A 
ATOM     19  C   UNL     1      -2.551  10.070  17.077  0.00  0.00    +0.000 A 
ATOM     20  F   UNL     1      -2.985   9.193  16.164  0.00  0.00    +0.000 F 
ATOM     21  C   UNL     1      -1.284   9.913  17.631  0.00  0.00    +0.000 A 
ATOM     22  C   UNL     1      -0.786  10.836  18.575  0.00  0.00    +0.000 A 
ENDBRANCH  10  12
ENDBRANCH   1   9
BRANCH   6  23
ATOM     23  S   UNL     1       4.386   3.990  17.875  0.00  0.00    +0.000 S 
ATOM     24  O   UNL     1       4.535   2.741  18.589  0.00  0.00    +0.000 OA
ATOM     25  O   UNL     1       3.895   4.002  16.512  0.00  0.00    +0.000 OA
BRANCH  23  26
ATOM     26  N   UNL     1       5.894   4.825  17.900  0.00  0.00    +0.000 NA
ATOM     27  C   UNL     1       6.033   5.872  16.853  0.00  0.00    +0.000 C 
ATOM     28  C   UNL     1       7.421   6.495  16.847  0.00  0.00    +0.000 C 
ATOM     29  C   UNL     1       7.789   7.009  18.232  0.00  0.00    +0.000 C 
ATOM     30  C   UNL     1       7.751   5.851  19.215  0.00  0.00    +0.000 C 
ATOM     31  C   UNL     1       6.370   5.205  19.258  0.00  0.00    +0.000 C 
ENDBRANCH  23  26
ENDBRANCH   6  23
TORSDOF 4
ENDMDL
MODEL 3
REMARK VINA RESULT:      -8.6      0.782      1.261
REMARK  Name = 
REMARK  4 active torsions:
REMARK  status: ('A' for Active; 'I' for Inactive)
REMARK    1  A    between atoms: C_2  and  C_15
REMARK    2  A    between atoms: N_3  and  C_4
REMARK    3  A    between atoms: C_20  and  S_21
REMARK    4  A    between atoms: S_21  and  N_24
REMARK                            x       y       z     vdW  Elec       q    Type
REMARK                         _______ _______ _______ _____ _____    ______ ____
ROOT
ATOM      1  C   UNL     1       2.080   6.647  19.347  0.00  0.00    +0.000 A 
ATOM      2  C   UNL     1       1.898   6.227  20.679  0.00  0.00    +0.000 A 
ATOM      3  C   UNL     1       2.142   4.906  21.062  0.00  0.00    +0.000 A 
ATOM      4  C   UNL     1       2.590   3.988  20.120  0.00  0.00    +0.000 A 
ATOM      5  F   UNL     1       2.889   2.755  20.542  0.00  0.00    +0.000 F 
ATOM      6  C   UNL     1       2.784   4.384  18.802  0.00  0.00    +0.000 A 
ATOM      7  C   UNL     1       2.493   5.705  18.397  0.00  0.00    +0.000 A 
ENDROOT
BRANCH   1   9
ATOM      8  O   UNL     1       2.548   8.607  18.151  0.00  0.00    +0.000 OA
ATOM      9  C   UNL     1       1.905   8.106  19.071  0.00  0.00    +0.000 C 
ATOM     10  N   UNL     1       1.000   8.849  19.814  0.00  0.00    +0.000 N 
ATOM     11  H   UNL     1       0.595   8.496  20.669  0.00  0.00    +0.000 HD
BRANCH  10  12
ATOM     12  C   UNL     1       0.781  10.260  19.467  0.00  0.00    +0.000 C 
ATOM     13  C   UNL     1       1.183  11.183  20.628  0.00  0.00    +0.000 C 
ATOM     14  C   UNL     1       0.025  11.566  21.528  0.00  0.00    +0.000 C 
ATOM     15  S   UNL     1      -1.141  12.604  20.612  0.00  0.00    +0.000 S 
ATOM     16  C   UNL     1      -1.425  11.559  19.197  0.00  0.00    +0.000 A 
ATOM     17  C   UNL     1      -2.556  11.858  18.416  0.00  0.00    +0.000 A 
ATOM     18  C   UNL     1      -2.874  11.095  17.295  0.00  0.00    +0.000 A 
ATOM     19  C   UNL     1      -2.067  10.019  16.962  0.00  0.00    +0.000 A 
ATOM     20  F   UNL     1      -2.364   9.277  15.888  0.00  0.00    +0.000 F 
ATOM     21  C   UNL     1      -0.932   9.720  17.708  0.00  0.00    +0.000 A 
ATOM     22  C   UNL     1      -0.575  10.500  18.829  0.00  0.00    +0.000 A 
ENDBRANCH  10  12
ENDBRANCH   1   9
BRANCH   6  23
ATOM     23  S   UNL     1       3.415   3.223  17.617  0.00  0.00    +0.000 S 
ATOM     24  O   UNL     1       3.611   1.945  18.265  0.00  0.00    +0.000 OA
ATOM     25  O   UNL     1       2.561   3.331  16.453  0.00  0.00    +0.000 OA
BRANCH  23  26
ATOM     26  N   UNL     1       4.956   3.875  17.203  0.00  0.00    +0.000 NA
ATOM     27  C   UNL     1       4.956   4.724  15.982  0.00  0.00    +0.000 C 
ATOM     28  C   UNL     1       6.357   5.177  15.599  0.00  0.00    +0.000 C 
ATOM     29  C   UNL     1       7.047   5.853  16.774  0.00  0.00    +0.000 C 
ATOM     30  C   UNL     1       7.125   4.873  17.933  0.00  0.00    +0.000 C 
ATOM     31  C   UNL     1       5.737   4.403  18.355  0.00  0.00    +0.000 C 
ENDBRANCH  23  26
ENDBRANCH   6  23
TORSDOF 4
ENDMDL
MODEL 4
REMARK VINA RESULT:      -8.2      1.437      1.783
REMARK  Name = 
REMARK  4 active torsions:
REMARK  status: ('A' for Active; 'I' for Inactive)
REMARK    1  A    between atoms: C_2  and  C_15
REMARK    2  A    between atoms: N_3  and  C_4
REMARK    3  A    between atoms: C_20  and  S_21
REMARK    4  A    between atoms: S_21  and  N_24
REMARK                            x       y       z     vdW  Elec       q    Type
REMARK                         _______ _______ _______ _____ _____    ______ ____
ROOT
ATOM      1  C   UNL     1       2.635   7.590  18.175  0.00  0.00    +0.000 A 
ATOM      2  C   UNL     1       1.809   6.606  18.752  0.00  0.00    +0.000 A 
ATOM      3  C   UNL     1       2.276   5.307  18.971  0.00  0.00    +0.000 A 
ATOM      4  C   UNL     1       3.584   4.980  18.633  0.00  0.00    +0.000 A 
ATOM      5  F   UNL     1       4.016   3.750  18.933  0.00  0.00    +0.000 F 
ATOM      6  C   UNL     1       4.417   5.939  18.071  0.00  0.00    +0.000 A 
ATOM      7  C   UNL     1       3.938   7.240  17.802  0.00  0.00    +0.000 A 
ENDROOT
BRANCH   1   9
ATOM      8  O   UNL     1       2.496   9.724  17.216  0.00  0.00    +0.000 OA
ATOM      9  C   UNL     1       2.075   8.975  18.095  0.00  0.00    +0.000 C 
ATOM     10  N   UNL     1       1.073   9.370  18.968  0.00  0.00    +0.000 N 
ATOM     11  H   UNL     1       0.840   8.832  19.790  0.00  0.00    +0.000 HD
BRANCH  10  12
ATOM     12  C   UNL     1       0.478  10.704  18.813  0.00  0.00    +0.000 C 
ATOM     13  C   UNL     1       0.861  11.620  19.986  0.00  0.00    +0.000 C 
ATOM     14  C   UNL     1      -0.170  11.650  21.096  0.00  0.00    +0.000 C 
ATOM     15  S   UNL     1      -1.690  12.429  20.494  0.00  0.00    +0.000 S 
ATOM     16  C   UNL     1      -1.979  11.440  19.041  0.00  0.00    +0.000 A 
ATOM     17  C   UNL     1      -3.271  11.504  18.489  0.00  0.00    +0.000 A 
ATOM     18  C   UNL     1      -3.604  10.760  17.358  0.00  0.00    +0.000 A 
ATOM     19  C   UNL     1      -2.646   9.938  16.787  0.00  0.00    +0.000 A 
ATOM     20  F   UNL     1      -2.955   9.216  15.703  0.00  0.00    +0.000 F 
ATOM     21  C   UNL     1      -1.356   9.878  17.305  0.00  0.00    +0.000 A 
ATOM     22  C   UNL     1      -0.990  10.647  18.430  0.00  0.00    +0.000 A 
ENDBRANCH  10  12
ENDBRANCH   1   9
BRANCH   6  23
ATOM     23  S   UNL     1       6.103   5.531  17.699  0.00  0.00    +0.000 S 
ATOM     24  O   UNL     1       6.937   6.685  17.956  0.00  0.00    +0.000 OA
ATOM     25  O   UNL     1       6.369   4.272  18.364  0.00  0.00    +0.000 OA
BRANCH  23  26
ATOM     26  N   UNL     1       6.076   5.235  16.000  0.00  0.00    +0.000 NA
ATOM     27  C   UNL     1       7.421   5.123  15.375  0.00  0.00    +0.000 C 
ATOM     28  C   UNL     1       7.339   4.978  13.863  0.00  0.00    +0.000 C 
ATOM     29  C   UNL     1       6.424   3.825  13.479  0.00  0.00    +0.000 C 
ATOM     30  C   UNL     1       5.038   4.084  14.044  0.00  0.00    +0.000 C 
ATOM     31  C   UNL     1       5.076   4.225  15.562  0.00  0.00    +0.000 C 
ENDBRANCH  23  26
ENDBRANCH   6  23
TORSDOF 4
ENDMDL
MODEL 5
REMARK VINA RESULT:      -8.1      1.529      1.675
REMARK  Name = 
REMARK  4 active torsions:
REMARK  status: ('A' for Active; 'I' for Inactive)
REMARK    1  A    between atoms: C_2  and  C_15
REMARK    2  A    between atoms: N_3  and  C_4
REMARK    3  A    between atoms: C_20  and  S_21
REMARK    4  A    between atoms: S_21  and  N_24
REMARK                            x       y       z     vdW  Elec       q    Type
REMARK                         _______ _______ _______ _____ _____    ______ ____
ROOT
ATOM      1  C   UNL     1       1.891   5.912  19.903  0.00  0.00    +0.000 A 
ATOM      2  C   UNL     1       0.822   5.178  20.453  0.00  0.00    +0.000 A 
ATOM      3  C   UNL     1       0.805   3.782  20.413  0.00  0.00    +0.000 A 
ATOM      4  C   UNL     1       1.870   3.098  19.839  0.00  0.00    +0.000 A 
ATOM      5  F   UNL     1       1.855   1.761  19.893  0.00  0.00    +0.000 F 
ATOM      6  C   UNL     1       2.939   3.802  19.299  0.00  0.00    +0.000 A 
ATOM      7  C   UNL     1       2.939   5.215  19.292  0.00  0.00    +0.000 A 
ENDROOT
BRANCH   1   9
ATOM      8  O   UNL     1       2.638   8.086  19.447  0.00  0.00    +0.000 OA
ATOM      9  C   UNL     1       1.864   7.394  20.105  0.00  0.00    +0.000 C 
ATOM     10  N   UNL     1       0.949   7.958  20.981  0.00  0.00    +0.000 N 
ATOM     11  H   UNL     1       0.430   7.400  21.643  0.00  0.00    +0.000 HD
BRANCH  10  12
ATOM     12  C   UNL     1       0.882   9.421  21.096  0.00  0.00    +0.000 C 
ATOM     13  C   UNL     1       1.015   9.867  22.561  0.00  0.00    +0.000 C 
ATOM     14  C   UNL     1      -0.316  10.080  23.253  0.00  0.00    +0.000 C 
ATOM     15  S   UNL     1      -1.170  11.492  22.510  0.00  0.00    +0.000 S 
ATOM     16  C   UNL     1      -1.130  10.999  20.798  0.00  0.00    +0.000 A 
ATOM     17  C   UNL     1      -2.014  11.670  19.934  0.00  0.00    +0.000 A 
ATOM     18  C   UNL     1      -2.070  11.351  18.578  0.00  0.00    +0.000 A 
ATOM     19  C   UNL     1      -1.249  10.348  18.088  0.00  0.00    +0.000 A 
ATOM     20  F   UNL     1      -1.295  10.032  16.788  0.00  0.00    +0.000 F 
ATOM     21  C   UNL     1      -0.352   9.689  18.923  0.00  0.00    +0.000 A 
ATOM     22  C   UNL     1      -0.258  10.019  20.291  0.00  0.00    +0.000 A 
ENDBRANCH  10  12
ENDBRANCH   1   9
BRANCH   6  23
ATOM     23  S   UNL     1       4.323   2.922  18.623  0.00  0.00    +0.000 S 
ATOM     24  O   UNL     1       5.223   2.558  19.695  0.00  0.00    +0.000 OA
ATOM     25  O   UNL     1       3.767   1.903  17.755  0.00  0.00    +0.000 OA
BRANCH  23  26
ATOM     26  N   UNL     1       5.096   4.098  17.627  0.00  0.00    +0.000 NA
ATOM     27  C   UNL     1       6.418   4.556  18.131  0.00  0.00    +0.000 C 
ATOM     28  C   UNL     1       7.000   5.674  17.279  0.00  0.00    +0.000 C 
ATOM     29  C   UNL     1       7.048   5.268  15.813  0.00  0.00    +0.000 C 
ATOM     30  C   UNL     1       5.640   4.945  15.343  0.00  0.00    +0.000 C 
ATOM     31  C   UNL     1       5.024   3.819  16.167  0.00  0.00    +0.000 C 
ENDBRANCH  23  26
ENDBRANCH   6  23
TORSDOF 4
ENDMDL
MODEL 6
REMARK VINA RESULT:      -8.1      1.162      1.542
REMARK  Name = 
REMARK  4 active torsions:
REMARK  status: ('A' for Active; 'I' for Inactive)
REMARK    1  A    between atoms: C_2  and  C_15
REMARK    2  A    between atoms: N_3  and  C_4
REMARK    3  A    between atoms: C_20  and  S_21
REMARK    4  A    between atoms: S_21  and  N_24
REMARK                            x       y       z     vdW  Elec       q    Type
REMARK                         _______ _______ _______ _____ _____    ______ ____
ROOT
ATOM      1  C   UNL     1       2.401   7.037  18.266  0.00  0.00    +0.000 A 
ATOM      2  C   UNL     1       1.347   6.101  18.285  0.00  0.00    +0.000 A 
ATOM      3  C   UNL     1       1.594   4.736  18.449  0.00  0.00    +0.000 A 
ATOM      4  C   UNL     1       2.899   4.288  18.618  0.00  0.00    +0.000 A 
ATOM      5  F   UNL     1       3.086   2.985  18.853  0.00  0.00    +0.000 F 
ATOM      6  C   UNL     1       3.951   5.195  18.610  0.00  0.00    +0.000 A 
ATOM      7  C   UNL     1       3.714   6.571  18.395  0.00  0.00    +0.000 A 
ENDROOT
BRANCH   1   9
ATOM      8  O   UNL     1       2.511   9.177  17.318  0.00  0.00    +0.000 OA
ATOM      9  C   UNL     1       2.017   8.481  18.202  0.00  0.00    +0.000 C 
ATOM     10  N   UNL     1       1.089   8.993  19.096  0.00  0.00    +0.000 N 
ATOM     11  H   UNL     1       0.806   8.482  19.921  0.00  0.00    +0.000 HD
BRANCH  10  12
ATOM     12  C   UNL     1       0.662  10.391  18.959  0.00  0.00    +0.000 C 
ATOM     13  C   UNL     1       1.135  11.234  20.154  0.00  0.00    +0.000 C 
ATOM     14  C   UNL     1       0.097  11.369  21.250  0.00  0.00    +0.000 C 
ATOM     15  S   UNL     1      -1.307  12.337  20.643  0.00  0.00    +0.000 S 
ATOM     16  C   UNL     1      -1.690  11.416  19.166  0.00  0.00    +0.000 A 
ATOM     17  C   UNL     1      -2.956  11.646  18.598  0.00  0.00    +0.000 A 
ATOM     18  C   UNL     1      -3.358  10.968  17.449  0.00  0.00    +0.000 A 
ATOM     19  C   UNL     1      -2.498  10.045  16.875  0.00  0.00    +0.000 A 
ATOM     20  F   UNL     1      -2.875   9.386  15.773  0.00  0.00    +0.000 F 
ATOM     21  C   UNL     1      -1.234   9.820  17.410  0.00  0.00    +0.000 A 
ATOM     22  C   UNL     1      -0.796  10.520  18.555  0.00  0.00    +0.000 A 
ENDBRANCH  10  12
ENDBRANCH   1   9
BRANCH   6  23
ATOM     23  S   UNL     1       5.609   4.624  18.886  0.00  0.00    +0.000 S 
ATOM     24  O   UNL     1       6.361   5.660  19.559  0.00  0.00    +0.000 OA
ATOM     25  O   UNL     1       5.487   3.306  19.476  0.00  0.00    +0.000 OA
BRANCH  23  26
ATOM     26  N   UNL     1       6.235   4.432  17.292  0.00  0.00    +0.000 NA
ATOM     27  C   UNL     1       5.277   3.837  16.323  0.00  0.00    +0.000 C 
ATOM     28  C   UNL     1       5.916   3.584  14.966  0.00  0.00    +0.000 C 
ATOM     29  C   UNL     1       6.568   4.850  14.431  0.00  0.00    +0.000 C 
ATOM     30  C   UNL     1       7.625   5.318  15.417  0.00  0.00    +0.000 C 
ATOM     31  C   UNL     1       7.021   5.592  16.790  0.00  0.00    +0.000 C 
ENDBRANCH  23  26
ENDBRANCH   6  23
TORSDOF 4
ENDMDL
MODEL 7
REMARK VINA RESULT:      -7.8      2.963      9.248
REMARK  Name = 
REMARK  4 active torsions:
REMARK  status: ('A' for Active; 'I' for Inactive)
REMARK    1  A    between atoms: C_2  and  C_15
REMARK    2  A    between atoms: N_3  and  C_4
REMARK    3  A    between atoms: C_20  and  S_21
REMARK    4  A    between atoms: S_21  and  N_24
REMARK                            x       y       z     vdW  Elec       q    Type
REMARK                         _______ _______ _______ _____ _____    ______ ____
ROOT
ATOM      1  C   UNL     1       0.939   9.180  19.046  0.00  0.00    +0.000 A 
ATOM      2  C   UNL     1       0.130   9.085  17.897  0.00  0.00    +0.000 A 
ATOM      3  C   UNL     1      -0.825  10.061  17.601  0.00  0.00    +0.000 A 
ATOM      4  C   UNL     1      -0.971  11.158  18.442  0.00  0.00    +0.000 A 
ATOM      5  F   UNL     1      -1.838  12.110  18.082  0.00  0.00    +0.000 F 
ATOM      6  C   UNL     1      -0.177  11.275  19.576  0.00  0.00    +0.000 A 
ATOM      7  C   UNL     1       0.756  10.268  19.908  0.00  0.00    +0.000 A 
ENDROOT
BRANCH   1   9
ATOM      8  O   UNL     1       2.295   7.773  20.339  0.00  0.00    +0.000 OA
ATOM      9  C   UNL     1       2.007   8.145  19.204  0.00  0.00    +0.000 C 
ATOM     10  N   UNL     1       2.611   7.595  18.084  0.00  0.00    +0.000 N 
ATOM     11  H   UNL     1       2.506   8.004  17.166  0.00  0.00    +0.000 HD
BRANCH  10  12
ATOM     12  C   UNL     1       3.594   6.517  18.260  0.00  0.00    +0.000 C 
ATOM     13  C   UNL     1       4.898   6.830  17.509  0.00  0.00    +0.000 C 
ATOM     14  C   UNL     1       4.963   6.216  16.125  0.00  0.00    +0.000 C 
ATOM     15  S   UNL     1       5.034   4.412  16.262  0.00  0.00    +0.000 S 
ATOM     16  C   UNL     1       3.605   4.133  17.289  0.00  0.00    +0.000 A 
ATOM     17  C   UNL     1       3.112   2.817  17.328  0.00  0.00    +0.000 A 
ATOM     18  C   UNL     1       1.992   2.494  18.093  0.00  0.00    +0.000 A 
ATOM     19  C   UNL     1       1.354   3.495  18.808  0.00  0.00    +0.000 A 
ATOM     20  F   UNL     1       0.276   3.198  19.543  0.00  0.00    +0.000 F 
ATOM     21  C   UNL     1       1.840   4.799  18.799  0.00  0.00    +0.000 A 
ATOM     22  C   UNL     1       2.991   5.138  18.057  0.00  0.00    +0.000 A 
ENDBRANCH  10  12
ENDBRANCH   1   9
BRANCH   6  23
ATOM     23  S   UNL     1      -0.325  12.708  20.613  0.00  0.00    +0.000 S 
ATOM     24  O   UNL     1       0.738  12.695  21.593  0.00  0.00    +0.000 OA
ATOM     25  O   UNL     1      -0.485  13.836  19.718  0.00  0.00    +0.000 OA
BRANCH  23  26
ATOM     26  N   UNL     1      -1.827  12.460  21.422  0.00  0.00    +0.000 NA
ATOM     27  C   UNL     1      -1.724  12.406  22.905  0.00  0.00    +0.000 C 
ATOM     28  C   UNL     1      -3.056  12.071  23.560  0.00  0.00    +0.000 C 
ATOM     29  C   UNL     1      -4.144  13.024  23.090  0.00  0.00    +0.000 C 
ATOM     30  C   UNL     1      -4.276  12.920  21.579  0.00  0.00    +0.000 C 
ATOM     31  C   UNL     1      -2.962  13.259  20.884  0.00  0.00    +0.000 C 
ENDBRANCH  23  26
ENDBRANCH   6  23
TORSDOF 4
ENDMDL
MODEL 8
REMARK VINA RESULT:      -7.8      2.065      3.578
REMARK  Name = 
REMARK  4 active torsions:
REMARK  status: ('A' for Active; 'I' for Inactive)
REMARK    1  A    between atoms: C_2  and  C_15
REMARK    2  A    between atoms: N_3  and  C_4
REMARK    3  A    between atoms: C_20  and  S_21
REMARK    4  A    between atoms: S_21  and  N_24
REMARK                            x       y       z     vdW  Elec       q    Type
REMARK                         _______ _______ _______ _____ _____    ______ ____
ROOT
ATOM      1  C   UNL     1       2.907   7.716  17.909  0.00  0.00    +0.000 A 
ATOM      2  C   UNL     1       4.302   7.669  17.717  0.00  0.00    +0.000 A 
ATOM      3  C   UNL     1       4.964   6.458  17.504  0.00  0.00    +0.000 A 
ATOM      4  C   UNL     1       4.235   5.275  17.459  0.00  0.00    +0.000 A 
ATOM      5  F   UNL     1       4.893   4.147  17.172  0.00  0.00    +0.000 F 
ATOM      6  C   UNL     1       2.857   5.300  17.638  0.00  0.00    +0.000 A 
ATOM      7  C   UNL     1       2.188   6.515  17.903  0.00  0.00    +0.000 A 
ENDROOT
BRANCH   1   9
ATOM      8  O   UNL     1       2.717   9.966  17.283  0.00  0.00    +0.000 OA
ATOM      9  C   UNL     1       2.287   9.074  18.011  0.00  0.00    +0.000 C 
ATOM     10  N   UNL     1       1.225   9.289  18.876  0.00  0.00    +0.000 N 
ATOM     11  H   UNL     1       0.976   8.620  19.590  0.00  0.00    +0.000 HD
BRANCH  10  12
ATOM     12  C   UNL     1       0.576  10.606  18.894  0.00  0.00    +0.000 C 
ATOM     13  C   UNL     1       0.919  11.373  20.181  0.00  0.00    +0.000 C 
ATOM     14  C   UNL     1      -0.116  11.214  21.276  0.00  0.00    +0.000 C 
ATOM     15  S   UNL     1      -1.664  12.005  20.771  0.00  0.00    +0.000 S 
ATOM     16  C   UNL     1      -1.909  11.207  19.197  0.00  0.00    +0.000 A 
ATOM     17  C   UNL     1      -3.201  11.292  18.648  0.00  0.00    +0.000 A 
ATOM     18  C   UNL     1      -3.500  10.692  17.426  0.00  0.00    +0.000 A 
ATOM     19  C   UNL     1      -2.508   9.991  16.759  0.00  0.00    +0.000 A 
ATOM     20  F   UNL     1      -2.785   9.409  15.586  0.00  0.00    +0.000 F 
ATOM     21  C   UNL     1      -1.218   9.915  17.275  0.00  0.00    +0.000 A 
ATOM     22  C   UNL     1      -0.887  10.542  18.495  0.00  0.00    +0.000 A 
ENDBRANCH  10  12
ENDBRANCH   1   9
BRANCH   6  23
ATOM     23  S   UNL     1       1.926   3.794  17.519  0.00  0.00    +0.000 S 
ATOM     24  O   UNL     1       0.545   4.113  17.232  0.00  0.00    +0.000 OA
ATOM     25  O   UNL     1       2.676   2.926  16.636  0.00  0.00    +0.000 OA
BRANCH  23  26
ATOM     26  N   UNL     1       2.023   3.139  19.111  0.00  0.00    +0.000 NA
ATOM     27  C   UNL     1       3.398   3.102  19.677  0.00  0.00    +0.000 C 
ATOM     28  C   UNL     1       3.441   2.411  21.031  0.00  0.00    +0.000 C 
ATOM     29  C   UNL     1       2.438   3.035  21.989  0.00  0.00    +0.000 C 
ATOM     30  C   UNL     1       1.044   2.913  21.396  0.00  0.00    +0.000 C 
ATOM     31  C   UNL     1       0.957   3.603  20.040  0.00  0.00    +0.000 C 
ENDBRANCH  23  26
ENDBRANCH   6  23
TORSDOF 4
ENDMDL
MODEL 9
REMARK VINA RESULT:      -7.7      1.376      1.582
REMARK  Name = 
REMARK  4 active torsions:
REMARK  status: ('A' for Active; 'I' for Inactive)
REMARK    1  A    between atoms: C_2  and  C_15
REMARK    2  A    between atoms: N_3  and  C_4
REMARK    3  A    between atoms: C_20  and  S_21
REMARK    4  A    between atoms: S_21  and  N_24
REMARK                            x       y       z     vdW  Elec       q    Type
REMARK                         _______ _______ _______ _____ _____    ______ ____
ROOT
ATOM      1  C   UNL     1       1.906   7.387  19.524  0.00  0.00    +0.000 A 
ATOM      2  C   UNL     1       1.214   6.704  20.543  0.00  0.00    +0.000 A 
ATOM      3  C   UNL     1       1.579   5.410  20.924  0.00  0.00    +0.000 A 
ATOM      4  C   UNL     1       2.656   4.788  20.303  0.00  0.00    +0.000 A 
ATOM      5  F   UNL     1       3.024   3.583  20.752  0.00  0.00    +0.000 F 
ATOM      6  C   UNL     1       3.357   5.449  19.301  0.00  0.00    +0.000 A 
ATOM      7  C   UNL     1       2.964   6.737  18.878  0.00  0.00    +0.000 A 
ENDROOT
BRANCH   1   9
ATOM      8  O   UNL     1       2.131   9.450  18.434  0.00  0.00    +0.000 OA
ATOM      9  C   UNL     1       1.509   8.809  19.278  0.00  0.00    +0.000 C 
ATOM     10  N   UNL     1       0.433   9.356  19.959  0.00  0.00    +0.000 N 
ATOM     11  H   UNL     1       0.024   8.903  20.764  0.00  0.00    +0.000 HD
BRANCH  10  12
ATOM     12  C   UNL     1       0.006  10.725  19.637  0.00  0.00    +0.000 C 
ATOM     13  C   UNL     1       0.119  11.642  20.864  0.00  0.00    +0.000 C 
ATOM     14  C   UNL     1      -1.173  11.775  21.644  0.00  0.00    +0.000 C 
ATOM     15  S   UNL     1      -2.404  12.644  20.639  0.00  0.00    +0.000 S 
ATOM     16  C   UNL     1      -2.353  11.640  19.169  0.00  0.00    +0.000 A 
ATOM     17  C   UNL     1      -3.434  11.781  18.279  0.00  0.00    +0.000 A 
ATOM     18  C   UNL     1      -3.497  11.033  17.105  0.00  0.00    +0.000 A 
ATOM     19  C   UNL     1      -2.484  10.129  16.827  0.00  0.00    +0.000 A 
ATOM     20  F   UNL     1      -2.535   9.403  15.704  0.00  0.00    +0.000 F 
ATOM     21  C   UNL     1      -1.396   9.991  17.684  0.00  0.00    +0.000 A 
ATOM     22  C   UNL     1      -1.298  10.762  18.861  0.00  0.00    +0.000 A 
ENDBRANCH  10  12
ENDBRANCH   1   9
BRANCH   6  23
ATOM     23  S   UNL     1       4.768   4.673  18.556  0.00  0.00    +0.000 S 
ATOM     24  O   UNL     1       5.292   3.674  19.461  0.00  0.00    +0.000 OA
ATOM     25  O   UNL     1       4.365   4.308  17.214  0.00  0.00    +0.000 OA
BRANCH  23  26
ATOM     26  N   UNL     1       5.910   5.959  18.432  0.00  0.00    +0.000 NA
ATOM     27  C   UNL     1       7.289   5.599  18.857  0.00  0.00    +0.000 C 
ATOM     28  C   UNL     1       8.226   6.798  18.838  0.00  0.00    +0.000 C 
ATOM     29  C   UNL     1       8.199   7.483  17.479  0.00  0.00    +0.000 C 
ATOM     30  C   UNL     1       6.780   7.937  17.181  0.00  0.00    +0.000 C 
ATOM     31  C   UNL     1       5.810   6.760  17.182  0.00  0.00    +0.000 C 
ENDBRANCH  23  26
ENDBRANCH   6  23
TORSDOF 4
ENDMDL
