MODEL 1
REMARK VINA RESULT:      -9.3      0.000      0.000
REMARK  Name = 
REMARK  5 active torsions:
REMARK  status: ('A' for Active; 'I' for Inactive)
REMARK    1  A    between atoms: C_1  and  C_2
REMARK    2  A    between atoms: N_6  and  C_7
REMARK    3  A    between atoms: C_11  and  N_12
REMARK    4  A    between atoms: C_13  and  C_15
REMARK    5  A    between atoms: C_19  and  C_20
REMARK                            x       y       z     vdW  Elec       q    Type
REMARK                         _______ _______ _______ _____ _____    ______ ____
ROOT
ATOM      1  N   UNL     1       2.075   7.121  19.015  0.00  0.00    +0.000 N 
ATOM      2  C   UNL     1       1.969   8.379  18.435  0.00  0.00    +0.000 C 
ATOM      3  O   UNL     1       2.318   8.680  17.297  0.00  0.00    +0.000 OA
ATOM      4  H   UNL     1       1.677   6.984  19.934  0.00  0.00    +0.000 HD
ENDROOT
BRANCH   1   9
ATOM      5  C   UNL     1       4.583   4.762  17.562  0.00  0.00    +0.000 A 
ATOM      6  C   UNL     1       3.769   3.693  17.180  0.00  0.00    +0.000 A 
ATOM      7  C   UNL     1       2.397   3.760  17.384  0.00  0.00    +0.000 A 
ATOM      8  C   UNL     1       1.826   4.886  17.970  0.00  0.00    +0.000 A 
ATOM      9  C   UNL     1       2.612   5.964  18.388  0.00  0.00    +0.000 A 
ATOM     10  C   UNL     1       4.001   5.893  18.184  0.00  0.00    +0.000 A 
BRANCH   5  16
ATOM     11  C   UNL     1       6.361   4.757  14.860  0.00  0.00    +0.000 C 
ATOM     12  C   UNL     1       6.777   4.527  16.263  0.00  0.00    +0.000 A 
ATOM     13  N   UNL     1       8.015   4.291  16.652  0.00  0.00    +0.000 NA
ATOM     14  N   UNL     1       8.020   4.403  18.014  0.00  0.00    +0.000 NA
ATOM     15  N   UNL     1       6.817   4.714  18.470  0.00  0.00    +0.000 NA
ATOM     16  N   UNL     1       5.989   4.684  17.398  0.00  0.00    +0.000 N 
ENDBRANCH   5  16
ENDBRANCH   1   9
BRANCH   2  17
ATOM     17  C   UNL     1       1.361   9.474  19.248  0.00  0.00    +0.000 A 
ATOM     18  C   UNL     1       1.156  10.770  18.770  0.00  0.00    +0.000 A 
ATOM     19  C   UNL     1       0.509  11.713  19.576  0.00  0.00    +0.000 A 
ATOM     20  C   UNL     1       0.051  11.365  20.850  0.00  0.00    +0.000 A 
ATOM     21  C   UNL     1       0.231  10.067  21.341  0.00  0.00    +0.000 A 
ATOM     22  C   UNL     1       0.897   9.134  20.533  0.00  0.00    +0.000 A 
BRANCH  21  23
ATOM     23  C   UNL     1      -0.290   9.648  22.694  0.00  0.00    +0.000 C 
ATOM     24  F   UNL     1       0.693   9.451  23.618  0.00  0.00    +0.000 F 
ATOM     25  F   UNL     1      -1.129  10.572  23.239  0.00  0.00    +0.000 F 
ATOM     26  F   UNL     1      -0.993   8.484  22.646  0.00  0.00    +0.000 F 
ENDBRANCH  21  23
ENDBRANCH   2  17
TORSDOF 4
ENDMDL
MODEL 2
REMARK VINA RESULT:      -9.0      1.000      1.271
REMARK  Name = 
REMARK  5 active torsions:
REMARK  status: ('A' for Active; 'I' for Inactive)
REMARK    1  A    between atoms: C_1  and  C_2
REMARK    2  A    between atoms: N_6  and  C_7
REMARK    3  A    between atoms: C_11  and  N_12
REMARK    4  A    between atoms: C_13  and  C_15
REMARK    5  A    between atoms: C_19  and  C_20
REMARK                            x       y       z     vdW  Elec       q    Type
REMARK                         _______ _______ _______ _____ _____    ______ ____
ROOT
ATOM      1  N   UNL     1       2.084   7.464  19.075  0.00  0.00    +0.000 N 
ATOM      2  C   UNL     1       1.817   8.712  18.523  0.00  0.00    +0.000 C 
ATOM      3  O   UNL     1       2.029   9.045  17.360  0.00  0.00    +0.000 OA
ATOM      4  H   UNL     1       1.789   7.291  20.026  0.00  0.00    +0.000 HD
ENDROOT
BRANCH   1   9
ATOM      5  C   UNL     1       4.477   5.477  17.005  0.00  0.00    +0.000 A 
ATOM      6  C   UNL     1       3.876   4.216  17.021  0.00  0.00    +0.000 A 
ATOM      7  C   UNL     1       2.676   4.029  17.696  0.00  0.00    +0.000 A 
ATOM      8  C   UNL     1       2.069   5.090  18.360  0.00  0.00    +0.000 A 
ATOM      9  C   UNL     1       2.655   6.360  18.387  0.00  0.00    +0.000 A 
ATOM     10  C   UNL     1       3.870   6.546  17.706  0.00  0.00    +0.000 A 
BRANCH   5  16
ATOM     11  C   UNL     1       5.598   4.202  14.253  0.00  0.00    +0.000 C 
ATOM     12  C   UNL     1       6.299   5.027  15.263  0.00  0.00    +0.000 A 
ATOM     13  N   UNL     1       7.558   5.410  15.181  0.00  0.00    +0.000 NA
ATOM     14  N   UNL     1       7.739   6.357  16.149  0.00  0.00    +0.000 NA
ATOM     15  N   UNL     1       6.617   6.574  16.816  0.00  0.00    +0.000 NA
ATOM     16  N   UNL     1       5.723   5.666  16.356  0.00  0.00    +0.000 N 
ENDBRANCH   5  16
ENDBRANCH   1   9
BRANCH   2  17
ATOM     17  C   UNL     1       1.199   9.748  19.401  0.00  0.00    +0.000 A 
ATOM     18  C   UNL     1       0.973  11.067  19.002  0.00  0.00    +0.000 A 
ATOM     19  C   UNL     1       0.318  11.951  19.866  0.00  0.00    +0.000 A 
ATOM     20  C   UNL     1      -0.127  11.522  21.119  0.00  0.00    +0.000 A 
ATOM     21  C   UNL     1       0.075  10.200  21.532  0.00  0.00    +0.000 A 
ATOM     22  C   UNL     1       0.749   9.326  20.667  0.00  0.00    +0.000 A 
BRANCH  21  23
ATOM     23  C   UNL     1      -0.431   9.695  22.861  0.00  0.00    +0.000 C 
ATOM     24  F   UNL     1      -1.320  10.537  23.461  0.00  0.00    +0.000 F 
ATOM     25  F   UNL     1      -1.072   8.498  22.754  0.00  0.00    +0.000 F 
ATOM     26  F   UNL     1       0.569   9.505  23.764  0.00  0.00    +0.000 F 
ENDBRANCH  21  23
ENDBRANCH   2  17
TORSDOF 4
ENDMDL
MODEL 3
REMARK VINA RESULT:      -8.9      0.939      1.191
REMARK  Name = 
REMARK  5 active torsions:
REMARK  status: ('A' for Active; 'I' for Inactive)
REMARK    1  A    between atoms: C_1  and  C_2
REMARK    2  A    between atoms: N_6  and  C_7
REMARK    3  A    between atoms: C_11  and  N_12
REMARK    4  A    between atoms: C_13  and  C_15
REMARK    5  A    between atoms: C_19  and  C_20
REMARK                            x       y       z     vdW  Elec       q    Type
REMARK                         _______ _______ _______ _____ _____    ______ ____
ROOT
ATOM      1  N   UNL     1       2.333   6.784  19.935  0.00  0.00    +0.000 N 
ATOM      2  C   UNL     1       2.038   7.844  19.085  0.00  0.00    +0.000 C 
ATOM      3  O   UNL     1       2.262   7.884  17.879  0.00  0.00    +0.000 OA
ATOM      4  H   UNL     1       2.023   6.843  20.895  0.00  0.00    +0.000 HD
ENDROOT
BRANCH   1   9
ATOM      5  C   UNL     1       4.846   4.432  18.481  0.00  0.00    +0.000 A 
ATOM      6  C   UNL     1       4.274   3.194  18.782  0.00  0.00    +0.000 A 
ATOM      7  C   UNL     1       3.054   3.138  19.445  0.00  0.00    +0.000 A 
ATOM      8  C   UNL     1       2.398   4.309  19.814  0.00  0.00    +0.000 A 
ATOM      9  C   UNL     1       2.954   5.565  19.552  0.00  0.00    +0.000 A 
ATOM     10  C   UNL     1       4.190   5.620  18.884  0.00  0.00    +0.000 A 
BRANCH   5  16
ATOM     11  C   UNL     1       5.584   4.977  15.379  0.00  0.00    +0.000 C 
ATOM     12  C   UNL     1       6.464   4.579  16.502  0.00  0.00    +0.000 A 
ATOM     13  N   UNL     1       7.766   4.393  16.408  0.00  0.00    +0.000 NA
ATOM     14  N   UNL     1       8.238   4.303  17.687  0.00  0.00    +0.000 NA
ATOM     15  N   UNL     1       7.257   4.440  18.565  0.00  0.00    +0.000 NA
ATOM     16  N   UNL     1       6.112   4.499  17.844  0.00  0.00    +0.000 N 
ENDBRANCH   5  16
ENDBRANCH   1   9
BRANCH   2  17
ATOM     17  C   UNL     1       1.367   9.043  19.669  0.00  0.00    +0.000 A 
ATOM     18  C   UNL     1       1.123  10.217  18.955  0.00  0.00    +0.000 A 
ATOM     19  C   UNL     1       0.420  11.265  19.561  0.00  0.00    +0.000 A 
ATOM     20  C   UNL     1      -0.055  11.139  20.870  0.00  0.00    +0.000 A 
ATOM     21  C   UNL     1       0.165   9.964  21.597  0.00  0.00    +0.000 A 
ATOM     22  C   UNL     1       0.887   8.927  20.988  0.00  0.00    +0.000 A 
BRANCH  21  23
ATOM     23  C   UNL     1      -0.371   9.781  22.996  0.00  0.00    +0.000 C 
ATOM     24  F   UNL     1      -1.074  10.855  23.454  0.00  0.00    +0.000 F 
ATOM     25  F   UNL     1      -1.215   8.717  23.096  0.00  0.00    +0.000 F 
ATOM     26  F   UNL     1       0.615   9.565  23.909  0.00  0.00    +0.000 F 
ENDBRANCH  21  23
ENDBRANCH   2  17
TORSDOF 4
ENDMDL
MODEL 4
REMARK VINA RESULT:      -8.8      0.993      1.571
REMARK  Name = 
REMARK  5 active torsions:
REMARK  status: ('A' for Active; 'I' for Inactive)
REMARK    1  A    between atoms: C_1  and  C_2
REMARK    2  A    between atoms: N_6  and  C_7
REMARK    3  A    between atoms: C_11  and  N_12
REMARK    4  A    between atoms: C_13  and  C_15
REMARK    5  A    between atoms: C_19  and  C_20
REMARK                            x       y       z     vdW  Elec       q    Type
REMARK                         _______ _______ _______ _____ _____    ______ ____
ROOT
ATOM      1  N   UNL     1       2.100   7.107  19.001  0.00  0.00    +0.000 N 
ATOM      2  C   UNL     1       2.007   8.368  18.423  0.00  0.00    +0.000 C 
ATOM      3  O   UNL     1       2.348   8.664  17.282  0.00  0.00    +0.000 OA
ATOM      4  H   UNL     1       1.710   6.976  19.924  0.00  0.00    +0.000 HD
ENDROOT
BRANCH   1   9
ATOM      5  C   UNL     1       4.332   4.929  16.942  0.00  0.00    +0.000 A 
ATOM      6  C   UNL     1       3.725   3.681  17.103  0.00  0.00    +0.000 A 
ATOM      7  C   UNL     1       2.574   3.564  17.871  0.00  0.00    +0.000 A 
ATOM      8  C   UNL     1       2.021   4.683  18.485  0.00  0.00    +0.000 A 
ATOM      9  C   UNL     1       2.615   5.944  18.368  0.00  0.00    +0.000 A 
ATOM     10  C   UNL     1       3.782   6.059  17.593  0.00  0.00    +0.000 A 
BRANCH   5  16
ATOM     11  C   UNL     1       7.410   4.798  17.927  0.00  0.00    +0.000 C 
ATOM     12  C   UNL     1       6.859   5.150  16.597  0.00  0.00    +0.000 A 
ATOM     13  N   UNL     1       7.584   5.463  15.541  0.00  0.00    +0.000 NA
ATOM     14  N   UNL     1       6.734   5.455  14.472  0.00  0.00    +0.000 NA
ATOM     15  N   UNL     1       5.505   5.133  14.845  0.00  0.00    +0.000 NA
ATOM     16  N   UNL     1       5.532   5.049  16.196  0.00  0.00    +0.000 N 
ENDBRANCH   5  16
ENDBRANCH   1   9
BRANCH   2  17
ATOM     17  C   UNL     1       1.422   9.471  19.241  0.00  0.00    +0.000 A 
ATOM     18  C   UNL     1       1.259  10.777  18.776  0.00  0.00    +0.000 A 
ATOM     19  C   UNL     1       0.631  11.729  19.586  0.00  0.00    +0.000 A 
ATOM     20  C   UNL     1       0.151  11.381  20.852  0.00  0.00    +0.000 A 
ATOM     21  C   UNL     1       0.290  10.073  21.331  0.00  0.00    +0.000 A 
ATOM     22  C   UNL     1       0.937   9.130  20.518  0.00  0.00    +0.000 A 
BRANCH  21  23
ATOM     23  C   UNL     1      -0.255   9.654  22.674  0.00  0.00    +0.000 C 
ATOM     24  F   UNL     1      -1.104  10.568  23.225  0.00  0.00    +0.000 F 
ATOM     25  F   UNL     1      -0.958   8.489  22.612  0.00  0.00    +0.000 F 
ATOM     26  F   UNL     1       0.725   9.453  23.596  0.00  0.00    +0.000 F 
ENDBRANCH  21  23
ENDBRANCH   2  17
TORSDOF 4
ENDMDL
MODEL 5
REMARK VINA RESULT:      -8.4      1.116      1.325
REMARK  Name = 
REMARK  5 active torsions:
REMARK  status: ('A' for Active; 'I' for Inactive)
REMARK    1  A    between atoms: C_1  and  C_2
REMARK    2  A    between atoms: N_6  and  C_7
REMARK    3  A    between atoms: C_11  and  N_12
REMARK    4  A    between atoms: C_13  and  C_15
REMARK    5  A    between atoms: C_19  and  C_20
REMARK                            x       y       z     vdW  Elec       q    Type
REMARK                         _______ _______ _______ _____ _____    ______ ____
ROOT
ATOM      1  N   UNL     1       2.082   7.664  18.424  0.00  0.00    +0.000 N 
ATOM      2  C   UNL     1       1.649   8.107  19.668  0.00  0.00    +0.000 C 
ATOM      3  O   UNL     1       1.661   7.455  20.709  0.00  0.00    +0.000 OA
ATOM      4  H   UNL     1       2.095   8.326  17.660  0.00  0.00    +0.000 HD
ENDROOT
BRANCH   1   9
ATOM      5  C   UNL     1       4.566   4.962  17.724  0.00  0.00    +0.000 A 
ATOM      6  C   UNL     1       3.736   3.845  17.612  0.00  0.00    +0.000 A 
ATOM      7  C   UNL     1       2.361   3.987  17.748  0.00  0.00    +0.000 A 
ATOM      8  C   UNL     1       1.804   5.237  17.997  0.00  0.00    +0.000 A 
ATOM      9  C   UNL     1       2.606   6.374  18.142  0.00  0.00    +0.000 A 
ATOM     10  C   UNL     1       3.997   6.227  18.007  0.00  0.00    +0.000 A 
BRANCH   5  16
ATOM     11  C   UNL     1       6.457   4.689  15.115  0.00  0.00    +0.000 C 
ATOM     12  C   UNL     1       6.803   4.549  16.548  0.00  0.00    +0.000 A 
ATOM     13  N   UNL     1       8.012   4.295  17.010  0.00  0.00    +0.000 NA
ATOM     14  N   UNL     1       7.963   4.508  18.359  0.00  0.00    +0.000 NA
ATOM     15  N   UNL     1       6.756   4.897  18.735  0.00  0.00    +0.000 NA
ATOM     16  N   UNL     1       5.974   4.819  17.631  0.00  0.00    +0.000 N 
ENDBRANCH   5  16
ENDBRANCH   1   9
BRANCH   2  17
ATOM     17  C   UNL     1       1.140   9.506  19.774  0.00  0.00    +0.000 A 
ATOM     18  C   UNL     1       1.219  10.439  18.738  0.00  0.00    +0.000 A 
ATOM     19  C   UNL     1       0.648  11.706  18.900  0.00  0.00    +0.000 A 
ATOM     20  C   UNL     1      -0.016  12.041  20.084  0.00  0.00    +0.000 A 
ATOM     21  C   UNL     1      -0.121  11.115  21.128  0.00  0.00    +0.000 A 
ATOM     22  C   UNL     1       0.471   9.854  20.963  0.00  0.00    +0.000 A 
BRANCH  21  23
ATOM     23  C   UNL     1      -0.868  11.430  22.401  0.00  0.00    +0.000 C 
ATOM     24  F   UNL     1      -0.704  10.491  23.374  0.00  0.00    +0.000 F 
ATOM     25  F   UNL     1      -0.476  12.610  22.956  0.00  0.00    +0.000 F 
ATOM     26  F   UNL     1      -2.211  11.535  22.206  0.00  0.00    +0.000 F 
ENDBRANCH  21  23
ENDBRANCH   2  17
TORSDOF 4
ENDMDL
MODEL 6
REMARK VINA RESULT:      -8.4      2.125      2.584
REMARK  Name = 
REMARK  5 active torsions:
REMARK  status: ('A' for Active; 'I' for Inactive)
REMARK    1  A    between atoms: C_1  and  C_2
REMARK    2  A    between atoms: N_6  and  C_7
REMARK    3  A    between atoms: C_11  and  N_12
REMARK    4  A    between atoms: C_13  and  C_15
REMARK    5  A    between atoms: C_19  and  C_20
REMARK                            x       y       z     vdW  Elec       q    Type
REMARK                         _______ _______ _______ _____ _____    ______ ____
ROOT
ATOM      1  N   UNL     1       1.915   6.356  20.716  0.00  0.00    +0.000 N 
ATOM      2  C   UNL     1       1.800   7.594  20.095  0.00  0.00    +0.000 C 
ATOM      3  O   UNL     1       2.272   7.899  19.004  0.00  0.00    +0.000 OA
ATOM      4  H   UNL     1       1.410   6.207  21.579  0.00  0.00    +0.000 HD
ENDROOT
BRANCH   1   9
ATOM      5  C   UNL     1       4.578   4.345  19.035  0.00  0.00    +0.000 A 
ATOM      6  C   UNL     1       4.067   3.050  19.160  0.00  0.00    +0.000 A 
ATOM      7  C   UNL     1       2.841   2.846  19.778  0.00  0.00    +0.000 A 
ATOM      8  C   UNL     1       2.116   3.924  20.278  0.00  0.00    +0.000 A 
ATOM      9  C   UNL     1       2.608   5.230  20.195  0.00  0.00    +0.000 A 
ATOM     10  C   UNL     1       3.851   5.434  19.571  0.00  0.00    +0.000 A 
BRANCH   5  16
ATOM     11  C   UNL     1       5.412   4.549  15.917  0.00  0.00    +0.000 C 
ATOM     12  C   UNL     1       6.272   4.502  17.122  0.00  0.00    +0.000 A 
ATOM     13  N   UNL     1       7.590   4.559  17.109  0.00  0.00    +0.000 NA
ATOM     14  N   UNL     1       7.981   4.755  18.403  0.00  0.00    +0.000 NA
ATOM     15  N   UNL     1       6.935   4.830  19.209  0.00  0.00    +0.000 NA
ATOM     16  N   UNL     1       5.850   4.558  18.445  0.00  0.00    +0.000 N 
ENDBRANCH   5  16
ENDBRANCH   1   9
BRANCH   2  17
ATOM     17  C   UNL     1       1.016   8.656  20.792  0.00  0.00    +0.000 A 
ATOM     18  C   UNL     1       0.953   8.785  22.181  0.00  0.00    +0.000 A 
ATOM     19  C   UNL     1       0.255   9.857  22.748  0.00  0.00    +0.000 A 
ATOM     20  C   UNL     1      -0.366  10.811  21.935  0.00  0.00    +0.000 A 
ATOM     21  C   UNL     1      -0.300  10.709  20.541  0.00  0.00    +0.000 A 
ATOM     22  C   UNL     1       0.386   9.620  19.983  0.00  0.00    +0.000 A 
BRANCH  21  23
ATOM     23  C   UNL     1      -0.923  11.744  19.637  0.00  0.00    +0.000 C 
ATOM     24  F   UNL     1      -0.228  12.916  19.592  0.00  0.00    +0.000 F 
ATOM     25  F   UNL     1      -1.016  11.320  18.345  0.00  0.00    +0.000 F 
ATOM     26  F   UNL     1      -2.188  12.075  20.015  0.00  0.00    +0.000 F 
ENDBRANCH  21  23
ENDBRANCH   2  17
TORSDOF 4
ENDMDL
MODEL 7
REMARK VINA RESULT:      -8.3      1.658      2.207
REMARK  Name = 
REMARK  5 active torsions:
REMARK  status: ('A' for Active; 'I' for Inactive)
REMARK    1  A    between atoms: C_1  and  C_2
REMARK    2  A    between atoms: N_6  and  C_7
REMARK    3  A    between atoms: C_11  and  N_12
REMARK    4  A    between atoms: C_13  and  C_15
REMARK    5  A    between atoms: C_19  and  C_20
REMARK                            x       y       z     vdW  Elec       q    Type
REMARK                         _______ _______ _______ _____ _____    ______ ____
ROOT
ATOM      1  N   UNL     1       1.966   6.484  19.663  0.00  0.00    +0.000 N 
ATOM      2  C   UNL     1       1.846   7.828  19.332  0.00  0.00    +0.000 C 
ATOM      3  O   UNL     1       2.213   8.348  18.283  0.00  0.00    +0.000 OA
ATOM      4  H   UNL     1       1.551   6.166  20.528  0.00  0.00    +0.000 HD
ENDROOT
BRANCH   1   9
ATOM      5  C   UNL     1       4.540   4.562  17.754  0.00  0.00    +0.000 A 
ATOM      6  C   UNL     1       3.778   3.509  17.244  0.00  0.00    +0.000 A 
ATOM      7  C   UNL     1       2.417   3.445  17.513  0.00  0.00    +0.000 A 
ATOM      8  C   UNL     1       1.806   4.424  18.291  0.00  0.00    +0.000 A 
ATOM      9  C   UNL     1       2.543   5.479  18.840  0.00  0.00    +0.000 A 
ATOM     10  C   UNL     1       3.921   5.539  18.569  0.00  0.00    +0.000 A 
BRANCH   5  16
ATOM     11  C   UNL     1       6.171   4.923  14.984  0.00  0.00    +0.000 C 
ATOM     12  C   UNL     1       6.676   4.613  16.342  0.00  0.00    +0.000 A 
ATOM     13  N   UNL     1       7.946   4.445  16.653  0.00  0.00    +0.000 NA
ATOM     14  N   UNL     1       8.014   4.444  18.017  0.00  0.00    +0.000 NA
ATOM     15  N   UNL     1       6.816   4.619  18.552  0.00  0.00    +0.000 NA
ATOM     16  N   UNL     1       5.938   4.611  17.520  0.00  0.00    +0.000 N 
ENDBRANCH   5  16
ENDBRANCH   1   9
BRANCH   2  17
ATOM     17  C   UNL     1       1.195   8.736  20.323  0.00  0.00    +0.000 A 
ATOM     18  C   UNL     1       1.247   8.539  21.704  0.00  0.00    +0.000 A 
ATOM     19  C   UNL     1       0.672   9.482  22.563  0.00  0.00    +0.000 A 
ATOM     20  C   UNL     1       0.061  10.630  22.050  0.00  0.00    +0.000 A 
ATOM     21  C   UNL     1       0.012  10.855  20.670  0.00  0.00    +0.000 A 
ATOM     22  C   UNL     1       0.575   9.894  19.817  0.00  0.00    +0.000 A 
BRANCH  21  23
ATOM     23  C   UNL     1      -0.602  12.105  20.087  0.00  0.00    +0.000 C 
ATOM     24  F   UNL     1      -1.956  12.028  19.943  0.00  0.00    +0.000 F 
ATOM     25  F   UNL     1      -0.375  13.205  20.856  0.00  0.00    +0.000 F 
ATOM     26  F   UNL     1      -0.112  12.401  18.853  0.00  0.00    +0.000 F 
ENDBRANCH  21  23
ENDBRANCH   2  17
TORSDOF 4
ENDMDL
MODEL 8
REMARK VINA RESULT:      -8.3      3.078      3.599
REMARK  Name = 
REMARK  5 active torsions:
REMARK  status: ('A' for Active; 'I' for Inactive)
REMARK    1  A    between atoms: C_1  and  C_2
REMARK    2  A    between atoms: N_6  and  C_7
REMARK    3  A    between atoms: C_11  and  N_12
REMARK    4  A    between atoms: C_13  and  C_15
REMARK    5  A    between atoms: C_19  and  C_20
REMARK                            x       y       z     vdW  Elec       q    Type
REMARK                         _______ _______ _______ _____ _____    ______ ____
ROOT
ATOM      1  N   UNL     1       1.690   8.412  18.349  0.00  0.00    +0.000 N 
ATOM      2  C   UNL     1       1.166   9.203  19.365  0.00  0.00    +0.000 C 
ATOM      3  O   UNL     1       1.412   9.095  20.562  0.00  0.00    +0.000 OA
ATOM      4  H   UNL     1       1.469   8.655  17.393  0.00  0.00    +0.000 HD
ENDROOT
BRANCH   1   9
ATOM      5  C   UNL     1       4.662   6.206  17.833  0.00  0.00    +0.000 A 
ATOM      6  C   UNL     1       4.470   5.245  18.828  0.00  0.00    +0.000 A 
ATOM      7  C   UNL     1       3.354   5.315  19.652  0.00  0.00    +0.000 A 
ATOM      8  C   UNL     1       2.425   6.339  19.495  0.00  0.00    +0.000 A 
ATOM      9  C   UNL     1       2.598   7.333  18.526  0.00  0.00    +0.000 A 
ATOM     10  C   UNL     1       3.730   7.262  17.696  0.00  0.00    +0.000 A 
BRANCH   5  16
ATOM     11  C   UNL     1       5.398   4.250  15.365  0.00  0.00    +0.000 C 
ATOM     12  C   UNL     1       6.239   5.256  16.054  0.00  0.00    +0.000 A 
ATOM     13  N   UNL     1       7.487   5.540  15.734  0.00  0.00    +0.000 NA
ATOM     14  N   UNL     1       7.809   6.681  16.413  0.00  0.00    +0.000 NA
ATOM     15  N   UNL     1       6.785   7.111  17.133  0.00  0.00    +0.000 NA
ATOM     16  N   UNL     1       5.820   6.168  17.016  0.00  0.00    +0.000 N 
ENDBRANCH   5  16
ENDBRANCH   1   9
BRANCH   2  17
ATOM     17  C   UNL     1       0.233  10.304  18.983  0.00  0.00    +0.000 A 
ATOM     18  C   UNL     1       0.405  11.634  19.371  0.00  0.00    +0.000 A 
ATOM     19  C   UNL     1      -0.478  12.614  18.903  0.00  0.00    +0.000 A 
ATOM     20  C   UNL     1      -1.521  12.275  18.037  0.00  0.00    +0.000 A 
ATOM     21  C   UNL     1      -1.701  10.951  17.622  0.00  0.00    +0.000 A 
ATOM     22  C   UNL     1      -0.822   9.973  18.111  0.00  0.00    +0.000 A 
BRANCH  21  23
ATOM     23  C   UNL     1      -2.791  10.560  16.654  0.00  0.00    +0.000 C 
ATOM     24  F   UNL     1      -3.524   9.487  17.065  0.00  0.00    +0.000 F 
ATOM     25  F   UNL     1      -3.688  11.563  16.446  0.00  0.00    +0.000 F 
ATOM     26  F   UNL     1      -2.306  10.230  15.426  0.00  0.00    +0.000 F 
ENDBRANCH  21  23
ENDBRANCH   2  17
TORSDOF 4
ENDMDL
MODEL 9
REMARK VINA RESULT:      -8.3      2.371      2.747
REMARK  Name = 
REMARK  5 active torsions:
REMARK  status: ('A' for Active; 'I' for Inactive)
REMARK    1  A    between atoms: C_1  and  C_2
REMARK    2  A    between atoms: N_6  and  C_7
REMARK    3  A    between atoms: C_11  and  N_12
REMARK    4  A    between atoms: C_13  and  C_15
REMARK    5  A    between atoms: C_19  and  C_20
REMARK                            x       y       z     vdW  Elec       q    Type
REMARK                         _______ _______ _______ _____ _____    ______ ____
ROOT
ATOM      1  N   UNL     1       1.762   7.096  18.381  0.00  0.00    +0.000 N 
ATOM      2  C   UNL     1       2.031   8.332  17.805  0.00  0.00    +0.000 C 
ATOM      3  O   UNL     1       2.873   8.556  16.941  0.00  0.00    +0.000 OA
ATOM      4  H   UNL     1       0.987   7.029  19.026  0.00  0.00    +0.000 HD
ENDROOT
BRANCH   1   9
ATOM      5  C   UNL     1       4.533   4.681  17.704  0.00  0.00    +0.000 A 
ATOM      6  C   UNL     1       3.823   3.497  17.492  0.00  0.00    +0.000 A 
ATOM      7  C   UNL     1       2.435   3.502  17.552  0.00  0.00    +0.000 A 
ATOM      8  C   UNL     1       1.746   4.679  17.826  0.00  0.00    +0.000 A 
ATOM      9  C   UNL     1       2.424   5.878  18.070  0.00  0.00    +0.000 A 
ATOM     10  C   UNL     1       3.829   5.870  18.011  0.00  0.00    +0.000 A 
BRANCH   5  16
ATOM     11  C   UNL     1       6.580   4.515  15.206  0.00  0.00    +0.000 C 
ATOM     12  C   UNL     1       6.860   4.456  16.659  0.00  0.00    +0.000 A 
ATOM     13  N   UNL     1       8.061   4.340  17.191  0.00  0.00    +0.000 NA
ATOM     14  N   UNL     1       7.919   4.590  18.526  0.00  0.00    +0.000 NA
ATOM     15  N   UNL     1       6.660   4.869  18.826  0.00  0.00    +0.000 NA
ATOM     16  N   UNL     1       5.951   4.677  17.688  0.00  0.00    +0.000 N 
ENDBRANCH   5  16
ENDBRANCH   1   9
BRANCH   2  17
ATOM     17  C   UNL     1       1.218   9.502  18.250  0.00  0.00    +0.000 A 
ATOM     18  C   UNL     1       1.752  10.606  18.918  0.00  0.00    +0.000 A 
ATOM     19  C   UNL     1       0.928  11.693  19.231  0.00  0.00    +0.000 A 
ATOM     20  C   UNL     1      -0.421  11.691  18.865  0.00  0.00    +0.000 A 
ATOM     21  C   UNL     1      -0.972  10.602  18.181  0.00  0.00    +0.000 A 
ATOM     22  C   UNL     1      -0.142   9.509  17.888  0.00  0.00    +0.000 A 
BRANCH  21  23
ATOM     23  C   UNL     1      -2.414  10.588  17.735  0.00  0.00    +0.000 C 
ATOM     24  F   UNL     1      -2.575  10.863  16.410  0.00  0.00    +0.000 F 
ATOM     25  F   UNL     1      -3.009   9.380  17.936  0.00  0.00    +0.000 F 
ATOM     26  F   UNL     1      -3.176  11.498  18.400  0.00  0.00    +0.000 F 
ENDBRANCH  21  23
ENDBRANCH   2  17
TORSDOF 4
ENDMDL
