MODEL 1
REMARK VINA RESULT:      -8.4      0.000      0.000
REMARK  Name = 
REMARK  5 active torsions:
REMARK  status: ('A' for Active; 'I' for Inactive)
REMARK    1  A    between atoms: C_1  and  C_2
REMARK    2  A    between atoms: C_4  and  C_5
REMARK    3  A    between atoms: C_9  and  N_10
REMARK    4  A    between atoms: C_11  and  C_13
REMARK    5  A    between atoms: C_25  and  C_26
REMARK                            x       y       z     vdW  Elec       q    Type
REMARK                         _______ _______ _______ _____ _____    ______ ____
ROOT
ATOM      1  N   UNL     1       2.131   8.136  18.913  0.00  0.00    +0.000 N 
ATOM      2  C   UNL     1       2.231   6.975  19.680  0.00  0.00    +0.000 C 
ATOM      3  O   UNL     1       1.595   6.768  20.717  0.00  0.00    +0.000 OA
ATOM      4  H   UNL     1       2.802   8.237  18.153  0.00  0.00    +0.000 HD
ENDROOT
BRANCH   2   5
ATOM      5  C   UNL     1       3.093   5.840  19.214  0.00  0.00    +0.000 A 
ATOM      6  C   UNL     1       3.077   4.687  20.042  0.00  0.00    +0.000 A 
ATOM      7  C   UNL     1       3.706   3.511  19.664  0.00  0.00    +0.000 A 
ATOM      8  C   UNL     1       4.247   3.428  18.395  0.00  0.00    +0.000 A 
ATOM      9  C   UNL     1       4.305   4.575  17.585  0.00  0.00    +0.000 A 
ATOM     10  C   UNL     1       4.906   4.466  16.333  0.00  0.00    +0.000 A 
ATOM     11  C   UNL     1       5.361   5.615  15.715  0.00  0.00    +0.000 A 
ATOM     12  C   UNL     1       5.038   6.825  16.297  0.00  0.00    +0.000 A 
ATOM     13  N   UNL     1       4.198   6.966  17.357  0.00  0.00    +0.000 NA
ATOM     14  C   UNL     1       3.854   5.841  18.036  0.00  0.00    +0.000 A 
ENDBRANCH   2   5
BRANCH   1  19
ATOM     15  C   UNL     1      -0.803  10.467  18.476  0.00  0.00    +0.000 A 
ATOM     16  C   UNL     1      -0.610  11.329  19.570  0.00  0.00    +0.000 A 
ATOM     17  C   UNL     1       0.445  11.136  20.444  0.00  0.00    +0.000 A 
ATOM     18  C   UNL     1       1.336  10.086  20.231  0.00  0.00    +0.000 A 
ATOM     19  C   UNL     1       1.208   9.209  19.142  0.00  0.00    +0.000 A 
ATOM     20  C   UNL     1       0.117   9.411  18.267  0.00  0.00    +0.000 A 
BRANCH  15  24
ATOM     21  C   UNL     1      -5.215  11.991  16.904  0.00  0.00    +0.000 C 
ATOM     22  C   UNL     1      -3.880  11.356  16.896  0.00  0.00    +0.000 A 
ATOM     23  N   UNL     1      -3.049  11.435  17.983  0.00  0.00    +0.000 NA
ATOM     24  C   UNL     1      -1.973  10.748  17.640  0.00  0.00    +0.000 A 
ATOM     25  O   UNL     1      -2.030  10.223  16.373  0.00  0.00    +0.000 OA
ATOM     26  C   UNL     1      -3.262  10.614  15.907  0.00  0.00    +0.000 A 
ATOM     27  C   UNL     1      -3.675  10.188  14.565  0.00  0.00    +0.000 C 
ENDBRANCH  15  24
ENDBRANCH   1  19
TORSDOF 3
ENDMDL
MODEL 2
REMARK VINA RESULT:      -8.4      1.686      2.086
REMARK  Name = 
REMARK  5 active torsions:
REMARK  status: ('A' for Active; 'I' for Inactive)
REMARK    1  A    between atoms: C_1  and  C_2
REMARK    2  A    between atoms: C_4  and  C_5
REMARK    3  A    between atoms: C_9  and  N_10
REMARK    4  A    between atoms: C_11  and  C_13
REMARK    5  A    between atoms: C_25  and  C_26
REMARK                            x       y       z     vdW  Elec       q    Type
REMARK                         _______ _______ _______ _____ _____    ______ ____
ROOT
ATOM      1  N   UNL     1       2.097   8.520  17.801  0.00  0.00    +0.000 N 
ATOM      2  C   UNL     1       2.364   7.516  18.733  0.00  0.00    +0.000 C 
ATOM      3  O   UNL     1       2.199   7.632  19.950  0.00  0.00    +0.000 OA
ATOM      4  H   UNL     1       2.396   8.343  16.844  0.00  0.00    +0.000 HD
ENDROOT
BRANCH   2   5
ATOM      5  C   UNL     1       2.806   6.160  18.268  0.00  0.00    +0.000 A 
ATOM      6  C   UNL     1       1.932   5.092  18.598  0.00  0.00    +0.000 A 
ATOM      7  C   UNL     1       2.134   3.811  18.109  0.00  0.00    +0.000 A 
ATOM      8  C   UNL     1       3.134   3.606  17.179  0.00  0.00    +0.000 A 
ATOM      9  C   UNL     1       4.030   4.646  16.877  0.00  0.00    +0.000 A 
ATOM     10  C   UNL     1       5.059   4.387  15.975  0.00  0.00    +0.000 A 
ATOM     11  C   UNL     1       6.172   5.206  15.987  0.00  0.00    +0.000 A 
ATOM     12  C   UNL     1       6.124   6.339  16.776  0.00  0.00    +0.000 A 
ATOM     13  N   UNL     1       5.014   6.768  17.435  0.00  0.00    +0.000 NA
ATOM     14  C   UNL     1       3.968   5.906  17.524  0.00  0.00    +0.000 A 
ENDBRANCH   2   5
BRANCH   1  19
ATOM     15  C   UNL     1      -0.526  11.151  18.458  0.00  0.00    +0.000 A 
ATOM     16  C   UNL     1       0.289  12.282  18.649  0.00  0.00    +0.000 A 
ATOM     17  C   UNL     1       1.667  12.179  18.587  0.00  0.00    +0.000 A 
ATOM     18  C   UNL     1       2.257  10.945  18.317  0.00  0.00    +0.000 A 
ATOM     19  C   UNL     1       1.493   9.788  18.093  0.00  0.00    +0.000 A 
ATOM     20  C   UNL     1       0.088   9.907  18.174  0.00  0.00    +0.000 A 
BRANCH  15  24
ATOM     21  C   UNL     1      -5.363  11.318  17.550  0.00  0.00    +0.000 C 
ATOM     22  C   UNL     1      -4.073  11.505  18.246  0.00  0.00    +0.000 A 
ATOM     23  N   UNL     1      -2.906  11.008  17.726  0.00  0.00    +0.000 NA
ATOM     24  C   UNL     1      -1.968  11.375  18.582  0.00  0.00    +0.000 A 
ATOM     25  O   UNL     1      -2.444  12.081  19.659  0.00  0.00    +0.000 OA
ATOM     26  C   UNL     1      -3.796  12.165  19.429  0.00  0.00    +0.000 A 
ATOM     27  C   UNL     1      -4.629  12.899  20.388  0.00  0.00    +0.000 C 
ENDBRANCH  15  24
ENDBRANCH   1  19
TORSDOF 3
ENDMDL
MODEL 3
REMARK VINA RESULT:      -8.2      1.626      1.818
REMARK  Name = 
REMARK  5 active torsions:
REMARK  status: ('A' for Active; 'I' for Inactive)
REMARK    1  A    between atoms: C_1  and  C_2
REMARK    2  A    between atoms: C_4  and  C_5
REMARK    3  A    between atoms: C_9  and  N_10
REMARK    4  A    between atoms: C_11  and  C_13
REMARK    5  A    between atoms: C_25  and  C_26
REMARK                            x       y       z     vdW  Elec       q    Type
REMARK                         _______ _______ _______ _____ _____    ______ ____
ROOT
ATOM      1  N   UNL     1       2.082   8.584  17.853  0.00  0.00    +0.000 N 
ATOM      2  C   UNL     1       2.312   7.584  18.799  0.00  0.00    +0.000 C 
ATOM      3  O   UNL     1       2.153   7.724  20.014  0.00  0.00    +0.000 OA
ATOM      4  H   UNL     1       2.373   8.381  16.898  0.00  0.00    +0.000 HD
ENDROOT
BRANCH   2   5
ATOM      5  C   UNL     1       2.700   6.206  18.354  0.00  0.00    +0.000 A 
ATOM      6  C   UNL     1       1.796   5.174  18.716  0.00  0.00    +0.000 A 
ATOM      7  C   UNL     1       1.946   3.878  18.250  0.00  0.00    +0.000 A 
ATOM      8  C   UNL     1       2.926   3.622  17.309  0.00  0.00    +0.000 A 
ATOM      9  C   UNL     1       3.852   4.624  16.975  0.00  0.00    +0.000 A 
ATOM     10  C   UNL     1       4.858   4.314  16.064  0.00  0.00    +0.000 A 
ATOM     11  C   UNL     1       5.997   5.094  16.045  0.00  0.00    +0.000 A 
ATOM     12  C   UNL     1       6.000   6.242  16.812  0.00  0.00    +0.000 A 
ATOM     13  N   UNL     1       4.915   6.721  17.479  0.00  0.00    +0.000 NA
ATOM     14  C   UNL     1       3.842   5.898  17.598  0.00  0.00    +0.000 A 
ENDBRANCH   2   5
BRANCH   1  19
ATOM     15  C   UNL     1      -0.434  11.315  18.519  0.00  0.00    +0.000 A 
ATOM     16  C   UNL     1       0.421  12.424  18.647  0.00  0.00    +0.000 A 
ATOM     17  C   UNL     1       1.792  12.276  18.540  0.00  0.00    +0.000 A 
ATOM     18  C   UNL     1       2.334  11.016  18.288  0.00  0.00    +0.000 A 
ATOM     19  C   UNL     1       1.528   9.878  18.126  0.00  0.00    +0.000 A 
ATOM     20  C   UNL     1       0.131  10.044  18.252  0.00  0.00    +0.000 A 
BRANCH  15  24
ATOM     21  C   UNL     1      -4.789  12.651  20.390  0.00  0.00    +0.000 C 
ATOM     22  C   UNL     1      -3.789  12.121  19.440  0.00  0.00    +0.000 A 
ATOM     23  N   UNL     1      -2.449  12.156  19.726  0.00  0.00    +0.000 NA
ATOM     24  C   UNL     1      -1.864  11.588  18.686  0.00  0.00    +0.000 A 
ATOM     25  O   UNL     1      -2.739  11.185  17.708  0.00  0.00    +0.000 OA
ATOM     26  C   UNL     1      -3.973  11.526  18.205  0.00  0.00    +0.000 A 
ATOM     27  C   UNL     1      -5.165  11.201  17.414  0.00  0.00    +0.000 C 
ENDBRANCH  15  24
ENDBRANCH   1  19
TORSDOF 3
ENDMDL
MODEL 4
REMARK VINA RESULT:      -8.1      3.177      4.339
REMARK  Name = 
REMARK  5 active torsions:
REMARK  status: ('A' for Active; 'I' for Inactive)
REMARK    1  A    between atoms: C_1  and  C_2
REMARK    2  A    between atoms: C_4  and  C_5
REMARK    3  A    between atoms: C_9  and  N_10
REMARK    4  A    between atoms: C_11  and  C_13
REMARK    5  A    between atoms: C_25  and  C_26
REMARK                            x       y       z     vdW  Elec       q    Type
REMARK                         _______ _______ _______ _____ _____    ______ ____
ROOT
ATOM      1  N   UNL     1       2.060   8.410  17.791  0.00  0.00    +0.000 N 
ATOM      2  C   UNL     1       2.367   7.419  18.724  0.00  0.00    +0.000 C 
ATOM      3  O   UNL     1       2.198   7.530  19.941  0.00  0.00    +0.000 OA
ATOM      4  H   UNL     1       2.366   8.243  16.834  0.00  0.00    +0.000 HD
ENDROOT
BRANCH   2   5
ATOM      5  C   UNL     1       2.862   6.081  18.261  0.00  0.00    +0.000 A 
ATOM      6  C   UNL     1       2.040   4.977  18.608  0.00  0.00    +0.000 A 
ATOM      7  C   UNL     1       2.291   3.703  18.124  0.00  0.00    +0.000 A 
ATOM      8  C   UNL     1       3.288   3.537  17.182  0.00  0.00    +0.000 A 
ATOM      9  C   UNL     1       4.134   4.613  16.864  0.00  0.00    +0.000 A 
ATOM     10  C   UNL     1       5.163   4.394  15.951  0.00  0.00    +0.000 A 
ATOM     11  C   UNL     1       6.238   5.260  15.945  0.00  0.00    +0.000 A 
ATOM     12  C   UNL     1       6.151   6.395  16.728  0.00  0.00    +0.000 A 
ATOM     13  N   UNL     1       5.031   6.779  17.399  0.00  0.00    +0.000 NA
ATOM     14  C   UNL     1       4.025   5.873  17.505  0.00  0.00    +0.000 A 
ENDBRANCH   2   5
BRANCH   1  19
ATOM     15  C   UNL     1       1.523  12.088  18.442  0.00  0.00    +0.000 A 
ATOM     16  C   UNL     1       0.136  12.106  18.671  0.00  0.00    +0.000 A 
ATOM     17  C   UNL     1      -0.610  10.943  18.592  0.00  0.00    +0.000 A 
ATOM     18  C   UNL     1       0.021   9.736  18.295  0.00  0.00    +0.000 A 
ATOM     19  C   UNL     1       1.407   9.653  18.082  0.00  0.00    +0.000 A 
ATOM     20  C   UNL     1       2.152  10.852  18.152  0.00  0.00    +0.000 A 
BRANCH  15  24
ATOM     21  C   UNL     1       2.440  16.906  18.880  0.00  0.00    +0.000 C 
ATOM     22  C   UNL     1       2.670  15.461  18.673  0.00  0.00    +0.000 A 
ATOM     23  N   UNL     1       1.650  14.555  18.790  0.00  0.00    +0.000 NA
ATOM     24  C   UNL     1       2.201  13.384  18.519  0.00  0.00    +0.000 A 
ATOM     25  O   UNL     1       3.543  13.454  18.239  0.00  0.00    +0.000 OA
ATOM     26  C   UNL     1       3.833  14.793  18.334  0.00  0.00    +0.000 A 
ATOM     27  C   UNL     1       5.203  15.238  18.057  0.00  0.00    +0.000 C 
ENDBRANCH  15  24
ENDBRANCH   1  19
TORSDOF 3
ENDMDL
MODEL 5
REMARK VINA RESULT:      -8.1      0.663      1.198
REMARK  Name = 
REMARK  5 active torsions:
REMARK  status: ('A' for Active; 'I' for Inactive)
REMARK    1  A    between atoms: C_1  and  C_2
REMARK    2  A    between atoms: C_4  and  C_5
REMARK    3  A    between atoms: C_9  and  N_10
REMARK    4  A    between atoms: C_11  and  C_13
REMARK    5  A    between atoms: C_25  and  C_26
REMARK                            x       y       z     vdW  Elec       q    Type
REMARK                         _______ _______ _______ _____ _____    ______ ____
ROOT
ATOM      1  N   UNL     1       2.203   8.143  18.792  0.00  0.00    +0.000 N 
ATOM      2  C   UNL     1       2.280   6.992  19.576  0.00  0.00    +0.000 C 
ATOM      3  O   UNL     1       1.586   6.779  20.574  0.00  0.00    +0.000 OA
ATOM      4  H   UNL     1       2.917   8.252  18.074  0.00  0.00    +0.000 HD
ENDROOT
BRANCH   2   5
ATOM      5  C   UNL     1       3.195   5.872  19.177  0.00  0.00    +0.000 A 
ATOM      6  C   UNL     1       3.245   4.778  20.080  0.00  0.00    +0.000 A 
ATOM      7  C   UNL     1       3.928   3.612  19.773  0.00  0.00    +0.000 A 
ATOM      8  C   UNL     1       4.461   3.471  18.506  0.00  0.00    +0.000 A 
ATOM      9  C   UNL     1       4.455   4.562  17.620  0.00  0.00    +0.000 A 
ATOM     10  C   UNL     1       5.050   4.400  16.371  0.00  0.00    +0.000 A 
ATOM     11  C   UNL     1       5.440   5.525  15.673  0.00  0.00    +0.000 A 
ATOM     12  C   UNL     1       5.062   6.755  16.177  0.00  0.00    +0.000 A 
ATOM     13  N   UNL     1       4.225   6.925  17.236  0.00  0.00    +0.000 NA
ATOM     14  C   UNL     1       3.944   5.832  17.991  0.00  0.00    +0.000 A 
ENDBRANCH   2   5
BRANCH   1  19
ATOM     15  C   UNL     1      -0.816  10.332  18.216  0.00  0.00    +0.000 A 
ATOM     16  C   UNL     1      -0.645  11.277  19.244  0.00  0.00    +0.000 A 
ATOM     17  C   UNL     1       0.421  11.184  20.120  0.00  0.00    +0.000 A 
ATOM     18  C   UNL     1       1.348  10.153  19.975  0.00  0.00    +0.000 A 
ATOM     19  C   UNL     1       1.243   9.196  18.952  0.00  0.00    +0.000 A 
ATOM     20  C   UNL     1       0.140   9.297  18.074  0.00  0.00    +0.000 A 
BRANCH  15  24
ATOM     21  C   UNL     1      -3.928  10.323  14.400  0.00  0.00    +0.000 C 
ATOM     22  C   UNL     1      -3.393  10.567  15.756  0.00  0.00    +0.000 A 
ATOM     23  N   UNL     1      -2.161  10.097  16.128  0.00  0.00    +0.000 NA
ATOM     24  C   UNL     1      -2.000  10.512  17.373  0.00  0.00    +0.000 A 
ATOM     25  O   UNL     1      -3.066  11.224  17.863  0.00  0.00    +0.000 OA
ATOM     26  C   UNL     1      -3.952  11.260  16.814  0.00  0.00    +0.000 A 
ATOM     27  C   UNL     1      -5.215  11.986  16.983  0.00  0.00    +0.000 C 
ENDBRANCH  15  24
ENDBRANCH   1  19
TORSDOF 3
ENDMDL
MODEL 6
REMARK VINA RESULT:      -8.1      1.636      1.955
REMARK  Name = 
REMARK  5 active torsions:
REMARK  status: ('A' for Active; 'I' for Inactive)
REMARK    1  A    between atoms: C_1  and  C_2
REMARK    2  A    between atoms: C_4  and  C_5
REMARK    3  A    between atoms: C_9  and  N_10
REMARK    4  A    between atoms: C_11  and  C_13
REMARK    5  A    between atoms: C_25  and  C_26
REMARK                            x       y       z     vdW  Elec       q    Type
REMARK                         _______ _______ _______ _____ _____    ______ ____
ROOT
ATOM      1  N   UNL     1       1.728   8.847  18.640  0.00  0.00    +0.000 N 
ATOM      2  C   UNL     1       1.875   8.014  19.750  0.00  0.00    +0.000 C 
ATOM      3  O   UNL     1       1.593   8.337  20.907  0.00  0.00    +0.000 OA
ATOM      4  H   UNL     1       2.115   8.506  17.762  0.00  0.00    +0.000 HD
ENDROOT
BRANCH   2   5
ATOM      5  C   UNL     1       2.326   6.595  19.568  0.00  0.00    +0.000 A 
ATOM      6  C   UNL     1       1.823   5.672  20.522  0.00  0.00    +0.000 A 
ATOM      7  C   UNL     1       2.032   4.308  20.396  0.00  0.00    +0.000 A 
ATOM      8  C   UNL     1       2.634   3.835  19.245  0.00  0.00    +0.000 A 
ATOM      9  C   UNL     1       3.172   4.740  18.315  0.00  0.00    +0.000 A 
ATOM     10  C   UNL     1       3.818   4.226  17.194  0.00  0.00    +0.000 A 
ATOM     11  C   UNL     1       4.707   5.035  16.513  0.00  0.00    +0.000 A 
ATOM     12  C   UNL     1       4.774   6.365  16.882  0.00  0.00    +0.000 A 
ATOM     13  N   UNL     1       3.935   6.956  17.775  0.00  0.00    +0.000 NA
ATOM     14  C   UNL     1       3.152   6.142  18.529  0.00  0.00    +0.000 A 
ENDBRANCH   2   5
BRANCH   1  19
ATOM     15  C   UNL     1      -0.877  11.573  18.781  0.00  0.00    +0.000 A 
ATOM     16  C   UNL     1      -0.060  12.712  18.656  0.00  0.00    +0.000 A 
ATOM     17  C   UNL     1       1.314  12.590  18.552  0.00  0.00    +0.000 A 
ATOM     18  C   UNL     1       1.897  11.324  18.555  0.00  0.00    +0.000 A 
ATOM     19  C   UNL     1       1.131  10.151  18.651  0.00  0.00    +0.000 A 
ATOM     20  C   UNL     1      -0.270  10.294  18.772  0.00  0.00    +0.000 A 
BRANCH  15  24
ATOM     21  C   UNL     1      -5.276  12.911  20.543  0.00  0.00    +0.000 C 
ATOM     22  C   UNL     1      -4.255  12.359  19.627  0.00  0.00    +0.000 A 
ATOM     23  N   UNL     1      -2.920  12.429  19.927  0.00  0.00    +0.000 NA
ATOM     24  C   UNL     1      -2.312  11.828  18.919  0.00  0.00    +0.000 A 
ATOM     25  O   UNL     1      -3.168  11.371  17.948  0.00  0.00    +0.000 OA
ATOM     26  C   UNL     1      -4.414  11.711  18.416  0.00  0.00    +0.000 A 
ATOM     27  C   UNL     1      -5.591  11.334  17.625  0.00  0.00    +0.000 C 
ENDBRANCH  15  24
ENDBRANCH   1  19
TORSDOF 3
ENDMDL
MODEL 7
REMARK VINA RESULT:      -8.1      1.209      2.084
REMARK  Name = 
REMARK  5 active torsions:
REMARK  status: ('A' for Active; 'I' for Inactive)
REMARK    1  A    between atoms: C_1  and  C_2
REMARK    2  A    between atoms: C_4  and  C_5
REMARK    3  A    between atoms: C_9  and  N_10
REMARK    4  A    between atoms: C_11  and  C_13
REMARK    5  A    between atoms: C_25  and  C_26
REMARK                            x       y       z     vdW  Elec       q    Type
REMARK                         _______ _______ _______ _____ _____    ______ ____
ROOT
ATOM      1  N   UNL     1       2.168   8.343  18.112  0.00  0.00    +0.000 N 
ATOM      2  C   UNL     1       2.525   7.195  18.821  0.00  0.00    +0.000 C 
ATOM      3  O   UNL     1       2.121   6.921  19.954  0.00  0.00    +0.000 OA
ATOM      4  H   UNL     1       2.669   8.514  17.242  0.00  0.00    +0.000 HD
ENDROOT
BRANCH   2   5
ATOM      5  C   UNL     1       3.390   6.154  18.175  0.00  0.00    +0.000 A 
ATOM      6  C   UNL     1       4.618   6.629  17.647  0.00  0.00    +0.000 A 
ATOM      7  C   UNL     1       5.582   5.763  17.155  0.00  0.00    +0.000 A 
ATOM      8  C   UNL     1       5.388   4.403  17.304  0.00  0.00    +0.000 A 
ATOM      9  C   UNL     1       4.159   3.922  17.787  0.00  0.00    +0.000 A 
ATOM     10  C   UNL     1       3.980   2.543  17.873  0.00  0.00    +0.000 A 
ATOM     11  C   UNL     1       2.693   2.045  17.919  0.00  0.00    +0.000 A 
ATOM     12  C   UNL     1       1.659   2.952  18.051  0.00  0.00    +0.000 A 
ATOM     13  N   UNL     1       1.831   4.283  18.269  0.00  0.00    +0.000 NA
ATOM     14  C   UNL     1       3.081   4.787  18.100  0.00  0.00    +0.000 A 
ENDBRANCH   2   5
BRANCH   1  19
ATOM     15  C   UNL     1      -0.913  10.520  18.162  0.00  0.00    +0.000 A 
ATOM     16  C   UNL     1      -0.694  11.245  19.348  0.00  0.00    +0.000 A 
ATOM     17  C   UNL     1       0.427  11.009  20.124  0.00  0.00    +0.000 A 
ATOM     18  C   UNL     1       1.357  10.053  19.722  0.00  0.00    +0.000 A 
ATOM     19  C   UNL     1       1.204   9.317  18.536  0.00  0.00    +0.000 A 
ATOM     20  C   UNL     1       0.047   9.560  17.761  0.00  0.00    +0.000 A 
BRANCH  15  24
ATOM     21  C   UNL     1      -5.450  12.076  17.044  0.00  0.00    +0.000 C 
ATOM     22  C   UNL     1      -4.116  11.457  16.893  0.00  0.00    +0.000 A 
ATOM     23  N   UNL     1      -3.198  11.488  17.910  0.00  0.00    +0.000 NA
ATOM     24  C   UNL     1      -2.150  10.832  17.443  0.00  0.00    +0.000 A 
ATOM     25  O   UNL     1      -2.309  10.374  16.158  0.00  0.00    +0.000 OA
ATOM     26  C   UNL     1      -3.577  10.775  15.817  0.00  0.00    +0.000 A 
ATOM     27  C   UNL     1      -4.097  10.415  14.493  0.00  0.00    +0.000 C 
ENDBRANCH  15  24
ENDBRANCH   1  19
TORSDOF 3
ENDMDL
MODEL 8
REMARK VINA RESULT:      -8.1      1.653      2.134
REMARK  Name = 
REMARK  5 active torsions:
REMARK  status: ('A' for Active; 'I' for Inactive)
REMARK    1  A    between atoms: C_1  and  C_2
REMARK    2  A    between atoms: C_4  and  C_5
REMARK    3  A    between atoms: C_9  and  N_10
REMARK    4  A    between atoms: C_11  and  C_13
REMARK    5  A    between atoms: C_25  and  C_26
REMARK                            x       y       z     vdW  Elec       q    Type
REMARK                         _______ _______ _______ _____ _____    ______ ____
ROOT
ATOM      1  N   UNL     1       1.774   8.837  18.581  0.00  0.00    +0.000 N 
ATOM      2  C   UNL     1       1.935   7.994  19.681  0.00  0.00    +0.000 C 
ATOM      3  O   UNL     1       1.624   8.290  20.838  0.00  0.00    +0.000 OA
ATOM      4  H   UNL     1       2.188   8.523  17.705  0.00  0.00    +0.000 HD
ENDROOT
BRANCH   2   5
ATOM      5  C   UNL     1       2.441   6.596  19.487  0.00  0.00    +0.000 A 
ATOM      6  C   UNL     1       1.988   5.649  20.443  0.00  0.00    +0.000 A 
ATOM      7  C   UNL     1       2.251   4.295  20.307  0.00  0.00    +0.000 A 
ATOM      8  C   UNL     1       2.858   3.852  19.147  0.00  0.00    +0.000 A 
ATOM      9  C   UNL     1       3.348   4.783  18.215  0.00  0.00    +0.000 A 
ATOM     10  C   UNL     1       4.001   4.301  17.084  0.00  0.00    +0.000 A 
ATOM     11  C   UNL     1       4.848   5.148  16.397  0.00  0.00    +0.000 A 
ATOM     12  C   UNL     1       4.865   6.478  16.771  0.00  0.00    +0.000 A 
ATOM     13  N   UNL     1       4.014   7.030  17.677  0.00  0.00    +0.000 NA
ATOM     14  C   UNL     1       3.273   6.181  18.436  0.00  0.00    +0.000 A 
ENDBRANCH   2   5
BRANCH   1  19
ATOM     15  C   UNL     1      -0.935  11.462  18.648  0.00  0.00    +0.000 A 
ATOM     16  C   UNL     1      -0.155  12.633  18.620  0.00  0.00    +0.000 A 
ATOM     17  C   UNL     1       1.226  12.563  18.603  0.00  0.00    +0.000 A 
ATOM     18  C   UNL     1       1.855  11.320  18.598  0.00  0.00    +0.000 A 
ATOM     19  C   UNL     1       1.129  10.118  18.600  0.00  0.00    +0.000 A 
ATOM     20  C   UNL     1      -0.281  10.206  18.632  0.00  0.00    +0.000 A 
BRANCH  15  24
ATOM     21  C   UNL     1      -5.708  11.668  17.455  0.00  0.00    +0.000 C 
ATOM     22  C   UNL     1      -4.466  11.802  18.245  0.00  0.00    +0.000 A 
ATOM     23  N   UNL     1      -3.263  11.365  17.757  0.00  0.00    +0.000 NA
ATOM     24  C   UNL     1      -2.385  11.661  18.700  0.00  0.00    +0.000 A 
ATOM     25  O   UNL     1      -2.937  12.261  19.804  0.00  0.00    +0.000 OA
ATOM     26  C   UNL     1      -4.273  12.353  19.498  0.00  0.00    +0.000 A 
ATOM     27  C   UNL     1      -5.175  12.989  20.465  0.00  0.00    +0.000 C 
ENDBRANCH  15  24
ENDBRANCH   1  19
TORSDOF 3
ENDMDL
MODEL 9
REMARK VINA RESULT:      -8.0      3.143      4.437
REMARK  Name = 
REMARK  5 active torsions:
REMARK  status: ('A' for Active; 'I' for Inactive)
REMARK    1  A    between atoms: C_1  and  C_2
REMARK    2  A    between atoms: C_4  and  C_5
REMARK    3  A    between atoms: C_9  and  N_10
REMARK    4  A    between atoms: C_11  and  C_13
REMARK    5  A    between atoms: C_25  and  C_26
REMARK                            x       y       z     vdW  Elec       q    Type
REMARK                         _______ _______ _______ _____ _____    ______ ____
ROOT
ATOM      1  N   UNL     1       2.127   8.473  17.818  0.00  0.00    +0.000 N 
ATOM      2  C   UNL     1       2.386   7.453  18.735  0.00  0.00    +0.000 C 
ATOM      3  O   UNL     1       2.167   7.533  19.947  0.00  0.00    +0.000 OA
ATOM      4  H   UNL     1       2.471   8.328  16.870  0.00  0.00    +0.000 HD
ENDROOT
BRANCH   2   5
ATOM      5  C   UNL     1       2.887   6.123  18.256  0.00  0.00    +0.000 A 
ATOM      6  C   UNL     1       2.065   5.012  18.583  0.00  0.00    +0.000 A 
ATOM      7  C   UNL     1       2.322   3.746  18.082  0.00  0.00    +0.000 A 
ATOM      8  C   UNL     1       3.325   3.596  17.143  0.00  0.00    +0.000 A 
ATOM      9  C   UNL     1       4.170   4.678  16.845  0.00  0.00    +0.000 A 
ATOM     10  C   UNL     1       5.204   4.474  15.934  0.00  0.00    +0.000 A 
ATOM     11  C   UNL     1       6.277   5.343  15.947  0.00  0.00    +0.000 A 
ATOM     12  C   UNL     1       6.183   6.467  16.745  0.00  0.00    +0.000 A 
ATOM     13  N   UNL     1       5.059   6.838  17.415  0.00  0.00    +0.000 NA
ATOM     14  C   UNL     1       4.054   5.928  17.503  0.00  0.00    +0.000 A 
ENDBRANCH   2   5
BRANCH   1  19
ATOM     15  C   UNL     1       1.578  12.157  18.415  0.00  0.00    +0.000 A 
ATOM     16  C   UNL     1       0.205  12.164  18.718  0.00  0.00    +0.000 A 
ATOM     17  C   UNL     1      -0.529  10.992  18.705  0.00  0.00    +0.000 A 
ATOM     18  C   UNL     1       0.101   9.786  18.402  0.00  0.00    +0.000 A 
ATOM     19  C   UNL     1       1.474   9.714  18.116  0.00  0.00    +0.000 A 
ATOM     20  C   UNL     1       2.206  10.923  18.120  0.00  0.00    +0.000 A 
BRANCH  15  24
ATOM     21  C   UNL     1       4.990  15.708  18.458  0.00  0.00    +0.000 C 
ATOM     22  C   UNL     1       3.664  15.055  18.473  0.00  0.00    +0.000 A 
ATOM     23  N   UNL     1       3.541  13.696  18.347  0.00  0.00    +0.000 NA
ATOM     24  C   UNL     1       2.242  13.463  18.427  0.00  0.00    +0.000 A 
ATOM     25  O   UNL     1       1.484  14.596  18.586  0.00  0.00    +0.000 OA
ATOM     26  C   UNL     1       2.408  15.612  18.621  0.00  0.00    +0.000 A 
ATOM     27  C   UNL     1       1.935  16.987  18.819  0.00  0.00    +0.000 C 
ENDBRANCH  15  24
ENDBRANCH   1  19
TORSDOF 3
ENDMDL
