MODEL 1
REMARK VINA RESULT:      -8.3      0.000      0.000
REMARK  Name = 
REMARK  4 active torsions:
REMARK  status: ('A' for Active; 'I' for Inactive)
REMARK    1  A    between atoms: C_2  and  C_18
REMARK    2  A    between atoms: N_3  and  C_4
REMARK    3  A    between atoms: C_7  and  O_8
REMARK    4  A    between atoms: O_8  and  C_9
REMARK                            x       y       z     vdW  Elec       q    Type
REMARK                         _______ _______ _______ _____ _____    ______ ____
ROOT
ATOM      1  O   UNL     1       8.941  10.235  19.874  0.00  0.00    +0.000 OA
ATOM      2  C   UNL     1       9.027  10.439  18.672  0.00  0.00    +0.000 C 
ATOM      3  N   UNL     1       8.584   9.619  17.646  0.00  0.00    +0.000 N 
ATOM      4  H   UNL     1       8.876   9.838  16.703  0.00  0.00    +0.000 HD
ENDROOT
BRANCH   2   5
ATOM      5  C   UNL     1       9.742  11.666  18.253  0.00  0.00    +0.000 A 
ATOM      6  C   UNL     1      11.076  11.540  17.854  0.00  0.00    +0.000 A 
ATOM      7  C   UNL     1      11.754  12.681  17.491  0.00  0.00    +0.000 A 
ATOM      8  N   UNL     1      11.204  13.911  17.508  0.00  0.00    +0.000 NA
ATOM      9  C   UNL     1       9.915  14.018  17.937  0.00  0.00    +0.000 A 
ATOM     10  N   UNL     1       9.352  15.316  18.029  0.00  0.00    +0.000 N 
ATOM     11  C   UNL     1       9.947  16.499  17.674  0.00  0.00    +0.000 A 
ATOM     12  N   UNL     1       9.150  17.508  17.946  0.00  0.00    +0.000 NA
ATOM     13  C   UNL     1       8.054  16.891  18.469  0.00  0.00    +0.000 A 
ATOM     14  N   UNL     1       8.108  15.557  18.519  0.00  0.00    +0.000 NA
ATOM     15  C   UNL     1       9.146  12.923  18.313  0.00  0.00    +0.000 A 
ENDBRANCH   2   5
BRANCH   3  16
ATOM     16  C   UNL     1       7.900   8.396  17.819  0.00  0.00    +0.000 A 
ATOM     17  C   UNL     1       6.706   8.095  17.158  0.00  0.00    +0.000 A 
ATOM     18  C   UNL     1       6.044   6.891  17.393  0.00  0.00    +0.000 A 
ATOM     19  C   UNL     1       6.607   5.932  18.233  0.00  0.00    +0.000 A 
ATOM     20  C   UNL     1       7.791   6.229  18.911  0.00  0.00    +0.000 A 
ATOM     21  C   UNL     1       8.439   7.451  18.698  0.00  0.00    +0.000 A 
BRANCH  19  22
ATOM     22  O   UNL     1       6.048   4.699  18.478  0.00  0.00    +0.000 OA
BRANCH  22  23
ATOM     23  C   UNL     1       4.675   4.571  18.546  0.00  0.00    +0.000 A 
ATOM     24  C   UNL     1       3.935   4.927  19.682  0.00  0.00    +0.000 A 
ATOM     25  C   UNL     1       2.551   4.742  19.713  0.00  0.00    +0.000 A 
ATOM     26  C   UNL     1       1.887   4.262  18.587  0.00  0.00    +0.000 A 
ATOM     27  C   UNL     1       2.606   3.972  17.427  0.00  0.00    +0.000 A 
ATOM     28  C   UNL     1       3.996   4.124  17.405  0.00  0.00    +0.000 A 
ATOM     29 CL   UNL     1       4.837   3.747  15.944  0.00  0.00    +0.000 Cl
ENDBRANCH  22  23
ENDBRANCH  19  22
ENDBRANCH   3  16
TORSDOF 4
ENDMDL
MODEL 2
REMARK VINA RESULT:      -8.2      7.794      9.497
REMARK  Name = 
REMARK  4 active torsions:
REMARK  status: ('A' for Active; 'I' for Inactive)
REMARK    1  A    between atoms: C_2  and  C_18
REMARK    2  A    between atoms: N_3  and  C_4
REMARK    3  A    between atoms: C_7  and  O_8
REMARK    4  A    between atoms: O_8  and  C_9
REMARK                            x       y       z     vdW  Elec       q    Type
REMARK                         _______ _______ _______ _____ _____    ______ ____
ROOT
ATOM      1  O   UNL     1       1.349  11.163  21.529  0.00  0.00    +0.000 OA
ATOM      2  C   UNL     1       0.412  11.178  20.746  0.00  0.00    +0.000 C 
ATOM      3  N   UNL     1       0.226  10.358  19.643  0.00  0.00    +0.000 N 
ATOM      4  H   UNL     1      -0.510  10.598  18.991  0.00  0.00    +0.000 HD
ENDROOT
BRANCH   2   5
ATOM      5  C   UNL     1      -0.614  12.226  20.950  0.00  0.00    +0.000 A 
ATOM      6  C   UNL     1      -0.493  13.408  20.211  0.00  0.00    +0.000 A 
ATOM      7  C   UNL     1      -1.427  14.398  20.417  0.00  0.00    +0.000 A 
ATOM      8  N   UNL     1      -2.442  14.292  21.297  0.00  0.00    +0.000 NA
ATOM      9  C   UNL     1      -2.519  13.149  22.035  0.00  0.00    +0.000 A 
ATOM     10  N   UNL     1      -3.539  13.060  23.015  0.00  0.00    +0.000 N 
ATOM     11  C   UNL     1      -4.516  13.987  23.275  0.00  0.00    +0.000 A 
ATOM     12  N   UNL     1      -5.256  13.594  24.287  0.00  0.00    +0.000 NA
ATOM     13  C   UNL     1      -4.697  12.398  24.622  0.00  0.00    +0.000 A 
ATOM     14  N   UNL     1      -3.666  12.008  23.866  0.00  0.00    +0.000 NA
ATOM     15  C   UNL     1      -1.630  12.090  21.890  0.00  0.00    +0.000 A 
ENDBRANCH   2   5
BRANCH   3  16
ATOM     16  C   UNL     1       1.088   9.312  19.251  0.00  0.00    +0.000 A 
ATOM     17  C   UNL     1       1.436   8.258  20.101  0.00  0.00    +0.000 A 
ATOM     18  C   UNL     1       2.326   7.269  19.684  0.00  0.00    +0.000 A 
ATOM     19  C   UNL     1       2.821   7.274  18.382  0.00  0.00    +0.000 A 
ATOM     20  C   UNL     1       2.494   8.331  17.530  0.00  0.00    +0.000 A 
ATOM     21  C   UNL     1       1.625   9.339  17.960  0.00  0.00    +0.000 A 
BRANCH  19  22
ATOM     22  O   UNL     1       3.660   6.308  17.872  0.00  0.00    +0.000 OA
BRANCH  22  23
ATOM     23  C   UNL     1       3.421   4.978  18.154  0.00  0.00    +0.000 A 
ATOM     24  C   UNL     1       2.275   4.301  17.711  0.00  0.00    +0.000 A 
ATOM     25  C   UNL     1       2.064   2.965  18.056  0.00  0.00    +0.000 A 
ATOM     26  C   UNL     1       3.023   2.275  18.791  0.00  0.00    +0.000 A 
ATOM     27  C   UNL     1       4.200   2.919  19.177  0.00  0.00    +0.000 A 
ATOM     28  C   UNL     1       4.399   4.267  18.861  0.00  0.00    +0.000 A 
ATOM     29 CL   UNL     1       5.871   5.016  19.367  0.00  0.00    +0.000 Cl
ENDBRANCH  22  23
ENDBRANCH  19  22
ENDBRANCH   3  16
TORSDOF 4
ENDMDL
MODEL 3
REMARK VINA RESULT:      -8.2      7.639      9.326
REMARK  Name = 
REMARK  4 active torsions:
REMARK  status: ('A' for Active; 'I' for Inactive)
REMARK    1  A    between atoms: C_2  and  C_18
REMARK    2  A    between atoms: N_3  and  C_4
REMARK    3  A    between atoms: C_7  and  O_8
REMARK    4  A    between atoms: O_8  and  C_9
REMARK                            x       y       z     vdW  Elec       q    Type
REMARK                         _______ _______ _______ _____ _____    ______ ____
ROOT
ATOM      1  O   UNL     1      -1.176  10.453  18.384  0.00  0.00    +0.000 OA
ATOM      2  C   UNL     1      -0.499  10.946  19.274  0.00  0.00    +0.000 C 
ATOM      3  N   UNL     1       0.686  10.454  19.799  0.00  0.00    +0.000 N 
ATOM      4  H   UNL     1       1.043  10.878  20.645  0.00  0.00    +0.000 HD
ENDROOT
BRANCH   2   5
ATOM      5  C   UNL     1      -1.028  12.172  19.915  0.00  0.00    +0.000 A 
ATOM      6  C   UNL     1      -0.604  13.405  19.412  0.00  0.00    +0.000 A 
ATOM      7  C   UNL     1      -1.070  14.548  20.021  0.00  0.00    +0.000 A 
ATOM      8  N   UNL     1      -1.903  14.540  21.081  0.00  0.00    +0.000 NA
ATOM      9  C   UNL     1      -2.273  13.327  21.581  0.00  0.00    +0.000 A 
ATOM     10  N   UNL     1      -3.089  13.309  22.740  0.00  0.00    +0.000 N 
ATOM     11  C   UNL     1      -3.608  14.393  23.399  0.00  0.00    +0.000 A 
ATOM     12  N   UNL     1      -4.273  14.002  24.464  0.00  0.00    +0.000 NA
ATOM     13  C   UNL     1      -4.141  12.647  24.418  0.00  0.00    +0.000 A 
ATOM     14  N   UNL     1      -3.455  12.166  23.378  0.00  0.00    +0.000 NA
ATOM     15  C   UNL     1      -1.864  12.120  21.026  0.00  0.00    +0.000 A 
ENDBRANCH   2   5
BRANCH   3  16
ATOM     16  C   UNL     1       1.354   9.293  19.354  0.00  0.00    +0.000 A 
ATOM     17  C   UNL     1       1.567   8.181  20.172  0.00  0.00    +0.000 A 
ATOM     18  C   UNL     1       2.270   7.072  19.702  0.00  0.00    +0.000 A 
ATOM     19  C   UNL     1       2.703   7.025  18.378  0.00  0.00    +0.000 A 
ATOM     20  C   UNL     1       2.510   8.138  17.556  0.00  0.00    +0.000 A 
ATOM     21  C   UNL     1       1.831   9.262  18.039  0.00  0.00    +0.000 A 
BRANCH  19  22
ATOM     22  O   UNL     1       3.355   5.951  17.818  0.00  0.00    +0.000 OA
BRANCH  22  23
ATOM     23  C   UNL     1       3.004   4.668  18.191  0.00  0.00    +0.000 A 
ATOM     24  C   UNL     1       1.760   4.100  17.879  0.00  0.00    +0.000 A 
ATOM     25  C   UNL     1       1.441   2.812  18.313  0.00  0.00    +0.000 A 
ATOM     26  C   UNL     1       2.383   2.057  19.006  0.00  0.00    +0.000 A 
ATOM     27  C   UNL     1       3.649   2.586  19.260  0.00  0.00    +0.000 A 
ATOM     28  C   UNL     1       3.959   3.889  18.856  0.00  0.00    +0.000 A 
ATOM     29 CL   UNL     1       5.539   4.497  19.200  0.00  0.00    +0.000 Cl
ENDBRANCH  22  23
ENDBRANCH  19  22
ENDBRANCH   3  16
TORSDOF 4
ENDMDL
MODEL 4
REMARK VINA RESULT:      -8.2      0.861      1.291
REMARK  Name = 
REMARK  4 active torsions:
REMARK  status: ('A' for Active; 'I' for Inactive)
REMARK    1  A    between atoms: C_2  and  C_18
REMARK    2  A    between atoms: N_3  and  C_4
REMARK    3  A    between atoms: C_7  and  O_8
REMARK    4  A    between atoms: O_8  and  C_9
REMARK                            x       y       z     vdW  Elec       q    Type
REMARK                         _______ _______ _______ _____ _____    ______ ____
ROOT
ATOM      1  O   UNL     1       8.944   9.729  19.850  0.00  0.00    +0.000 OA
ATOM      2  C   UNL     1       8.894   9.999  18.659  0.00  0.00    +0.000 C 
ATOM      3  N   UNL     1       8.333   9.236  17.647  0.00  0.00    +0.000 N 
ATOM      4  H   UNL     1       8.517   9.507  16.689  0.00  0.00    +0.000 HD
ENDROOT
BRANCH   2   5
ATOM      5  C   UNL     1       9.562  11.249  18.229  0.00  0.00    +0.000 A 
ATOM      6  C   UNL     1      10.891  11.164  17.803  0.00  0.00    +0.000 A 
ATOM      7  C   UNL     1      11.527  12.327  17.429  0.00  0.00    +0.000 A 
ATOM      8  N   UNL     1      10.939  13.539  17.461  0.00  0.00    +0.000 NA
ATOM      9  C   UNL     1       9.657  13.606  17.916  0.00  0.00    +0.000 A 
ATOM     10  N   UNL     1       9.056  14.885  18.023  0.00  0.00    +0.000 N 
ATOM     11  C   UNL     1       9.607  16.087  17.661  0.00  0.00    +0.000 A 
ATOM     12  N   UNL     1       8.785  17.070  17.952  0.00  0.00    +0.000 NA
ATOM     13  C   UNL     1       7.719  16.419  18.494  0.00  0.00    +0.000 A 
ATOM     14  N   UNL     1       7.815  15.087  18.539  0.00  0.00    +0.000 NA
ATOM     15  C   UNL     1       8.929  12.486  18.304  0.00  0.00    +0.000 A 
ENDBRANCH   2   5
BRANCH   3  16
ATOM     16  C   UNL     1       7.668   8.004  17.828  0.00  0.00    +0.000 A 
ATOM     17  C   UNL     1       8.148   7.002  18.676  0.00  0.00    +0.000 A 
ATOM     18  C   UNL     1       7.479   5.784  18.790  0.00  0.00    +0.000 A 
ATOM     19  C   UNL     1       6.275   5.578  18.119  0.00  0.00    +0.000 A 
ATOM     20  C   UNL     1       5.796   6.566  17.257  0.00  0.00    +0.000 A 
ATOM     21  C   UNL     1       6.484   7.776  17.119  0.00  0.00    +0.000 A 
BRANCH  19  22
ATOM     22  O   UNL     1       5.524   4.429  18.219  0.00  0.00    +0.000 OA
BRANCH  22  23
ATOM     23  C   UNL     1       4.298   4.466  18.854  0.00  0.00    +0.000 A 
ATOM     24  C   UNL     1       3.848   5.584  19.571  0.00  0.00    +0.000 A 
ATOM     25  C   UNL     1       2.616   5.555  20.228  0.00  0.00    +0.000 A 
ATOM     26  C   UNL     1       1.795   4.436  20.120  0.00  0.00    +0.000 A 
ATOM     27  C   UNL     1       2.203   3.346  19.350  0.00  0.00    +0.000 A 
ATOM     28  C   UNL     1       3.451   3.359  18.719  0.00  0.00    +0.000 A 
ATOM     29 CL   UNL     1       3.908   1.981  17.782  0.00  0.00    +0.000 Cl
ENDBRANCH  22  23
ENDBRANCH  19  22
ENDBRANCH   3  16
TORSDOF 4
ENDMDL
MODEL 5
REMARK VINA RESULT:      -8.2      7.103      8.676
REMARK  Name = 
REMARK  4 active torsions:
REMARK  status: ('A' for Active; 'I' for Inactive)
REMARK    1  A    between atoms: C_2  and  C_18
REMARK    2  A    between atoms: N_3  and  C_4
REMARK    3  A    between atoms: C_7  and  O_8
REMARK    4  A    between atoms: O_8  and  C_9
REMARK                            x       y       z     vdW  Elec       q    Type
REMARK                         _______ _______ _______ _____ _____    ______ ____
ROOT
ATOM      1  O   UNL     1       1.506   9.142  19.051  0.00  0.00    +0.000 OA
ATOM      2  C   UNL     1       1.402   8.625  20.154  0.00  0.00    +0.000 C 
ATOM      3  N   UNL     1       1.868   7.380  20.544  0.00  0.00    +0.000 N 
ATOM      4  H   UNL     1       1.561   7.016  21.437  0.00  0.00    +0.000 HD
ENDROOT
BRANCH   2   5
ATOM      5  C   UNL     1       0.639   9.378  21.175  0.00  0.00    +0.000 A 
ATOM      6  C   UNL     1       0.756   8.969  22.508  0.00  0.00    +0.000 A 
ATOM      7  C   UNL     1       0.027   9.646  23.459  0.00  0.00    +0.000 A 
ATOM      8  N   UNL     1      -0.798  10.673  23.173  0.00  0.00    +0.000 NA
ATOM      9  C   UNL     1      -0.928  11.030  21.864  0.00  0.00    +0.000 A 
ATOM     10  N   UNL     1      -1.849  12.060  21.545  0.00  0.00    +0.000 N 
ATOM     11  C   UNL     1      -2.601  12.794  22.426  0.00  0.00    +0.000 A 
ATOM     12  N   UNL     1      -3.383  13.624  21.773  0.00  0.00    +0.000 NA
ATOM     13  C   UNL     1      -3.072  13.369  20.472  0.00  0.00    +0.000 A 
ATOM     14  N   UNL     1      -2.126  12.446  20.273  0.00  0.00    +0.000 NA
ATOM     15  C   UNL     1      -0.225  10.414  20.835  0.00  0.00    +0.000 A 
ENDBRANCH   2   5
BRANCH   3  16
ATOM     16  C   UNL     1       2.598   6.490  19.728  0.00  0.00    +0.000 A 
ATOM     17  C   UNL     1       3.060   6.835  18.455  0.00  0.00    +0.000 A 
ATOM     18  C   UNL     1       3.741   5.908  17.666  0.00  0.00    +0.000 A 
ATOM     19  C   UNL     1       4.041   4.644  18.170  0.00  0.00    +0.000 A 
ATOM     20  C   UNL     1       3.569   4.282  19.434  0.00  0.00    +0.000 A 
ATOM     21  C   UNL     1       2.860   5.204  20.212  0.00  0.00    +0.000 A 
BRANCH  19  22
ATOM     22  O   UNL     1       4.753   3.689  17.482  0.00  0.00    +0.000 OA
BRANCH  22  23
ATOM     23  C   UNL     1       5.455   4.045  16.347  0.00  0.00    +0.000 A 
ATOM     24  C   UNL     1       4.909   3.956  15.058  0.00  0.00    +0.000 A 
ATOM     25  C   UNL     1       5.675   4.293  13.940  0.00  0.00    +0.000 A 
ATOM     26  C   UNL     1       6.967   4.783  14.103  0.00  0.00    +0.000 A 
ATOM     27  C   UNL     1       7.494   4.944  15.385  0.00  0.00    +0.000 A 
ATOM     28  C   UNL     1       6.742   4.574  16.505  0.00  0.00    +0.000 A 
ATOM     29 CL   UNL     1       7.444   4.790  18.069  0.00  0.00    +0.000 Cl
ENDBRANCH  22  23
ENDBRANCH  19  22
ENDBRANCH   3  16
TORSDOF 4
ENDMDL
MODEL 6
REMARK VINA RESULT:      -8.2      7.831      9.519
REMARK  Name = 
REMARK  4 active torsions:
REMARK  status: ('A' for Active; 'I' for Inactive)
REMARK    1  A    between atoms: C_2  and  C_18
REMARK    2  A    between atoms: N_3  and  C_4
REMARK    3  A    between atoms: C_7  and  O_8
REMARK    4  A    between atoms: O_8  and  C_9
REMARK                            x       y       z     vdW  Elec       q    Type
REMARK                         _______ _______ _______ _____ _____    ______ ____
ROOT
ATOM      1  O   UNL     1      -1.303  10.304  19.388  0.00  0.00    +0.000 OA
ATOM      2  C   UNL     1      -0.449  10.785  20.117  0.00  0.00    +0.000 C 
ATOM      3  N   UNL     1       0.853  10.341  20.292  0.00  0.00    +0.000 N 
ATOM      4  H   UNL     1       1.391  10.735  21.053  0.00  0.00    +0.000 HD
ENDROOT
BRANCH   2   5
ATOM      5  C   UNL     1      -0.858  11.931  20.961  0.00  0.00    +0.000 A 
ATOM      6  C   UNL     1       0.141  12.807  21.398  0.00  0.00    +0.000 A 
ATOM      7  C   UNL     1      -0.229  13.858  22.206  0.00  0.00    +0.000 A 
ATOM      8  N   UNL     1      -1.497  14.081  22.605  0.00  0.00    +0.000 NA
ATOM      9  C   UNL     1      -2.449  13.193  22.200  0.00  0.00    +0.000 A 
ATOM     10  N   UNL     1      -3.772  13.377  22.674  0.00  0.00    +0.000 N 
ATOM     11  C   UNL     1      -4.229  14.400  23.465  0.00  0.00    +0.000 A 
ATOM     12  N   UNL     1      -5.499  14.219  23.753  0.00  0.00    +0.000 NA
ATOM     13  C   UNL     1      -5.791  13.058  23.102  0.00  0.00    +0.000 A 
ATOM     14  N   UNL     1      -4.787  12.514  22.407  0.00  0.00    +0.000 NA
ATOM     15  C   UNL     1      -2.174  12.109  21.374  0.00  0.00    +0.000 A 
ENDBRANCH   2   5
BRANCH   3  16
ATOM     16  C   UNL     1       1.443   9.256  19.609  0.00  0.00    +0.000 A 
ATOM     17  C   UNL     1       1.777   9.306  18.252  0.00  0.00    +0.000 A 
ATOM     18  C   UNL     1       2.318   8.194  17.609  0.00  0.00    +0.000 A 
ATOM     19  C   UNL     1       2.609   7.038  18.331  0.00  0.00    +0.000 A 
ATOM     20  C   UNL     1       2.263   6.971  19.683  0.00  0.00    +0.000 A 
ATOM     21  C   UNL     1       1.691   8.078  20.319  0.00  0.00    +0.000 A 
BRANCH  19  22
ATOM     22  O   UNL     1       3.192   5.916  17.788  0.00  0.00    +0.000 OA
BRANCH  22  23
ATOM     23  C   UNL     1       2.813   4.665  18.232  0.00  0.00    +0.000 A 
ATOM     24  C   UNL     1       1.548   4.117  17.973  0.00  0.00    +0.000 A 
ATOM     25  C   UNL     1       1.202   2.863  18.479  0.00  0.00    +0.000 A 
ATOM     26  C   UNL     1       2.136   2.117  19.192  0.00  0.00    +0.000 A 
ATOM     27  C   UNL     1       3.421   2.622  19.394  0.00  0.00    +0.000 A 
ATOM     28  C   UNL     1       3.759   3.893  18.918  0.00  0.00    +0.000 A 
ATOM     29 CL   UNL     1       5.363   4.472  19.201  0.00  0.00    +0.000 Cl
ENDBRANCH  22  23
ENDBRANCH  19  22
ENDBRANCH   3  16
TORSDOF 4
ENDMDL
MODEL 7
REMARK VINA RESULT:      -8.1      8.021     11.302
REMARK  Name = 
REMARK  4 active torsions:
REMARK  status: ('A' for Active; 'I' for Inactive)
REMARK    1  A    between atoms: C_2  and  C_18
REMARK    2  A    between atoms: N_3  and  C_4
REMARK    3  A    between atoms: C_7  and  O_8
REMARK    4  A    between atoms: O_8  and  C_9
REMARK                            x       y       z     vdW  Elec       q    Type
REMARK                         _______ _______ _______ _____ _____    ______ ____
ROOT
ATOM      1  O   UNL     1       2.236   9.724  17.428  0.00  0.00    +0.000 OA
ATOM      2  C   UNL     1       2.029   8.822  18.226  0.00  0.00    +0.000 C 
ATOM      3  N   UNL     1       1.225   8.868  19.355  0.00  0.00    +0.000 N 
ATOM      4  H   UNL     1       1.284   8.100  20.011  0.00  0.00    +0.000 HD
ENDROOT
BRANCH   2   5
ATOM      5  C   UNL     1       2.764   7.555  18.009  0.00  0.00    +0.000 A 
ATOM      6  C   UNL     1       3.966   7.613  17.297  0.00  0.00    +0.000 A 
ATOM      7  C   UNL     1       4.640   6.435  17.067  0.00  0.00    +0.000 A 
ATOM      8  N   UNL     1       4.197   5.232  17.482  0.00  0.00    +0.000 NA
ATOM      9  C   UNL     1       3.004   5.192  18.139  0.00  0.00    +0.000 A 
ATOM     10  N   UNL     1       2.495   3.923  18.514  0.00  0.00    +0.000 N 
ATOM     11  C   UNL     1       3.104   2.707  18.339  0.00  0.00    +0.000 A 
ATOM     12  N   UNL     1       2.317   1.741  18.759  0.00  0.00    +0.000 NA
ATOM     13  C   UNL     1       1.219   2.418  19.198  0.00  0.00    +0.000 A 
ATOM     14  N   UNL     1       1.281   3.749  19.099  0.00  0.00    +0.000 NA
ATOM     15  C   UNL     1       2.258   6.329  18.429  0.00  0.00    +0.000 A 
ENDBRANCH   2   5
BRANCH   3  16
ATOM     16  C   UNL     1       0.455   9.979  19.762  0.00  0.00    +0.000 A 
ATOM     17  C   UNL     1       0.801  10.782  20.852  0.00  0.00    +0.000 A 
ATOM     18  C   UNL     1      -0.014  11.843  21.244  0.00  0.00    +0.000 A 
ATOM     19  C   UNL     1      -1.148  12.168  20.503  0.00  0.00    +0.000 A 
ATOM     20  C   UNL     1      -1.513  11.361  19.423  0.00  0.00    +0.000 A 
ATOM     21  C   UNL     1      -0.710  10.278  19.050  0.00  0.00    +0.000 A 
BRANCH  19  22
ATOM     22  O   UNL     1      -1.977  13.230  20.787  0.00  0.00    +0.000 OA
BRANCH  22  23
ATOM     23  C   UNL     1      -2.907  13.118  21.802  0.00  0.00    +0.000 A 
ATOM     24  C   UNL     1      -2.568  13.230  23.158  0.00  0.00    +0.000 A 
ATOM     25  C   UNL     1      -3.541  13.071  24.147  0.00  0.00    +0.000 A 
ATOM     26  C   UNL     1      -4.870  12.865  23.789  0.00  0.00    +0.000 A 
ATOM     27  C   UNL     1      -5.229  12.823  22.442  0.00  0.00    +0.000 A 
ATOM     28  C   UNL     1      -4.251  12.948  21.450  0.00  0.00    +0.000 A 
ATOM     29 CL   UNL     1      -4.751  12.885  19.797  0.00  0.00    +0.000 Cl
ENDBRANCH  22  23
ENDBRANCH  19  22
ENDBRANCH   3  16
TORSDOF 4
ENDMDL
MODEL 8
REMARK VINA RESULT:      -8.1      7.647      9.240
REMARK  Name = 
REMARK  4 active torsions:
REMARK  status: ('A' for Active; 'I' for Inactive)
REMARK    1  A    between atoms: C_2  and  C_18
REMARK    2  A    between atoms: N_3  and  C_4
REMARK    3  A    between atoms: C_7  and  O_8
REMARK    4  A    between atoms: O_8  and  C_9
REMARK                            x       y       z     vdW  Elec       q    Type
REMARK                         _______ _______ _______ _____ _____    ______ ____
ROOT
ATOM      1  O   UNL     1       1.184  11.527  21.591  0.00  0.00    +0.000 OA
ATOM      2  C   UNL     1       0.110  11.308  21.050  0.00  0.00    +0.000 C 
ATOM      3  N   UNL     1      -0.170  10.338  20.100  0.00  0.00    +0.000 N 
ATOM      4  H   UNL     1      -1.059  10.386  19.620  0.00  0.00    +0.000 HD
ENDROOT
BRANCH   2   5
ATOM      5  C   UNL     1      -1.009  12.215  21.394  0.00  0.00    +0.000 A 
ATOM      6  C   UNL     1      -2.081  12.295  20.499  0.00  0.00    +0.000 A 
ATOM      7  C   UNL     1      -3.111  13.158  20.799  0.00  0.00    +0.000 A 
ATOM      8  N   UNL     1      -3.136  13.934  21.900  0.00  0.00    +0.000 NA
ATOM      9  C   UNL     1      -2.063  13.870  22.739  0.00  0.00    +0.000 A 
ATOM     10  N   UNL     1      -2.047  14.736  23.861  0.00  0.00    +0.000 N 
ATOM     11  C   UNL     1      -3.032  15.610  24.242  0.00  0.00    +0.000 A 
ATOM     12  N   UNL     1      -2.651  16.290  25.301  0.00  0.00    +0.000 NA
ATOM     13  C   UNL     1      -1.409  15.789  25.548  0.00  0.00    +0.000 A 
ATOM     14  N   UNL     1      -0.999  14.822  24.722  0.00  0.00    +0.000 NA
ATOM     15  C   UNL     1      -0.983  13.021  22.528  0.00  0.00    +0.000 A 
ENDBRANCH   2   5
BRANCH   3  16
ATOM     16  C   UNL     1       0.751   9.386  19.613  0.00  0.00    +0.000 A 
ATOM     17  C   UNL     1       1.284   8.369  20.410  0.00  0.00    +0.000 A 
ATOM     18  C   UNL     1       2.224   7.477  19.896  0.00  0.00    +0.000 A 
ATOM     19  C   UNL     1       2.587   7.537  18.552  0.00  0.00    +0.000 A 
ATOM     20  C   UNL     1       2.074   8.560  17.751  0.00  0.00    +0.000 A 
ATOM     21  C   UNL     1       1.155   9.473  18.276  0.00  0.00    +0.000 A 
BRANCH  19  22
ATOM     22  O   UNL     1       3.465   6.664  17.952  0.00  0.00    +0.000 OA
BRANCH  22  23
ATOM     23  C   UNL     1       3.144   5.324  17.865  0.00  0.00    +0.000 A 
ATOM     24  C   UNL     1       1.824   4.854  17.913  0.00  0.00    +0.000 A 
ATOM     25  C   UNL     1       1.556   3.485  17.860  0.00  0.00    +0.000 A 
ATOM     26  C   UNL     1       2.598   2.578  17.692  0.00  0.00    +0.000 A 
ATOM     27  C   UNL     1       3.909   3.039  17.572  0.00  0.00    +0.000 A 
ATOM     28  C   UNL     1       4.184   4.408  17.659  0.00  0.00    +0.000 A 
ATOM     29 CL   UNL     1       5.825   4.924  17.508  0.00  0.00    +0.000 Cl
ENDBRANCH  22  23
ENDBRANCH  19  22
ENDBRANCH   3  16
TORSDOF 4
ENDMDL
MODEL 9
REMARK VINA RESULT:      -8.0      7.859      9.576
REMARK  Name = 
REMARK  4 active torsions:
REMARK  status: ('A' for Active; 'I' for Inactive)
REMARK    1  A    between atoms: C_2  and  C_18
REMARK    2  A    between atoms: N_3  and  C_4
REMARK    3  A    between atoms: C_7  and  O_8
REMARK    4  A    between atoms: O_8  and  C_9
REMARK                            x       y       z     vdW  Elec       q    Type
REMARK                         _______ _______ _______ _____ _____    ______ ____
ROOT
ATOM      1  O   UNL     1      -0.391   9.588  22.115  0.00  0.00    +0.000 OA
ATOM      2  C   UNL     1      -0.160  10.506  21.341  0.00  0.00    +0.000 C 
ATOM      3  N   UNL     1       0.604  10.459  20.186  0.00  0.00    +0.000 N 
ATOM      4  H   UNL     1       0.846  11.334  19.740  0.00  0.00    +0.000 HD
ENDROOT
BRANCH   2   5
ATOM      5  C   UNL     1      -0.699  11.837  21.704  0.00  0.00    +0.000 A 
ATOM      6  C   UNL     1       0.179  12.925  21.675  0.00  0.00    +0.000 A 
ATOM      7  C   UNL     1      -0.309  14.160  22.039  0.00  0.00    +0.000 A 
ATOM      8  N   UNL     1      -1.581  14.372  22.428  0.00  0.00    +0.000 NA
ATOM      9  C   UNL     1      -2.410  13.292  22.487  0.00  0.00    +0.000 A 
ATOM     10  N   UNL     1      -3.729  13.494  22.966  0.00  0.00    +0.000 N 
ATOM     11  C   UNL     1      -4.300  14.685  23.333  0.00  0.00    +0.000 A 
ATOM     12  N   UNL     1      -5.520  14.486  23.778  0.00  0.00    +0.000 NA
ATOM     13  C   UNL     1      -5.666  13.137  23.661  0.00  0.00    +0.000 A 
ATOM     14  N   UNL     1      -4.620  12.484  23.147  0.00  0.00    +0.000 NA
ATOM     15  C   UNL     1      -2.013  12.009  22.129  0.00  0.00    +0.000 A 
ENDBRANCH   2   5
BRANCH   3  16
ATOM     16  C   UNL     1       1.228   9.303  19.668  0.00  0.00    +0.000 A 
ATOM     17  C   UNL     1       1.590   8.215  20.466  0.00  0.00    +0.000 A 
ATOM     18  C   UNL     1       2.243   7.112  19.917  0.00  0.00    +0.000 A 
ATOM     19  C   UNL     1       2.474   7.045  18.544  0.00  0.00    +0.000 A 
ATOM     20  C   UNL     1       2.132   8.135  17.740  0.00  0.00    +0.000 A 
ATOM     21  C   UNL     1       1.505   9.254  18.298  0.00  0.00    +0.000 A 
BRANCH  19  22
ATOM     22  O   UNL     1       3.062   5.973  17.913  0.00  0.00    +0.000 OA
BRANCH  22  23
ATOM     23  C   UNL     1       2.740   4.689  18.304  0.00  0.00    +0.000 A 
ATOM     24  C   UNL     1       1.485   4.113  18.060  0.00  0.00    +0.000 A 
ATOM     25  C   UNL     1       1.197   2.823  18.511  0.00  0.00    +0.000 A 
ATOM     26  C   UNL     1       2.180   2.074  19.150  0.00  0.00    +0.000 A 
ATOM     27  C   UNL     1       3.454   2.611  19.335  0.00  0.00    +0.000 A 
ATOM     28  C   UNL     1       3.735   3.915  18.915  0.00  0.00    +0.000 A 
ATOM     29 CL   UNL     1       5.328   4.532  19.172  0.00  0.00    +0.000 Cl
ENDBRANCH  22  23
ENDBRANCH  19  22
ENDBRANCH   3  16
TORSDOF 4
ENDMDL
