MODEL 1
REMARK VINA RESULT:      -8.3      0.000      0.000
REMARK  Name = 
REMARK  6 active torsions:
REMARK  status: ('A' for Active; 'I' for Inactive)
REMARK    1  A    between atoms: C_1  and  C_2
REMARK    2  A    between atoms: C_2  and  C_3
REMARK    3  A    between atoms: C_2  and  C_7
REMARK    4  A    between atoms: C_3  and  C_4
REMARK    5  A    between atoms: C_11  and  N_12
REMARK    6  A    between atoms: C_17  and  C_18
REMARK                            x       y       z     vdW  Elec       q    Type
REMARK                         _______ _______ _______ _____ _____    ______ ____
ROOT
ATOM      1  N   UNL     1       4.891   4.763  16.331  0.00  0.00    +0.000 N 
ATOM      2  C   UNL     1       5.935   4.033  17.094  0.00  0.00    +0.000 C 
ATOM      3  C   UNL     1       6.855   5.144  17.483  0.00  0.00    +0.000 A 
ATOM      4  C   UNL     1       7.493   5.383  18.685  0.00  0.00    +0.000 A 
ATOM      5  C   UNL     1       8.020   6.662  18.902  0.00  0.00    +0.000 A 
ATOM      6  C   UNL     1       7.926   7.679  17.916  0.00  0.00    +0.000 A 
ATOM      7  C   UNL     1       7.293   7.405  16.692  0.00  0.00    +0.000 A 
ATOM      8  C   UNL     1       6.749   6.147  16.519  0.00  0.00    +0.000 A 
ATOM      9  C   UNL     1       5.581   5.815  15.670  0.00  0.00    +0.000 C 
ATOM     10  O   UNL     1       5.213   6.486  14.724  0.00  0.00    +0.000 OA
ENDROOT
BRANCH   1  15
ATOM     11  C   UNL     1       2.611   4.370  19.178  0.00  0.00    +0.000 A 
ATOM     12  C   UNL     1       2.868   5.600  19.805  0.00  0.00    +0.000 A 
ATOM     13  C   UNL     1       3.428   6.658  19.093  0.00  0.00    +0.000 A 
ATOM     14  C   UNL     1       3.836   6.473  17.781  0.00  0.00    +0.000 A 
ATOM     15  C   UNL     1       3.822   5.180  17.232  0.00  0.00    +0.000 A 
ATOM     16  C   UNL     1       3.082   4.179  17.872  0.00  0.00    +0.000 A 
BRANCH  11  18
ATOM     17  C   UNL     1       1.275   2.203  19.063  0.00  0.00    +0.000 C 
ATOM     18  C   UNL     1       1.907   3.272  19.961  0.00  0.00    +0.000 C 
BRANCH  18  19
ATOM     19  C   UNL     1       2.781   2.679  21.086  0.00  0.00    +0.000 C 
BRANCH  19  20
ATOM     20  C   UNL     1       4.085   2.224  20.681  0.00  0.00    +0.000 C 
ATOM     21  N   UNL     1       5.154   1.705  21.123  0.00  0.00    +0.000 NA
ATOM     22  N   UNL     1       4.849   1.723  19.717  0.00  0.00    +0.000 N 
ATOM     23  H   UNL     1       5.526   2.321  19.245  0.00  0.00    +0.000 HD
ENDBRANCH  19  20
ENDBRANCH  18  19
ENDBRANCH  11  18
ENDBRANCH   1  15
BRANCH   6  24
ATOM     24  C   UNL     1       8.396   9.087  18.207  0.00  0.00    +0.000 C 
ATOM     25  F   UNL     1       9.317   9.545  17.316  0.00  0.00    +0.000 F 
ATOM     26  F   UNL     1       7.371   9.987  18.186  0.00  0.00    +0.000 F 
ATOM     27  F   UNL     1       8.970   9.185  19.432  0.00  0.00    +0.000 F 
ENDBRANCH   6  24
TORSDOF 5
ENDMDL
MODEL 2
REMARK VINA RESULT:      -8.1      1.197      1.560
REMARK  Name = 
REMARK  6 active torsions:
REMARK  status: ('A' for Active; 'I' for Inactive)
REMARK    1  A    between atoms: C_1  and  C_2
REMARK    2  A    between atoms: C_2  and  C_3
REMARK    3  A    between atoms: C_2  and  C_7
REMARK    4  A    between atoms: C_3  and  C_4
REMARK    5  A    between atoms: C_11  and  N_12
REMARK    6  A    between atoms: C_17  and  C_18
REMARK                            x       y       z     vdW  Elec       q    Type
REMARK                         _______ _______ _______ _____ _____    ______ ____
ROOT
ATOM      1  N   UNL     1       5.244   4.561  16.346  0.00  0.00    +0.000 N 
ATOM      2  C   UNL     1       6.070   3.975  17.432  0.00  0.00    +0.000 C 
ATOM      3  C   UNL     1       6.937   5.131  17.810  0.00  0.00    +0.000 A 
ATOM      4  C   UNL     1       7.317   5.580  19.060  0.00  0.00    +0.000 A 
ATOM      5  C   UNL     1       7.843   6.874  19.157  0.00  0.00    +0.000 A 
ATOM      6  C   UNL     1       8.006   7.696  18.012  0.00  0.00    +0.000 A 
ATOM      7  C   UNL     1       7.632   7.210  16.748  0.00  0.00    +0.000 A 
ATOM      8  C   UNL     1       7.082   5.945  16.685  0.00  0.00    +0.000 A 
ATOM      9  C   UNL     1       6.105   5.472  15.676  0.00  0.00    +0.000 C 
ATOM     10  O   UNL     1       5.975   5.964  14.570  0.00  0.00    +0.000 OA
ENDROOT
BRANCH   1  15
ATOM     11  C   UNL     1       2.207   4.546  18.403  0.00  0.00    +0.000 A 
ATOM     12  C   UNL     1       2.440   5.740  19.104  0.00  0.00    +0.000 A 
ATOM     13  C   UNL     1       3.324   6.695  18.608  0.00  0.00    +0.000 A 
ATOM     14  C   UNL     1       4.064   6.430  17.466  0.00  0.00    +0.000 A 
ATOM     15  C   UNL     1       4.030   5.140  16.908  0.00  0.00    +0.000 A 
ATOM     16  C   UNL     1       3.004   4.265  17.285  0.00  0.00    +0.000 A 
BRANCH  11  18
ATOM     17  C   UNL     1       1.504   2.108  18.634  0.00  0.00    +0.000 C 
ATOM     18  C   UNL     1       1.161   3.573  18.924  0.00  0.00    +0.000 C 
BRANCH  18  19
ATOM     19  C   UNL     1       0.783   3.825  20.398  0.00  0.00    +0.000 C 
BRANCH  19  20
ATOM     20  C   UNL     1       1.454   2.990  21.360  0.00  0.00    +0.000 C 
ATOM     21  N   UNL     1       2.551   2.847  21.980  0.00  0.00    +0.000 NA
ATOM     22  N   UNL     1       1.352   2.175  22.403  0.00  0.00    +0.000 N 
ATOM     23  H   UNL     1       1.480   1.172  22.277  0.00  0.00    +0.000 HD
ENDBRANCH  19  20
ENDBRANCH  18  19
ENDBRANCH  11  18
ENDBRANCH   1  15
BRANCH   6  24
ATOM     24  C   UNL     1       8.467   9.130  18.147  0.00  0.00    +0.000 C 
ATOM     25  F   UNL     1       9.080   9.392  19.332  0.00  0.00    +0.000 F 
ATOM     26  F   UNL     1       9.360   9.478  17.175  0.00  0.00    +0.000 F 
ATOM     27  F   UNL     1       7.433  10.005  18.051  0.00  0.00    +0.000 F 
ENDBRANCH   6  24
TORSDOF 5
ENDMDL
MODEL 3
REMARK VINA RESULT:      -7.7      4.190      7.015
REMARK  Name = 
REMARK  6 active torsions:
REMARK  status: ('A' for Active; 'I' for Inactive)
REMARK    1  A    between atoms: C_1  and  C_2
REMARK    2  A    between atoms: C_2  and  C_3
REMARK    3  A    between atoms: C_2  and  C_7
REMARK    4  A    between atoms: C_3  and  C_4
REMARK    5  A    between atoms: C_11  and  N_12
REMARK    6  A    between atoms: C_17  and  C_18
REMARK                            x       y       z     vdW  Elec       q    Type
REMARK                         _______ _______ _______ _____ _____    ______ ____
ROOT
ATOM      1  N   UNL     1       5.919   5.715  15.957  0.00  0.00    +0.000 N 
ATOM      2  C   UNL     1       4.822   6.659  16.291  0.00  0.00    +0.000 C 
ATOM      3  C   UNL     1       4.082   5.901  17.344  0.00  0.00    +0.000 A 
ATOM      4  C   UNL     1       3.541   6.342  18.536  0.00  0.00    +0.000 A 
ATOM      5  C   UNL     1       3.205   5.380  19.496  0.00  0.00    +0.000 A 
ATOM      6  C   UNL     1       3.389   3.994  19.253  0.00  0.00    +0.000 A 
ATOM      7  C   UNL     1       3.920   3.568  18.025  0.00  0.00    +0.000 A 
ATOM      8  C   UNL     1       4.278   4.539  17.109  0.00  0.00    +0.000 A 
ATOM      9  C   UNL     1       5.348   4.420  16.091  0.00  0.00    +0.000 C 
ATOM     10  O   UNL     1       5.759   3.361  15.654  0.00  0.00    +0.000 OA
ENDROOT
BRANCH   1  15
ATOM     11  C   UNL     1       8.113   7.825  18.003  0.00  0.00    +0.000 A 
ATOM     12  C   UNL     1       8.163   7.007  19.143  0.00  0.00    +0.000 A 
ATOM     13  C   UNL     1       7.846   5.654  19.062  0.00  0.00    +0.000 A 
ATOM     14  C   UNL     1       7.375   5.121  17.872  0.00  0.00    +0.000 A 
ATOM     15  C   UNL     1       7.076   5.983  16.803  0.00  0.00    +0.000 A 
ATOM     16  C   UNL     1       7.579   7.289  16.823  0.00  0.00    +0.000 A 
BRANCH  11  18
ATOM     17  C   UNL     1       7.532  10.266  17.562  0.00  0.00    +0.000 C 
ATOM     18  C   UNL     1       8.563   9.274  18.111  0.00  0.00    +0.000 C 
BRANCH  18  19
ATOM     19  C   UNL     1       9.069   9.646  19.520  0.00  0.00    +0.000 C 
BRANCH  19  20
ATOM     20  C   UNL     1       9.857  10.848  19.596  0.00  0.00    +0.000 C 
ATOM     21  N   UNL     1      10.465  11.605  20.412  0.00  0.00    +0.000 NA
ATOM     22  N   UNL     1      10.707  11.672  18.995  0.00  0.00    +0.000 N 
ATOM     23  H   UNL     1      10.382  12.575  18.652  0.00  0.00    +0.000 HD
ENDBRANCH  19  20
ENDBRANCH  18  19
ENDBRANCH  11  18
ENDBRANCH   1  15
BRANCH   6  24
ATOM     24  C   UNL     1       3.130   2.975  20.341  0.00  0.00    +0.000 C 
ATOM     25  F   UNL     1       4.240   2.278  20.704  0.00  0.00    +0.000 F 
ATOM     26  F   UNL     1       2.655   3.550  21.484  0.00  0.00    +0.000 F 
ATOM     27  F   UNL     1       2.209   2.054  19.962  0.00  0.00    +0.000 F 
ENDBRANCH   6  24
TORSDOF 5
ENDMDL
MODEL 4
REMARK VINA RESULT:      -7.7      3.626      4.637
REMARK  Name = 
REMARK  6 active torsions:
REMARK  status: ('A' for Active; 'I' for Inactive)
REMARK    1  A    between atoms: C_1  and  C_2
REMARK    2  A    between atoms: C_2  and  C_3
REMARK    3  A    between atoms: C_2  and  C_7
REMARK    4  A    between atoms: C_3  and  C_4
REMARK    5  A    between atoms: C_11  and  N_12
REMARK    6  A    between atoms: C_17  and  C_18
REMARK                            x       y       z     vdW  Elec       q    Type
REMARK                         _______ _______ _______ _____ _____    ______ ____
ROOT
ATOM      1  N   UNL     1       6.645   5.360  18.380  0.00  0.00    +0.000 N 
ATOM      2  C   UNL     1       6.127   6.595  17.739  0.00  0.00    +0.000 C 
ATOM      3  C   UNL     1       6.103   6.200  16.299  0.00  0.00    +0.000 A 
ATOM      4  C   UNL     1       5.143   6.436  15.334  0.00  0.00    +0.000 A 
ATOM      5  C   UNL     1       5.194   5.673  14.161  0.00  0.00    +0.000 A 
ATOM      6  C   UNL     1       6.208   4.701  13.952  0.00  0.00    +0.000 A 
ATOM      7  C   UNL     1       7.186   4.493  14.939  0.00  0.00    +0.000 A 
ATOM      8  C   UNL     1       7.091   5.234  16.102  0.00  0.00    +0.000 A 
ATOM      9  C   UNL     1       7.561   4.811  17.442  0.00  0.00    +0.000 C 
ATOM     10  O   UNL     1       8.431   3.979  17.628  0.00  0.00    +0.000 OA
ENDROOT
BRANCH   1  15
ATOM     11  C   UNL     1       3.249   4.653  19.573  0.00  0.00    +0.000 A 
ATOM     12  C   UNL     1       2.857   3.784  18.543  0.00  0.00    +0.000 A 
ATOM     13  C   UNL     1       3.808   3.142  17.753  0.00  0.00    +0.000 A 
ATOM     14  C   UNL     1       5.154   3.438  17.908  0.00  0.00    +0.000 A 
ATOM     15  C   UNL     1       5.533   4.494  18.755  0.00  0.00    +0.000 A 
ATOM     16  C   UNL     1       4.606   4.988  19.680  0.00  0.00    +0.000 A 
BRANCH  11  18
ATOM     17  C   UNL     1       1.673   6.612  19.983  0.00  0.00    +0.000 C 
ATOM     18  C   UNL     1       2.186   5.256  20.478  0.00  0.00    +0.000 C 
BRANCH  18  19
ATOM     19  C   UNL     1       1.051   4.267  20.818  0.00  0.00    +0.000 C 
BRANCH  19  20
ATOM     20  C   UNL     1       1.447   3.110  21.577  0.00  0.00    +0.000 C 
ATOM     21  N   UNL     1       2.452   2.547  22.107  0.00  0.00    +0.000 NA
ATOM     22  N   UNL     1       1.107   2.175  22.456  0.00  0.00    +0.000 N 
ATOM     23  H   UNL     1       0.942   1.220  22.143  0.00  0.00    +0.000 HD
ENDBRANCH  19  20
ENDBRANCH  18  19
ENDBRANCH  11  18
ENDBRANCH   1  15
BRANCH   6  24
ATOM     24  C   UNL     1       6.183   3.805  12.735  0.00  0.00    +0.000 C 
ATOM     25  F   UNL     1       6.448   2.501  13.018  0.00  0.00    +0.000 F 
ATOM     26  F   UNL     1       4.970   3.816  12.110  0.00  0.00    +0.000 F 
ATOM     27  F   UNL     1       7.097   4.186  11.807  0.00  0.00    +0.000 F 
ENDBRANCH   6  24
TORSDOF 5
ENDMDL
MODEL 5
REMARK VINA RESULT:      -7.7      4.522      5.653
REMARK  Name = 
REMARK  6 active torsions:
REMARK  status: ('A' for Active; 'I' for Inactive)
REMARK    1  A    between atoms: C_1  and  C_2
REMARK    2  A    between atoms: C_2  and  C_3
REMARK    3  A    between atoms: C_2  and  C_7
REMARK    4  A    between atoms: C_3  and  C_4
REMARK    5  A    between atoms: C_11  and  N_12
REMARK    6  A    between atoms: C_17  and  C_18
REMARK                            x       y       z     vdW  Elec       q    Type
REMARK                         _______ _______ _______ _____ _____    ______ ____
ROOT
ATOM      1  N   UNL     1       3.461   4.908  19.446  0.00  0.00    +0.000 N 
ATOM      2  C   UNL     1       4.831   5.422  19.702  0.00  0.00    +0.000 C 
ATOM      3  C   UNL     1       5.493   5.180  18.386  0.00  0.00    +0.000 A 
ATOM      4  C   UNL     1       6.352   5.989  17.667  0.00  0.00    +0.000 A 
ATOM      5  C   UNL     1       6.560   5.685  16.317  0.00  0.00    +0.000 A 
ATOM      6  C   UNL     1       5.931   4.570  15.703  0.00  0.00    +0.000 A 
ATOM      7  C   UNL     1       5.078   3.749  16.460  0.00  0.00    +0.000 A 
ATOM      8  C   UNL     1       4.862   4.093  17.780  0.00  0.00    +0.000 A 
ATOM      9  C   UNL     1       3.636   3.809  18.562  0.00  0.00    +0.000 C 
ATOM     10  O   UNL     1       2.855   2.911  18.304  0.00  0.00    +0.000 OA
ENDROOT
BRANCH   1  15
ATOM     11  C   UNL     1       1.799   8.172  19.634  0.00  0.00    +0.000 A 
ATOM     12  C   UNL     1       2.220   8.677  18.393  0.00  0.00    +0.000 A 
ATOM     13  C   UNL     1       2.658   7.819  17.388  0.00  0.00    +0.000 A 
ATOM     14  C   UNL     1       2.783   6.461  17.639  0.00  0.00    +0.000 A 
ATOM     15  C   UNL     1       2.613   5.986  18.951  0.00  0.00    +0.000 A 
ATOM     16  C   UNL     1       1.987   6.808  19.895  0.00  0.00    +0.000 A 
BRANCH  11  18
ATOM     17  C   UNL     1       0.721  10.441  20.062  0.00  0.00    +0.000 C 
ATOM     18  C   UNL     1       1.233   9.131  20.670  0.00  0.00    +0.000 C 
BRANCH  18  19
ATOM     19  C   UNL     1       0.214   8.464  21.616  0.00  0.00    +0.000 C 
BRANCH  19  20
ATOM     20  C   UNL     1      -0.223   9.273  22.723  0.00  0.00    +0.000 C 
ATOM     21  N   UNL     1       0.146   9.726  23.849  0.00  0.00    +0.000 NA
ATOM     22  N   UNL     1      -0.986  10.273  23.151  0.00  0.00    +0.000 N 
ATOM     23  H   UNL     1      -1.828  10.074  23.689  0.00  0.00    +0.000 HD
ENDBRANCH  19  20
ENDBRANCH  18  19
ENDBRANCH  11  18
ENDBRANCH   1  15
BRANCH   6  24
ATOM     24  C   UNL     1       6.072   4.320  14.218  0.00  0.00    +0.000 C 
ATOM     25  F   UNL     1       6.509   3.067  13.919  0.00  0.00    +0.000 F 
ATOM     26  F   UNL     1       4.890   4.475  13.554  0.00  0.00    +0.000 F 
ATOM     27  F   UNL     1       6.952   5.178  13.642  0.00  0.00    +0.000 F 
ENDBRANCH   6  24
TORSDOF 5
ENDMDL
MODEL 6
REMARK VINA RESULT:      -7.6      3.739      5.150
REMARK  Name = 
REMARK  6 active torsions:
REMARK  status: ('A' for Active; 'I' for Inactive)
REMARK    1  A    between atoms: C_1  and  C_2
REMARK    2  A    between atoms: C_2  and  C_3
REMARK    3  A    between atoms: C_2  and  C_7
REMARK    4  A    between atoms: C_3  and  C_4
REMARK    5  A    between atoms: C_11  and  N_12
REMARK    6  A    between atoms: C_17  and  C_18
REMARK                            x       y       z     vdW  Elec       q    Type
REMARK                         _______ _______ _______ _____ _____    ______ ____
ROOT
ATOM      1  N   UNL     1       6.656   5.498  18.530  0.00  0.00    +0.000 N 
ATOM      2  C   UNL     1       6.193   6.739  17.857  0.00  0.00    +0.000 C 
ATOM      3  C   UNL     1       6.131   6.302  16.430  0.00  0.00    +0.000 A 
ATOM      4  C   UNL     1       5.173   6.558  15.469  0.00  0.00    +0.000 A 
ATOM      5  C   UNL     1       5.171   5.758  14.319  0.00  0.00    +0.000 A 
ATOM      6  C   UNL     1       6.131   4.730  14.130  0.00  0.00    +0.000 A 
ATOM      7  C   UNL     1       7.109   4.503  15.112  0.00  0.00    +0.000 A 
ATOM      8  C   UNL     1       7.066   5.282  16.253  0.00  0.00    +0.000 A 
ATOM      9  C   UNL     1       7.531   4.876  17.600  0.00  0.00    +0.000 C 
ATOM     10  O   UNL     1       8.360   4.007  17.802  0.00  0.00    +0.000 OA
ENDROOT
BRANCH   1  15
ATOM     11  C   UNL     1       3.097   4.909  19.198  0.00  0.00    +0.000 A 
ATOM     12  C   UNL     1       2.953   3.726  18.456  0.00  0.00    +0.000 A 
ATOM     13  C   UNL     1       4.064   2.954  18.126  0.00  0.00    +0.000 A 
ATOM     14  C   UNL     1       5.338   3.402  18.436  0.00  0.00    +0.000 A 
ATOM     15  C   UNL     1       5.506   4.702  18.943  0.00  0.00    +0.000 A 
ATOM     16  C   UNL     1       4.392   5.380  19.452  0.00  0.00    +0.000 A 
BRANCH  11  18
ATOM     17  C   UNL     1       1.053   4.956  20.718  0.00  0.00    +0.000 C 
ATOM     18  C   UNL     1       1.853   5.672  19.625  0.00  0.00    +0.000 C 
BRANCH  18  19
ATOM     19  C   UNL     1       2.136   7.153  19.955  0.00  0.00    +0.000 C 
BRANCH  19  20
ATOM     20  C   UNL     1       2.192   8.038  18.822  0.00  0.00    +0.000 C 
ATOM     21  N   UNL     1       2.663   8.147  17.650  0.00  0.00    +0.000 NA
ATOM     22  N   UNL     1       1.605   9.001  18.121  0.00  0.00    +0.000 N 
ATOM     23  H   UNL     1       1.958   9.956  18.176  0.00  0.00    +0.000 HD
ENDBRANCH  19  20
ENDBRANCH  18  19
ENDBRANCH  11  18
ENDBRANCH   1  15
BRANCH   6  24
ATOM     24  C   UNL     1       6.047   3.800  12.941  0.00  0.00    +0.000 C 
ATOM     25  F   UNL     1       4.809   3.753  12.377  0.00  0.00    +0.000 F 
ATOM     26  F   UNL     1       6.903   4.161  11.941  0.00  0.00    +0.000 F 
ATOM     27  F   UNL     1       6.362   2.523  13.274  0.00  0.00    +0.000 F 
ENDBRANCH   6  24
TORSDOF 5
ENDMDL
MODEL 7
REMARK VINA RESULT:      -7.5      8.001      9.549
REMARK  Name = 
REMARK  6 active torsions:
REMARK  status: ('A' for Active; 'I' for Inactive)
REMARK    1  A    between atoms: C_1  and  C_2
REMARK    2  A    between atoms: C_2  and  C_3
REMARK    3  A    between atoms: C_2  and  C_7
REMARK    4  A    between atoms: C_3  and  C_4
REMARK    5  A    between atoms: C_11  and  N_12
REMARK    6  A    between atoms: C_17  and  C_18
REMARK                            x       y       z     vdW  Elec       q    Type
REMARK                         _______ _______ _______ _____ _____    ______ ____
ROOT
ATOM      1  N   UNL     1      -0.649  11.298  19.463  0.00  0.00    +0.000 N 
ATOM      2  C   UNL     1       0.515  11.539  18.574  0.00  0.00    +0.000 C 
ATOM      3  C   UNL     1       1.286  10.270  18.735  0.00  0.00    +0.000 A 
ATOM      4  C   UNL     1       1.929   9.500  17.786  0.00  0.00    +0.000 A 
ATOM      5  C   UNL     1       2.281   8.191  18.135  0.00  0.00    +0.000 A 
ATOM      6  C   UNL     1       2.009   7.670  19.427  0.00  0.00    +0.000 A 
ATOM      7  C   UNL     1       1.373   8.479  20.384  0.00  0.00    +0.000 A 
ATOM      8  C   UNL     1       1.004   9.754  20.001  0.00  0.00    +0.000 A 
ATOM      9  C   UNL     1      -0.139  10.528  20.543  0.00  0.00    +0.000 C 
ATOM     10  O   UNL     1      -0.633  10.336  21.639  0.00  0.00    +0.000 OA
ENDROOT
BRANCH   1  15
ATOM     11  C   UNL     1      -3.996  11.162  17.969  0.00  0.00    +0.000 A 
ATOM     12  C   UNL     1      -3.615  10.794  16.669  0.00  0.00    +0.000 A 
ATOM     13  C   UNL     1      -2.374  10.208  16.432  0.00  0.00    +0.000 A 
ATOM     14  C   UNL     1      -1.458  10.079  17.464  0.00  0.00    +0.000 A 
ATOM     15  C   UNL     1      -1.730  10.680  18.705  0.00  0.00    +0.000 A 
ATOM     16  C   UNL     1      -3.040  11.082  18.990  0.00  0.00    +0.000 A 
BRANCH  11  18
ATOM     17  C   UNL     1      -5.904  12.581  17.051  0.00  0.00    +0.000 C 
ATOM     18  C   UNL     1      -5.397  11.707  18.203  0.00  0.00    +0.000 C 
BRANCH  18  19
ATOM     19  C   UNL     1      -6.405  10.617  18.624  0.00  0.00    +0.000 C 
BRANCH  19  20
ATOM     20  C   UNL     1      -6.910  10.729  19.967  0.00  0.00    +0.000 C 
ATOM     21  N   UNL     1      -7.484  10.071  20.887  0.00  0.00    +0.000 NA
ATOM     22  N   UNL     1      -6.823  11.320  21.153  0.00  0.00    +0.000 N 
ATOM     23  H   UNL     1      -7.524  12.006  21.431  0.00  0.00    +0.000 HD
ENDBRANCH  19  20
ENDBRANCH  18  19
ENDBRANCH  11  18
ENDBRANCH   1  15
BRANCH   6  24
ATOM     24  C   UNL     1       2.288   6.220  19.754  0.00  0.00    +0.000 C 
ATOM     25  F   UNL     1       3.610   5.950  19.930  0.00  0.00    +0.000 F 
ATOM     26  F   UNL     1       1.666   5.820  20.900  0.00  0.00    +0.000 F 
ATOM     27  F   UNL     1       1.858   5.388  18.772  0.00  0.00    +0.000 F 
ENDBRANCH   6  24
TORSDOF 5
ENDMDL
MODEL 8
REMARK VINA RESULT:      -7.4      3.705      4.995
REMARK  Name = 
REMARK  6 active torsions:
REMARK  status: ('A' for Active; 'I' for Inactive)
REMARK    1  A    between atoms: C_1  and  C_2
REMARK    2  A    between atoms: C_2  and  C_3
REMARK    3  A    between atoms: C_2  and  C_7
REMARK    4  A    between atoms: C_3  and  C_4
REMARK    5  A    between atoms: C_11  and  N_12
REMARK    6  A    between atoms: C_17  and  C_18
REMARK                            x       y       z     vdW  Elec       q    Type
REMARK                         _______ _______ _______ _____ _____    ______ ____
ROOT
ATOM      1  N   UNL     1       6.417   5.254  18.482  0.00  0.00    +0.000 N 
ATOM      2  C   UNL     1       5.859   6.482  17.862  0.00  0.00    +0.000 C 
ATOM      3  C   UNL     1       5.927   6.142  16.409  0.00  0.00    +0.000 A 
ATOM      4  C   UNL     1       5.003   6.361  15.406  0.00  0.00    +0.000 A 
ATOM      5  C   UNL     1       5.155   5.649  14.210  0.00  0.00    +0.000 A 
ATOM      6  C   UNL     1       6.233   4.746  14.018  0.00  0.00    +0.000 A 
ATOM      7  C   UNL     1       7.173   4.556  15.044  0.00  0.00    +0.000 A 
ATOM      8  C   UNL     1       6.978   5.243  16.227  0.00  0.00    +0.000 A 
ATOM      9  C   UNL     1       7.408   4.795  17.572  0.00  0.00    +0.000 C 
ATOM     10  O   UNL     1       8.316   4.009  17.772  0.00  0.00    +0.000 OA
ENDROOT
BRANCH   1  15
ATOM     11  C   UNL     1       2.950   4.299  19.202  0.00  0.00    +0.000 A 
ATOM     12  C   UNL     1       2.813   3.305  18.220  0.00  0.00    +0.000 A 
ATOM     13  C   UNL     1       3.936   2.700  17.660  0.00  0.00    +0.000 A 
ATOM     14  C   UNL     1       5.205   3.150  17.991  0.00  0.00    +0.000 A 
ATOM     15  C   UNL     1       5.341   4.312  18.769  0.00  0.00    +0.000 A 
ATOM     16  C   UNL     1       4.234   4.785  19.482  0.00  0.00    +0.000 A 
BRANCH  11  18
ATOM     17  C   UNL     1       0.927   3.823  20.677  0.00  0.00    +0.000 C 
ATOM     18  C   UNL     1       1.701   4.864  19.862  0.00  0.00    +0.000 C 
BRANCH  18  19
ATOM     19  C   UNL     1       1.969   6.167  20.644  0.00  0.00    +0.000 C 
BRANCH  19  20
ATOM     20  C   UNL     1       1.862   7.380  19.878  0.00  0.00    +0.000 C 
ATOM     21  N   UNL     1       1.603   8.618  19.979  0.00  0.00    +0.000 NA
ATOM     22  N   UNL     1       2.257   8.077  18.817  0.00  0.00    +0.000 N 
ATOM     23  H   UNL     1       1.635   8.178  18.017  0.00  0.00    +0.000 HD
ENDBRANCH  19  20
ENDBRANCH  18  19
ENDBRANCH  11  18
ENDBRANCH   1  15
BRANCH   6  24
ATOM     24  C   UNL     1       6.320   3.898  12.768  0.00  0.00    +0.000 C 
ATOM     25  F   UNL     1       7.257   4.333  11.883  0.00  0.00    +0.000 F 
ATOM     26  F   UNL     1       6.639   2.600  13.047  0.00  0.00    +0.000 F 
ATOM     27  F   UNL     1       5.144   3.869  12.093  0.00  0.00    +0.000 F 
ENDBRANCH   6  24
TORSDOF 5
ENDMDL
MODEL 9
REMARK VINA RESULT:      -7.2      3.874      6.795
REMARK  Name = 
REMARK  6 active torsions:
REMARK  status: ('A' for Active; 'I' for Inactive)
REMARK    1  A    between atoms: C_1  and  C_2
REMARK    2  A    between atoms: C_2  and  C_3
REMARK    3  A    between atoms: C_2  and  C_7
REMARK    4  A    between atoms: C_3  and  C_4
REMARK    5  A    between atoms: C_11  and  N_12
REMARK    6  A    between atoms: C_17  and  C_18
REMARK                            x       y       z     vdW  Elec       q    Type
REMARK                         _______ _______ _______ _____ _____    ______ ____
ROOT
ATOM      1  N   UNL     1       5.904   5.249  16.042  0.00  0.00    +0.000 N 
ATOM      2  C   UNL     1       5.111   6.468  15.743  0.00  0.00    +0.000 C 
ATOM      3  C   UNL     1       4.079   6.428  16.823  0.00  0.00    +0.000 A 
ATOM      4  C   UNL     1       3.580   7.451  17.607  0.00  0.00    +0.000 A 
ATOM      5  C   UNL     1       2.881   7.101  18.768  0.00  0.00    +0.000 A 
ATOM      6  C   UNL     1       2.667   5.744  19.124  0.00  0.00    +0.000 A 
ATOM      7  C   UNL     1       3.165   4.721  18.300  0.00  0.00    +0.000 A 
ATOM      8  C   UNL     1       3.883   5.094  17.180  0.00  0.00    +0.000 A 
ATOM      9  C   UNL     1       4.964   4.307  16.540  0.00  0.00    +0.000 C 
ATOM     10  O   UNL     1       5.082   3.100  16.644  0.00  0.00    +0.000 OA
ENDROOT
BRANCH   1  15
ATOM     11  C   UNL     1       7.991   7.518  18.029  0.00  0.00    +0.000 A 
ATOM     12  C   UNL     1       7.932   6.822  19.247  0.00  0.00    +0.000 A 
ATOM     13  C   UNL     1       7.587   5.473  19.278  0.00  0.00    +0.000 A 
ATOM     14  C   UNL     1       7.194   4.829  18.115  0.00  0.00    +0.000 A 
ATOM     15  C   UNL     1       7.000   5.582  16.944  0.00  0.00    +0.000 A 
ATOM     16  C   UNL     1       7.535   6.874  16.872  0.00  0.00    +0.000 A 
BRANCH  11  18
ATOM     17  C   UNL     1       7.445   9.933  17.426  0.00  0.00    +0.000 C 
ATOM     18  C   UNL     1       8.469   8.963  18.025  0.00  0.00    +0.000 C 
BRANCH  18  19
ATOM     19  C   UNL     1       9.010   9.423  19.393  0.00  0.00    +0.000 C 
BRANCH  19  20
ATOM     20  C   UNL     1       9.621  10.726  19.409  0.00  0.00    +0.000 C 
ATOM     21  N   UNL     1      10.537  11.418  18.868  0.00  0.00    +0.000 NA
ATOM     22  N   UNL     1       9.483  12.028  19.634  0.00  0.00    +0.000 N 
ATOM     23  H   UNL     1       9.889  12.444  20.471  0.00  0.00    +0.000 HD
ENDBRANCH  19  20
ENDBRANCH  18  19
ENDBRANCH  11  18
ENDBRANCH   1  15
BRANCH   6  24
ATOM     24  C   UNL     1       2.012   5.381  20.439  0.00  0.00    +0.000 C 
ATOM     25  F   UNL     1       1.621   6.463  21.165  0.00  0.00    +0.000 F 
ATOM     26  F   UNL     1       0.892   4.620  20.264  0.00  0.00    +0.000 F 
ATOM     27  F   UNL     1       2.843   4.666  21.238  0.00  0.00    +0.000 F 
ENDBRANCH   6  24
TORSDOF 5
ENDMDL
