MODEL 1
REMARK VINA RESULT:      -9.2      0.000      0.000
REMARK  Name = 
REMARK  5 active torsions:
REMARK  status: ('A' for Active; 'I' for Inactive)
REMARK    1  A    between atoms: C_2  and  O_3
REMARK    2  A    between atoms: C_2  and  C_19
REMARK    3  A    between atoms: O_3  and  C_4
REMARK    4  A    between atoms: C_4  and  C_5
REMARK    5  A    between atoms: C_22  and  N_23
REMARK                            x       y       z     vdW  Elec       q    Type
REMARK                         _______ _______ _______ _____ _____    ______ ____
ROOT
ATOM      1  O   UNL     1       3.009   5.370  18.282  0.00  0.00    +0.000 OA
ENDROOT
BRANCH   1   3
ATOM      2  O   UNL     1       2.545   5.350  20.522  0.00  0.00    +0.000 OA
ATOM      3  C   UNL     1       2.617   5.916  19.448  0.00  0.00    +0.000 C 
BRANCH   3   4
ATOM      4  C   UNL     1       2.202   7.319  19.229  0.00  0.00    +0.000 A 
ATOM      5  C   UNL     1       1.601   7.979  20.297  0.00  0.00    +0.000 A 
ATOM      6  C   UNL     1       1.112   9.278  20.137  0.00  0.00    +0.000 A 
ATOM      7  C   UNL     1       1.199   9.939  18.904  0.00  0.00    +0.000 A 
ATOM      8  C   UNL     1       1.840   9.277  17.846  0.00  0.00    +0.000 A 
ATOM      9  C   UNL     1       2.346   7.979  18.004  0.00  0.00    +0.000 A 
BRANCH   7  10
ATOM     10  N   UNL     1       0.626  11.227  18.716  0.00  0.00    +0.000 N 
ATOM     11  C   UNL     1      -0.800  11.441  18.709  0.00  0.00    +0.000 C 
ATOM     12  C   UNL     1      -0.963  12.878  18.260  0.00  0.00    +0.000 C 
ATOM     13  C   UNL     1       0.283  13.557  18.787  0.00  0.00    +0.000 C 
ATOM     14  C   UNL     1       1.309  12.457  18.778  0.00  0.00    +0.000 C 
ATOM     15  O   UNL     1       2.500  12.665  18.871  0.00  0.00    +0.000 OA
ENDBRANCH   7  10
ENDBRANCH   3   4
ENDBRANCH   1   3
BRANCH   1  16
ATOM     16  C   UNL     1       3.784   4.181  18.409  0.00  0.00    +0.000 C 
BRANCH  16  17
ATOM     17  C   UNL     1       5.180   4.522  17.986  0.00  0.00    +0.000 A 
ATOM     18  C   UNL     1       6.054   4.827  18.953  0.00  0.00    +0.000 A 
ATOM     19  C   UNL     1       7.407   5.329  18.700  0.00  0.00    +0.000 A 
ATOM     20  O   UNL     1       8.204   5.468  19.612  0.00  0.00    +0.000 OA
ATOM     21  O   UNL     1       7.668   5.733  17.419  0.00  0.00    +0.000 OA
ATOM     22  C   UNL     1       6.877   5.233  16.374  0.00  0.00    +0.000 A 
ATOM     23  C   UNL     1       7.496   5.354  15.142  0.00  0.00    +0.000 A 
ATOM     24  C   UNL     1       6.912   4.733  14.071  0.00  0.00    +0.000 A 
ATOM     25  C   UNL     1       5.674   4.100  14.173  0.00  0.00    +0.000 A 
ATOM     26  C   UNL     1       5.010   4.040  15.417  0.00  0.00    +0.000 A 
ATOM     27  C   UNL     1       5.640   4.585  16.572  0.00  0.00    +0.000 A 
ATOM     28  C   UNL     1       5.296   3.561  12.817  0.00  0.00    +0.000 C 
ATOM     29  C   UNL     1       6.584   3.732  11.968  0.00  0.00    +0.000 C 
ATOM     30  C   UNL     1       7.581   4.573  12.755  0.00  0.00    +0.000 C 
ENDBRANCH  16  17
ENDBRANCH   1  16
TORSDOF 5
ENDMDL
MODEL 2
REMARK VINA RESULT:      -9.0      0.851      1.411
REMARK  Name = 
REMARK  5 active torsions:
REMARK  status: ('A' for Active; 'I' for Inactive)
REMARK    1  A    between atoms: C_2  and  O_3
REMARK    2  A    between atoms: C_2  and  C_19
REMARK    3  A    between atoms: O_3  and  C_4
REMARK    4  A    between atoms: C_4  and  C_5
REMARK    5  A    between atoms: C_22  and  N_23
REMARK                            x       y       z     vdW  Elec       q    Type
REMARK                         _______ _______ _______ _____ _____    ______ ____
ROOT
ATOM      1  O   UNL     1       3.106   5.761  18.470  0.00  0.00    +0.000 OA
ENDROOT
BRANCH   1   3
ATOM      2  O   UNL     1       2.407   5.388  20.617  0.00  0.00    +0.000 OA
ATOM      3  C   UNL     1       2.525   6.098  19.637  0.00  0.00    +0.000 C 
BRANCH   3   4
ATOM      4  C   UNL     1       1.968   7.466  19.542  0.00  0.00    +0.000 A 
ATOM      5  C   UNL     1       2.067   8.109  18.310  0.00  0.00    +0.000 A 
ATOM      6  C   UNL     1       1.635   9.430  18.170  0.00  0.00    +0.000 A 
ATOM      7  C   UNL     1       1.110  10.141  19.257  0.00  0.00    +0.000 A 
ATOM      8  C   UNL     1       0.981   9.470  20.482  0.00  0.00    +0.000 A 
ATOM      9  C   UNL     1       1.398   8.139  20.627  0.00  0.00    +0.000 A 
BRANCH   7  10
ATOM     10  N   UNL     1       0.750  11.512  19.137  0.00  0.00    +0.000 N 
ATOM     11  C   UNL     1       1.699  12.577  19.340  0.00  0.00    +0.000 C 
ATOM     12  C   UNL     1       0.858  13.836  19.341  0.00  0.00    +0.000 C 
ATOM     13  C   UNL     1      -0.285  13.499  18.407  0.00  0.00    +0.000 C 
ATOM     14  C   UNL     1      -0.439  12.011  18.569  0.00  0.00    +0.000 C 
ATOM     15  O   UNL     1      -1.421  11.405  18.196  0.00  0.00    +0.000 OA
ENDBRANCH   7  10
ENDBRANCH   3   4
ENDBRANCH   1   3
BRANCH   1  16
ATOM     16  C   UNL     1       3.743   4.486  18.467  0.00  0.00    +0.000 C 
BRANCH  16  17
ATOM     17  C   UNL     1       5.153   4.703  18.012  0.00  0.00    +0.000 A 
ATOM     18  C   UNL     1       6.065   4.971  18.955  0.00  0.00    +0.000 A 
ATOM     19  C   UNL     1       7.448   5.357  18.666  0.00  0.00    +0.000 A 
ATOM     20  O   UNL     1       8.268   5.464  19.561  0.00  0.00    +0.000 OA
ATOM     21  O   UNL     1       7.717   5.697  17.368  0.00  0.00    +0.000 OA
ATOM     22  C   UNL     1       6.872   5.225  16.352  0.00  0.00    +0.000 A 
ATOM     23  C   UNL     1       7.478   5.257  15.108  0.00  0.00    +0.000 A 
ATOM     24  C   UNL     1       6.830   4.647  14.068  0.00  0.00    +0.000 A 
ATOM     25  C   UNL     1       5.549   4.117  14.209  0.00  0.00    +0.000 A 
ATOM     26  C   UNL     1       4.903   4.150  15.464  0.00  0.00    +0.000 A 
ATOM     27  C   UNL     1       5.593   4.682  16.590  0.00  0.00    +0.000 A 
ATOM     28  C   UNL     1       5.107   3.564  12.878  0.00  0.00    +0.000 C 
ATOM     29  C   UNL     1       6.389   3.606  12.005  0.00  0.00    +0.000 C 
ATOM     30  C   UNL     1       7.462   4.392  12.749  0.00  0.00    +0.000 C 
ENDBRANCH  16  17
ENDBRANCH   1  16
TORSDOF 5
ENDMDL
MODEL 3
REMARK VINA RESULT:      -8.9      1.036      1.276
REMARK  Name = 
REMARK  5 active torsions:
REMARK  status: ('A' for Active; 'I' for Inactive)
REMARK    1  A    between atoms: C_2  and  O_3
REMARK    2  A    between atoms: C_2  and  C_19
REMARK    3  A    between atoms: O_3  and  C_4
REMARK    4  A    between atoms: C_4  and  C_5
REMARK    5  A    between atoms: C_22  and  N_23
REMARK                            x       y       z     vdW  Elec       q    Type
REMARK                         _______ _______ _______ _____ _____    ______ ____
ROOT
ATOM      1  O   UNL     1       3.407   5.054  19.932  0.00  0.00    +0.000 OA
ENDROOT
BRANCH   1   3
ATOM      2  O   UNL     1       1.272   4.645  20.646  0.00  0.00    +0.000 OA
ATOM      3  C   UNL     1       2.139   5.392  20.234  0.00  0.00    +0.000 C 
BRANCH   3   4
ATOM      4  C   UNL     1       1.913   6.819  19.919  0.00  0.00    +0.000 A 
ATOM      5  C   UNL     1       1.263   7.588  20.882  0.00  0.00    +0.000 A 
ATOM      6  C   UNL     1       0.946   8.923  20.619  0.00  0.00    +0.000 A 
ATOM      7  C   UNL     1       1.256   9.514  19.387  0.00  0.00    +0.000 A 
ATOM      8  C   UNL     1       1.943   8.740  18.440  0.00  0.00    +0.000 A 
ATOM      9  C   UNL     1       2.279   7.404  18.702  0.00  0.00    +0.000 A 
BRANCH   7  10
ATOM     10  N   UNL     1       0.857  10.846  19.086  0.00  0.00    +0.000 N 
ATOM     11  C   UNL     1       1.800  11.859  18.683  0.00  0.00    +0.000 C 
ATOM     12  C   UNL     1       0.999  13.143  18.688  0.00  0.00    +0.000 C 
ATOM     13  C   UNL     1      -0.401  12.689  18.329  0.00  0.00    +0.000 C 
ATOM     14  C   UNL     1      -0.463  11.289  18.878  0.00  0.00    +0.000 C 
ATOM     15  O   UNL     1      -1.505  10.688  19.033  0.00  0.00    +0.000 OA
ENDBRANCH   7  10
ENDBRANCH   3   4
ENDBRANCH   1   3
BRANCH   1  16
ATOM     16  C   UNL     1       3.578   4.463  18.647  0.00  0.00    +0.000 C 
BRANCH  16  17
ATOM     17  C   UNL     1       4.988   4.738  18.224  0.00  0.00    +0.000 A 
ATOM     18  C   UNL     1       5.865   5.047  19.186  0.00  0.00    +0.000 A 
ATOM     19  C   UNL     1       7.237   5.490  18.928  0.00  0.00    +0.000 A 
ATOM     20  O   UNL     1       8.031   5.635  19.842  0.00  0.00    +0.000 OA
ATOM     21  O   UNL     1       7.522   5.836  17.635  0.00  0.00    +0.000 OA
ATOM     22  C   UNL     1       6.722   5.325  16.602  0.00  0.00    +0.000 A 
ATOM     23  C   UNL     1       7.355   5.377  15.373  0.00  0.00    +0.000 A 
ATOM     24  C   UNL     1       6.758   4.737  14.321  0.00  0.00    +0.000 A 
ATOM     25  C   UNL     1       5.497   4.153  14.434  0.00  0.00    +0.000 A 
ATOM     26  C   UNL     1       4.821   4.165  15.674  0.00  0.00    +0.000 A 
ATOM     27  C   UNL     1       5.461   4.730  16.813  0.00  0.00    +0.000 A 
ATOM     28  C   UNL     1       5.110   3.577  13.096  0.00  0.00    +0.000 C 
ATOM     29  C   UNL     1       6.410   3.669  12.253  0.00  0.00    +0.000 C 
ATOM     30  C   UNL     1       7.431   4.503  13.018  0.00  0.00    +0.000 C 
ENDBRANCH  16  17
ENDBRANCH   1  16
TORSDOF 5
ENDMDL
MODEL 4
REMARK VINA RESULT:      -8.8      1.921      2.359
REMARK  Name = 
REMARK  5 active torsions:
REMARK  status: ('A' for Active; 'I' for Inactive)
REMARK    1  A    between atoms: C_2  and  O_3
REMARK    2  A    between atoms: C_2  and  C_19
REMARK    3  A    between atoms: O_3  and  C_4
REMARK    4  A    between atoms: C_4  and  C_5
REMARK    5  A    between atoms: C_22  and  N_23
REMARK                            x       y       z     vdW  Elec       q    Type
REMARK                         _______ _______ _______ _____ _____    ______ ____
ROOT
ATOM      1  O   UNL     1       3.364   6.124  19.158  0.00  0.00    +0.000 OA
ENDROOT
BRANCH   1   3
ATOM      2  O   UNL     1       3.307   7.456  17.299  0.00  0.00    +0.000 OA
ATOM      3  C   UNL     1       2.943   7.170  18.424  0.00  0.00    +0.000 C 
BRANCH   3   4
ATOM      4  C   UNL     1       2.004   7.993  19.217  0.00  0.00    +0.000 A 
ATOM      5  C   UNL     1       1.454   9.110  18.594  0.00  0.00    +0.000 A 
ATOM      6  C   UNL     1       0.622   9.976  19.308  0.00  0.00    +0.000 A 
ATOM      7  C   UNL     1       0.336   9.755  20.662  0.00  0.00    +0.000 A 
ATOM      8  C   UNL     1       0.867   8.607  21.268  0.00  0.00    +0.000 A 
ATOM      9  C   UNL     1       1.689   7.725  20.553  0.00  0.00    +0.000 A 
BRANCH   7  10
ATOM     10  N   UNL     1      -0.439  10.682  21.413  0.00  0.00    +0.000 N 
ATOM     11  C   UNL     1      -1.291  11.660  20.785  0.00  0.00    +0.000 C 
ATOM     12  C   UNL     1      -1.735  12.559  21.919  0.00  0.00    +0.000 C 
ATOM     13  C   UNL     1      -1.764  11.630  23.115  0.00  0.00    +0.000 C 
ATOM     14  C   UNL     1      -0.696  10.619  22.796  0.00  0.00    +0.000 C 
ATOM     15  O   UNL     1      -0.228   9.871  23.628  0.00  0.00    +0.000 OA
ENDBRANCH   7  10
ENDBRANCH   3   4
ENDBRANCH   1   3
BRANCH   1  16
ATOM     16  C   UNL     1       3.597   4.929  18.417  0.00  0.00    +0.000 C 
BRANCH  16  17
ATOM     17  C   UNL     1       5.034   4.951  17.995  0.00  0.00    +0.000 A 
ATOM     18  C   UNL     1       5.950   5.141  18.952  0.00  0.00    +0.000 A 
ATOM     19  C   UNL     1       7.377   5.340  18.688  0.00  0.00    +0.000 A 
ATOM     20  O   UNL     1       8.182   5.380  19.602  0.00  0.00    +0.000 OA
ATOM     21  O   UNL     1       7.716   5.591  17.387  0.00  0.00    +0.000 OA
ATOM     22  C   UNL     1       6.843   5.187  16.366  0.00  0.00    +0.000 A 
ATOM     23  C   UNL     1       7.476   5.093  15.139  0.00  0.00    +0.000 A 
ATOM     24  C   UNL     1       6.782   4.527  14.104  0.00  0.00    +0.000 A 
ATOM     25  C   UNL     1       5.442   4.166  14.229  0.00  0.00    +0.000 A 
ATOM     26  C   UNL     1       4.776   4.331  15.463  0.00  0.00    +0.000 A 
ATOM     27  C   UNL     1       5.500   4.818  16.588  0.00  0.00    +0.000 A 
ATOM     28  C   UNL     1       4.965   3.619  12.908  0.00  0.00    +0.000 C 
ATOM     29  C   UNL     1       6.263   3.466  12.070  0.00  0.00    +0.000 C 
ATOM     30  C   UNL     1       7.408   4.142  12.814  0.00  0.00    +0.000 C 
ENDBRANCH  16  17
ENDBRANCH   1  16
TORSDOF 5
ENDMDL
MODEL 5
REMARK VINA RESULT:      -8.8      2.837      4.452
REMARK  Name = 
REMARK  5 active torsions:
REMARK  status: ('A' for Active; 'I' for Inactive)
REMARK    1  A    between atoms: C_2  and  O_3
REMARK    2  A    between atoms: C_2  and  C_19
REMARK    3  A    between atoms: O_3  and  C_4
REMARK    4  A    between atoms: C_4  and  C_5
REMARK    5  A    between atoms: C_22  and  N_23
REMARK                            x       y       z     vdW  Elec       q    Type
REMARK                         _______ _______ _______ _____ _____    ______ ____
ROOT
ATOM      1  O   UNL     1       1.253   6.570  20.805  0.00  0.00    +0.000 OA
ENDROOT
BRANCH   1   3
ATOM      2  O   UNL     1       2.310   7.991  19.356  0.00  0.00    +0.000 OA
ATOM      3  C   UNL     1       1.505   7.765  20.239  0.00  0.00    +0.000 C 
BRANCH   3   4
ATOM      4  C   UNL     1       0.700   8.813  20.905  0.00  0.00    +0.000 A 
ATOM      5  C   UNL     1       0.113   9.778  20.091  0.00  0.00    +0.000 A 
ATOM      6  C   UNL     1      -0.593  10.841  20.658  0.00  0.00    +0.000 A 
ATOM      7  C   UNL     1      -0.716  10.972  22.047  0.00  0.00    +0.000 A 
ATOM      8  C   UNL     1      -0.152   9.973  22.855  0.00  0.00    +0.000 A 
ATOM      9  C   UNL     1       0.545   8.895  22.293  0.00  0.00    +0.000 A 
BRANCH   7  10
ATOM     10  N   UNL     1      -1.360  12.100  22.628  0.00  0.00    +0.000 N 
ATOM     11  C   UNL     1      -2.624  11.995  23.314  0.00  0.00    +0.000 C 
ATOM     12  C   UNL     1      -3.038  13.430  23.563  0.00  0.00    +0.000 C 
ATOM     13  C   UNL     1      -1.719  14.156  23.721  0.00  0.00    +0.000 C 
ATOM     14  C   UNL     1      -0.778  13.362  22.856  0.00  0.00    +0.000 C 
ATOM     15  O   UNL     1       0.304  13.780  22.502  0.00  0.00    +0.000 OA
ENDBRANCH   7  10
ENDBRANCH   3   4
ENDBRANCH   1   3
BRANCH   1  16
ATOM     16  C   UNL     1       2.389   5.717  20.930  0.00  0.00    +0.000 C 
BRANCH  16  17
ATOM     17  C   UNL     1       2.339   4.753  19.784  0.00  0.00    +0.000 A 
ATOM     18  C   UNL     1       1.262   3.962  19.698  0.00  0.00    +0.000 A 
ATOM     19  C   UNL     1       1.130   2.867  18.733  0.00  0.00    +0.000 A 
ATOM     20  O   UNL     1       0.078   2.263  18.613  0.00  0.00    +0.000 OA
ATOM     21  O   UNL     1       2.275   2.502  18.080  0.00  0.00    +0.000 OA
ATOM     22  C   UNL     1       3.327   3.425  17.984  0.00  0.00    +0.000 A 
ATOM     23  C   UNL     1       4.206   3.116  16.961  0.00  0.00    +0.000 A 
ATOM     24  C   UNL     1       5.164   4.039  16.642  0.00  0.00    +0.000 A 
ATOM     25  C   UNL     1       5.344   5.201  17.390  0.00  0.00    +0.000 A 
ATOM     26  C   UNL     1       4.491   5.479  18.480  0.00  0.00    +0.000 A 
ATOM     27  C   UNL     1       3.417   4.591  18.772  0.00  0.00    +0.000 A 
ATOM     28  C   UNL     1       6.500   5.975  16.809  0.00  0.00    +0.000 C 
ATOM     29  C   UNL     1       6.808   5.249  15.473  0.00  0.00    +0.000 C 
ATOM     30  C   UNL     1       6.009   3.953  15.424  0.00  0.00    +0.000 C 
ENDBRANCH  16  17
ENDBRANCH   1  16
TORSDOF 5
ENDMDL
MODEL 6
REMARK VINA RESULT:      -8.8      2.762      4.705
REMARK  Name = 
REMARK  5 active torsions:
REMARK  status: ('A' for Active; 'I' for Inactive)
REMARK    1  A    between atoms: C_2  and  O_3
REMARK    2  A    between atoms: C_2  and  C_19
REMARK    3  A    between atoms: O_3  and  C_4
REMARK    4  A    between atoms: C_4  and  C_5
REMARK    5  A    between atoms: C_22  and  N_23
REMARK                            x       y       z     vdW  Elec       q    Type
REMARK                         _______ _______ _______ _____ _____    ______ ____
ROOT
ATOM      1  O   UNL     1       1.350   8.413  18.511  0.00  0.00    +0.000 OA
ENDROOT
BRANCH   1   3
ATOM      2  O   UNL     1       2.297  10.434  18.008  0.00  0.00    +0.000 OA
ATOM      3  C   UNL     1       1.331   9.731  18.237  0.00  0.00    +0.000 C 
BRANCH   3   4
ATOM      4  C   UNL     1      -0.054  10.240  18.326  0.00  0.00    +0.000 A 
ATOM      5  C   UNL     1      -1.017   9.606  17.544  0.00  0.00    +0.000 A 
ATOM      6  C   UNL     1      -2.329  10.086  17.518  0.00  0.00    +0.000 A 
ATOM      7  C   UNL     1      -2.704  11.215  18.257  0.00  0.00    +0.000 A 
ATOM      8  C   UNL     1      -1.734  11.822  19.069  0.00  0.00    +0.000 A 
ATOM      9  C   UNL     1      -0.420  11.338  19.113  0.00  0.00    +0.000 A 
BRANCH   7  10
ATOM     10  N   UNL     1      -4.017  11.756  18.164  0.00  0.00    +0.000 N 
ATOM     11  C   UNL     1      -4.814  11.640  16.969  0.00  0.00    +0.000 C 
ATOM     12  C   UNL     1      -6.011  12.530  17.226  0.00  0.00    +0.000 C 
ATOM     13  C   UNL     1      -6.199  12.445  18.727  0.00  0.00    +0.000 C 
ATOM     14  C   UNL     1      -4.802  12.215  19.239  0.00  0.00    +0.000 C 
ATOM     15  O   UNL     1      -4.494  12.364  20.402  0.00  0.00    +0.000 OA
ENDBRANCH   7  10
ENDBRANCH   3   4
ENDBRANCH   1   3
BRANCH   1  16
ATOM     16  C   UNL     1       1.950   8.070  19.757  0.00  0.00    +0.000 C 
BRANCH  16  17
ATOM     17  C   UNL     1       2.334   6.624  19.674  0.00  0.00    +0.000 A 
ATOM     18  C   UNL     1       1.760   5.789  20.548  0.00  0.00    +0.000 A 
ATOM     19  C   UNL     1       2.138   4.382  20.700  0.00  0.00    +0.000 A 
ATOM     20  O   UNL     1       1.496   3.635  21.419  0.00  0.00    +0.000 OA
ATOM     21  O   UNL     1       3.302   4.004  20.088  0.00  0.00    +0.000 OA
ATOM     22  C   UNL     1       3.787   4.770  19.018  0.00  0.00    +0.000 A 
ATOM     23  C   UNL     1       4.681   4.066  18.230  0.00  0.00    +0.000 A 
ATOM     24  C   UNL     1       5.078   4.635  17.051  0.00  0.00    +0.000 A 
ATOM     25  C   UNL     1       4.704   5.930  16.697  0.00  0.00    +0.000 A 
ATOM     26  C   UNL     1       3.849   6.675  17.539  0.00  0.00    +0.000 A 
ATOM     27  C   UNL     1       3.334   6.072  18.721  0.00  0.00    +0.000 A 
ATOM     28  C   UNL     1       5.339   6.271  15.373  0.00  0.00    +0.000 C 
ATOM     29  C   UNL     1       5.920   4.921  14.873  0.00  0.00    +0.000 C 
ATOM     30  C   UNL     1       5.831   3.902  16.002  0.00  0.00    +0.000 C 
ENDBRANCH  16  17
ENDBRANCH   1  16
TORSDOF 5
ENDMDL
MODEL 7
REMARK VINA RESULT:      -8.7      3.872     10.908
REMARK  Name = 
REMARK  5 active torsions:
REMARK  status: ('A' for Active; 'I' for Inactive)
REMARK    1  A    between atoms: C_2  and  O_3
REMARK    2  A    between atoms: C_2  and  C_19
REMARK    3  A    between atoms: O_3  and  C_4
REMARK    4  A    between atoms: C_4  and  C_5
REMARK    5  A    between atoms: C_22  and  N_23
REMARK                            x       y       z     vdW  Elec       q    Type
REMARK                         _______ _______ _______ _____ _____    ______ ____
ROOT
ATOM      1  O   UNL     1       0.051  10.987  18.401  0.00  0.00    +0.000 OA
ENDROOT
BRANCH   1   3
ATOM      2  O   UNL     1       0.543  11.064  20.634  0.00  0.00    +0.000 OA
ATOM      3  C   UNL     1       0.586  10.523  19.546  0.00  0.00    +0.000 C 
BRANCH   3   4
ATOM      4  C   UNL     1       1.319   9.266  19.281  0.00  0.00    +0.000 A 
ATOM      5  C   UNL     1       1.770   9.053  17.981  0.00  0.00    +0.000 A 
ATOM      6  C   UNL     1       2.399   7.852  17.642  0.00  0.00    +0.000 A 
ATOM      7  C   UNL     1       2.578   6.834  18.588  0.00  0.00    +0.000 A 
ATOM      8  C   UNL     1       2.153   7.076  19.903  0.00  0.00    +0.000 A 
ATOM      9  C   UNL     1       1.535   8.284  20.254  0.00  0.00    +0.000 A 
BRANCH   7  10
ATOM     10  N   UNL     1       3.139   5.579  18.224  0.00  0.00    +0.000 N 
ATOM     11  C   UNL     1       4.492   5.215  18.561  0.00  0.00    +0.000 C 
ATOM     12  C   UNL     1       4.737   3.928  17.801  0.00  0.00    +0.000 C 
ATOM     13  C   UNL     1       3.368   3.282  17.749  0.00  0.00    +0.000 C 
ATOM     14  C   UNL     1       2.429   4.458  17.752  0.00  0.00    +0.000 C 
ATOM     15  O   UNL     1       1.259   4.368  17.445  0.00  0.00    +0.000 OA
ENDBRANCH   7  10
ENDBRANCH   3   4
ENDBRANCH   1   3
BRANCH   1  16
ATOM     16  C   UNL     1      -0.905  12.030  18.569  0.00  0.00    +0.000 C 
BRANCH  16  17
ATOM     17  C   UNL     1      -2.178  11.563  17.933  0.00  0.00    +0.000 A 
ATOM     18  C   UNL     1      -2.073  10.877  16.788  0.00  0.00    +0.000 A 
ATOM     19  C   UNL     1      -3.219  10.484  15.964  0.00  0.00    +0.000 A 
ATOM     20  O   UNL     1      -3.075   9.751  15.001  0.00  0.00    +0.000 OA
ATOM     21  O   UNL     1      -4.412  11.078  16.274  0.00  0.00    +0.000 OA
ATOM     22  C   UNL     1      -4.595  11.605  17.561  0.00  0.00    +0.000 A 
ATOM     23  C   UNL     1      -5.933  11.763  17.878  0.00  0.00    +0.000 A 
ATOM     24  C   UNL     1      -6.248  12.088  19.170  0.00  0.00    +0.000 A 
ATOM     25  C   UNL     1      -5.266  12.375  20.116  0.00  0.00    +0.000 A 
ATOM     26  C   UNL     1      -3.900  12.283  19.770  0.00  0.00    +0.000 A 
ATOM     27  C   UNL     1      -3.539  11.845  18.464  0.00  0.00    +0.000 A 
ATOM     28  C   UNL     1      -5.940  12.736  21.416  0.00  0.00    +0.000 C 
ATOM     29  C   UNL     1      -7.431  12.374  21.183  0.00  0.00    +0.000 C 
ATOM     30  C   UNL     1      -7.632  12.051  19.708  0.00  0.00    +0.000 C 
ENDBRANCH  16  17
ENDBRANCH   1  16
TORSDOF 5
ENDMDL
MODEL 8
REMARK VINA RESULT:      -8.6      5.196      7.459
REMARK  Name = 
REMARK  5 active torsions:
REMARK  status: ('A' for Active; 'I' for Inactive)
REMARK    1  A    between atoms: C_2  and  O_3
REMARK    2  A    between atoms: C_2  and  C_19
REMARK    3  A    between atoms: O_3  and  C_4
REMARK    4  A    between atoms: C_4  and  C_5
REMARK    5  A    between atoms: C_22  and  N_23
REMARK                            x       y       z     vdW  Elec       q    Type
REMARK                         _______ _______ _______ _____ _____    ______ ____
ROOT
ATOM      1  O   UNL     1       8.236   7.120  17.966  0.00  0.00    +0.000 OA
ENDROOT
BRANCH   1   3
ATOM      2  O   UNL     1       6.525   8.294  17.002  0.00  0.00    +0.000 OA
ATOM      3  C   UNL     1       7.551   8.236  17.653  0.00  0.00    +0.000 C 
BRANCH   3   4
ATOM      4  C   UNL     1       8.271   9.424  18.160  0.00  0.00    +0.000 A 
ATOM      5  C   UNL     1       8.105  10.616  17.460  0.00  0.00    +0.000 A 
ATOM      6  C   UNL     1       8.817  11.758  17.835  0.00  0.00    +0.000 A 
ATOM      7  C   UNL     1       9.721  11.730  18.905  0.00  0.00    +0.000 A 
ATOM      8  C   UNL     1       9.852  10.533  19.625  0.00  0.00    +0.000 A 
ATOM      9  C   UNL     1       9.129   9.388  19.265  0.00  0.00    +0.000 A 
BRANCH   7  10
ATOM     10  N   UNL     1      10.511  12.867  19.234  0.00  0.00    +0.000 N 
ATOM     11  C   UNL     1      10.357  13.577  20.478  0.00  0.00    +0.000 C 
ATOM     12  C   UNL     1      11.211  14.816  20.314  0.00  0.00    +0.000 C 
ATOM     13  C   UNL     1      12.329  14.357  19.401  0.00  0.00    +0.000 C 
ATOM     14  C   UNL     1      11.679  13.286  18.567  0.00  0.00    +0.000 C 
ATOM     15  O   UNL     1      12.165  12.865  17.539  0.00  0.00    +0.000 OA
ENDBRANCH   7  10
ENDBRANCH   3   4
ENDBRANCH   1   3
BRANCH   1  16
ATOM     16  C   UNL     1       7.544   6.215  18.822  0.00  0.00    +0.000 C 
BRANCH  16  17
ATOM     17  C   UNL     1       6.614   5.419  17.958  0.00  0.00    +0.000 A 
ATOM     18  C   UNL     1       7.096   4.975  16.791  0.00  0.00    +0.000 A 
ATOM     19  C   UNL     1       6.277   4.319  15.769  0.00  0.00    +0.000 A 
ATOM     20  O   UNL     1       6.790   3.820  14.782  0.00  0.00    +0.000 OA
ATOM     21  O   UNL     1       4.922   4.408  15.936  0.00  0.00    +0.000 OA
ATOM     22  C   UNL     1       4.411   4.659  17.218  0.00  0.00    +0.000 A 
ATOM     23  C   UNL     1       3.082   4.293  17.335  0.00  0.00    +0.000 A 
ATOM     24  C   UNL     1       2.523   4.310  18.584  0.00  0.00    +0.000 A 
ATOM     25  C   UNL     1       3.214   4.794  19.693  0.00  0.00    +0.000 A 
ATOM     26  C   UNL     1       4.549   5.235  19.557  0.00  0.00    +0.000 A 
ATOM     27  C   UNL     1       5.193   5.131  18.292  0.00  0.00    +0.000 A 
ATOM     28  C   UNL     1       2.310   4.717  20.897  0.00  0.00    +0.000 C 
ATOM     29  C   UNL     1       1.094   3.888  20.404  0.00  0.00    +0.000 C 
ATOM     30  C   UNL     1       1.197   3.717  18.894  0.00  0.00    +0.000 C 
ENDBRANCH  16  17
ENDBRANCH   1  16
TORSDOF 5
ENDMDL
MODEL 9
REMARK VINA RESULT:      -8.6      5.060      7.146
REMARK  Name = 
REMARK  5 active torsions:
REMARK  status: ('A' for Active; 'I' for Inactive)
REMARK    1  A    between atoms: C_2  and  O_3
REMARK    2  A    between atoms: C_2  and  C_19
REMARK    3  A    between atoms: O_3  and  C_4
REMARK    4  A    between atoms: C_4  and  C_5
REMARK    5  A    between atoms: C_22  and  N_23
REMARK                            x       y       z     vdW  Elec       q    Type
REMARK                         _______ _______ _______ _____ _____    ______ ____
ROOT
ATOM      1  O   UNL     1       7.274   7.935  17.044  0.00  0.00    +0.000 OA
ENDROOT
BRANCH   1   3
ATOM      2  O   UNL     1       8.411   7.101  18.846  0.00  0.00    +0.000 OA
ATOM      3  C   UNL     1       8.098   8.014  18.106  0.00  0.00    +0.000 C 
BRANCH   3   4
ATOM      4  C   UNL     1       8.528   9.415  18.302  0.00  0.00    +0.000 A 
ATOM      5  C   UNL     1       9.281   9.697  19.439  0.00  0.00    +0.000 A 
ATOM      6  C   UNL     1       9.653  11.012  19.728  0.00  0.00    +0.000 A 
ATOM      7  C   UNL     1       9.269  12.074  18.899  0.00  0.00    +0.000 A 
ATOM      8  C   UNL     1       8.542  11.773  17.738  0.00  0.00    +0.000 A 
ATOM      9  C   UNL     1       8.179  10.454  17.432  0.00  0.00    +0.000 A 
BRANCH   7  10
ATOM     10  N   UNL     1       9.572  13.422  19.238  0.00  0.00    +0.000 N 
ATOM     11  C   UNL     1       8.664  14.249  19.993  0.00  0.00    +0.000 C 
ATOM     12  C   UNL     1       9.272  15.634  19.927  0.00  0.00    +0.000 C 
ATOM     13  C   UNL     1      10.760  15.365  19.847  0.00  0.00    +0.000 C 
ATOM     14  C   UNL     1      10.835  14.038  19.140  0.00  0.00    +0.000 C 
ATOM     15  O   UNL     1      11.857  13.612  18.646  0.00  0.00    +0.000 OA
ENDBRANCH   7  10
ENDBRANCH   3   4
ENDBRANCH   1   3
BRANCH   1  16
ATOM     16  C   UNL     1       5.893   7.804  17.369  0.00  0.00    +0.000 C 
BRANCH  16  17
ATOM     17  C   UNL     1       5.498   6.397  17.038  0.00  0.00    +0.000 A 
ATOM     18  C   UNL     1       6.227   5.759  16.115  0.00  0.00    +0.000 A 
ATOM     19  C   UNL     1       5.883   4.443  15.571  0.00  0.00    +0.000 A 
ATOM     20  O   UNL     1       6.649   3.853  14.828  0.00  0.00    +0.000 OA
ATOM     21  O   UNL     1       4.623   3.989  15.851  0.00  0.00    +0.000 OA
ATOM     22  C   UNL     1       3.944   4.510  16.962  0.00  0.00    +0.000 A 
ATOM     23  C   UNL     1       2.916   3.686  17.383  0.00  0.00    +0.000 A 
ATOM     24  C   UNL     1       2.302   3.987  18.569  0.00  0.00    +0.000 A 
ATOM     25  C   UNL     1       2.603   5.147  19.280  0.00  0.00    +0.000 A 
ATOM     26  C   UNL     1       3.604   6.026  18.809  0.00  0.00    +0.000 A 
ATOM     27  C   UNL     1       4.334   5.687  17.634  0.00  0.00    +0.000 A 
ATOM     28  C   UNL     1       1.729   5.203  20.506  0.00  0.00    +0.000 C 
ATOM     29  C   UNL     1       1.061   3.803  20.559  0.00  0.00    +0.000 C 
ATOM     30  C   UNL     1       1.362   3.067  19.259  0.00  0.00    +0.000 C 
ENDBRANCH  16  17
ENDBRANCH   1  16
TORSDOF 5
ENDMDL
