MODEL 1
REMARK VINA RESULT:      -8.0      0.000      0.000
REMARK  Name = 
REMARK  4 active torsions:
REMARK  status: ('A' for Active; 'I' for Inactive)
REMARK    1  A    between atoms: C_1  and  C_2
REMARK    2  A    between atoms: C_13  and  N_14
REMARK    3  A    between atoms: N_17  and  C_18
REMARK    4  A    between atoms: C_18  and  C_19
REMARK                            x       y       z     vdW  Elec       q    Type
REMARK                         _______ _______ _______ _____ _____    ______ ____
ROOT
ATOM      1  N   UNL     1       6.369   4.842  17.931  0.00  0.00    +0.000 N 
ATOM      2  C   UNL     1       5.134   4.474  18.373  0.00  0.00    +0.000 C 
ATOM      3  O   UNL     1       4.772   3.320  18.155  0.00  0.00    +0.000 OA
ATOM      4  N   UNL     1       4.316   5.450  18.859  0.00  0.00    +0.000 N 
ATOM      5  H   UNL     1       6.647   4.227  17.175  0.00  0.00    +0.000 HD
ATOM      6  H   UNL     1       4.747   6.298  19.188  0.00  0.00    +0.000 HD
ENDROOT
BRANCH   1  19
ATOM      7  C   UNL     1       5.646   7.203  16.192  0.00  0.00    +0.000 C 
ATOM      8  C   UNL     1       6.734   7.189  17.226  0.00  0.00    +0.000 A 
ATOM      9  N   UNL     1       7.361   8.384  17.409  0.00  0.00    +0.000 NA
ATOM     10  C   UNL     1       8.272   8.540  18.397  0.00  0.00    +0.000 A 
ATOM     11  N   UNL     1       8.929   9.753  18.510  0.00  0.00    +0.000 N 
ATOM     12  C   UNL     1       8.484  10.840  17.618  0.00  0.00    +0.000 C 
ATOM     13  C   UNL     1       9.644  11.837  17.457  0.00  0.00    +0.000 C 
ATOM     14  O   UNL     1      10.084  12.353  18.728  0.00  0.00    +0.000 OA
ATOM     15  C   UNL     1      10.496  11.280  19.590  0.00  0.00    +0.000 C 
ATOM     16  C   UNL     1       9.360  10.268  19.820  0.00  0.00    +0.000 C 
ATOM     17  C   UNL     1       8.590   7.459  19.212  0.00  0.00    +0.000 A 
ATOM     18  C   UNL     1       7.949   6.235  19.038  0.00  0.00    +0.000 A 
ATOM     19  C   UNL     1       7.025   6.077  18.013  0.00  0.00    +0.000 A 
ENDBRANCH   1  19
BRANCH   4  20
ATOM     20  C   UNL     1       2.921   5.225  19.247  0.00  0.00    +0.000 C 
ATOM     21  C   UNL     1       2.780   4.167  20.381  0.00  0.00    +0.000 C 
ATOM     22  C   UNL     1       1.402   3.534  20.227  0.00  0.00    +0.000 C 
ATOM     23  C   UNL     1       0.982   3.799  18.787  0.00  0.00    +0.000 C 
ATOM     24  C   UNL     1       2.207   4.421  18.122  0.00  0.00    +0.000 C 
BRANCH  20  25
ATOM     25  C   UNL     1       2.253   6.581  19.550  0.00  0.00    +0.000 A 
ATOM     26  C   UNL     1       2.240   7.633  18.611  0.00  0.00    +0.000 A 
ATOM     27  C   UNL     1       1.624   8.858  18.901  0.00  0.00    +0.000 A 
ATOM     28  C   UNL     1       1.036   9.054  20.140  0.00  0.00    +0.000 A 
ATOM     29  F   UNL     1       0.442  10.224  20.414  0.00  0.00    +0.000 F 
ATOM     30  C   UNL     1       1.067   8.058  21.102  0.00  0.00    +0.000 A 
ATOM     31  C   UNL     1       1.682   6.835  20.812  0.00  0.00    +0.000 A 
ENDBRANCH  20  25
ENDBRANCH   4  20
TORSDOF 3
ENDMDL
MODEL 2
REMARK VINA RESULT:      -7.6      3.924      6.686
REMARK  Name = 
REMARK  4 active torsions:
REMARK  status: ('A' for Active; 'I' for Inactive)
REMARK    1  A    between atoms: C_1  and  C_2
REMARK    2  A    between atoms: C_13  and  N_14
REMARK    3  A    between atoms: N_17  and  C_18
REMARK    4  A    between atoms: C_18  and  C_19
REMARK                            x       y       z     vdW  Elec       q    Type
REMARK                         _______ _______ _______ _____ _____    ______ ____
ROOT
ATOM      1  N   UNL     1       1.118   7.534  20.452  0.00  0.00    +0.000 N 
ATOM      2  C   UNL     1       0.585   8.786  20.527  0.00  0.00    +0.000 C 
ATOM      3  O   UNL     1      -0.399   8.943  21.247  0.00  0.00    +0.000 OA
ATOM      4  N   UNL     1       1.059   9.731  19.668  0.00  0.00    +0.000 N 
ATOM      5  H   UNL     1       0.408   6.856  20.706  0.00  0.00    +0.000 HD
ATOM      6  H   UNL     1       1.974   9.585  19.273  0.00  0.00    +0.000 HD
ENDROOT
BRANCH   1  19
ATOM      7  C   UNL     1       2.513   4.926  21.062  0.00  0.00    +0.000 C 
ATOM      8  C   UNL     1       2.885   5.870  19.956  0.00  0.00    +0.000 A 
ATOM      9  N   UNL     1       3.886   5.429  19.144  0.00  0.00    +0.000 NA
ATOM     10  C   UNL     1       4.231   6.125  18.036  0.00  0.00    +0.000 A 
ATOM     11  N   UNL     1       5.293   5.674  17.272  0.00  0.00    +0.000 N 
ATOM     12  C   UNL     1       5.890   4.381  17.654  0.00  0.00    +0.000 C 
ATOM     13  C   UNL     1       7.335   4.343  17.129  0.00  0.00    +0.000 C 
ATOM     14  O   UNL     1       7.391   4.542  15.704  0.00  0.00    +0.000 OA
ATOM     15  C   UNL     1       6.789   5.797  15.348  0.00  0.00    +0.000 C 
ATOM     16  C   UNL     1       5.325   5.878  15.814  0.00  0.00    +0.000 C 
ATOM     17  C   UNL     1       3.574   7.315  17.742  0.00  0.00    +0.000 A 
ATOM     18  C   UNL     1       2.543   7.770  18.562  0.00  0.00    +0.000 A 
ATOM     19  C   UNL     1       2.204   7.060  19.706  0.00  0.00    +0.000 A 
ENDBRANCH   1  19
BRANCH   4  20
ATOM     20  C   UNL     1       0.494  11.077  19.546  0.00  0.00    +0.000 C 
ATOM     21  C   UNL     1       1.495  12.090  18.916  0.00  0.00    +0.000 C 
ATOM     22  C   UNL     1       1.120  13.470  19.445  0.00  0.00    +0.000 C 
ATOM     23  C   UNL     1       0.316  13.223  20.715  0.00  0.00    +0.000 C 
ATOM     24  C   UNL     1       0.409  11.720  20.961  0.00  0.00    +0.000 C 
BRANCH  20  25
ATOM     25  C   UNL     1      -0.868  10.993  18.829  0.00  0.00    +0.000 A 
ATOM     26  C   UNL     1      -2.006  11.676  19.306  0.00  0.00    +0.000 A 
ATOM     27  C   UNL     1      -3.236  11.593  18.639  0.00  0.00    +0.000 A 
ATOM     28  C   UNL     1      -3.349  10.809  17.503  0.00  0.00    +0.000 A 
ATOM     29  F   UNL     1      -4.525  10.734  16.863  0.00  0.00    +0.000 F 
ATOM     30  C   UNL     1      -2.263  10.090  17.030  0.00  0.00    +0.000 A 
ATOM     31  C   UNL     1      -1.035  10.173  17.695  0.00  0.00    +0.000 A 
ENDBRANCH  20  25
ENDBRANCH   4  20
TORSDOF 3
ENDMDL
MODEL 3
REMARK VINA RESULT:      -7.5      3.999      7.173
REMARK  Name = 
REMARK  4 active torsions:
REMARK  status: ('A' for Active; 'I' for Inactive)
REMARK    1  A    between atoms: C_1  and  C_2
REMARK    2  A    between atoms: C_13  and  N_14
REMARK    3  A    between atoms: N_17  and  C_18
REMARK    4  A    between atoms: C_18  and  C_19
REMARK                            x       y       z     vdW  Elec       q    Type
REMARK                         _______ _______ _______ _____ _____    ______ ____
ROOT
ATOM      1  N   UNL     1       2.093   6.484  18.510  0.00  0.00    +0.000 N 
ATOM      2  C   UNL     1       3.284   5.934  18.144  0.00  0.00    +0.000 C 
ATOM      3  O   UNL     1       3.332   4.712  18.016  0.00  0.00    +0.000 OA
ATOM      4  N   UNL     1       4.378   6.746  18.122  0.00  0.00    +0.000 N 
ATOM      5  H   UNL     1       1.532   5.779  18.976  0.00  0.00    +0.000 HD
ATOM      6  H   UNL     1       4.222   7.736  18.037  0.00  0.00    +0.000 HD
ENDROOT
BRANCH   1  19
ATOM      7  C   UNL     1       1.308   7.508  21.242  0.00  0.00    +0.000 C 
ATOM      8  C   UNL     1       1.375   8.336  19.991  0.00  0.00    +0.000 A 
ATOM      9  N   UNL     1       1.130   9.664  20.173  0.00  0.00    +0.000 NA
ATOM     10  C   UNL     1       1.282  10.539  19.153  0.00  0.00    +0.000 A 
ATOM     11  N   UNL     1       0.965  11.869  19.366  0.00  0.00    +0.000 N 
ATOM     12  C   UNL     1       0.608  12.260  20.742  0.00  0.00    +0.000 C 
ATOM     13  C   UNL     1      -0.250  13.534  20.674  0.00  0.00    +0.000 C 
ATOM     14  O   UNL     1       0.433  14.601  19.990  0.00  0.00    +0.000 OA
ATOM     15  C   UNL     1       0.788  14.198  18.658  0.00  0.00    +0.000 C 
ATOM     16  C   UNL     1       1.684  12.946  18.664  0.00  0.00    +0.000 C 
ATOM     17  C   UNL     1       1.665  10.070  17.900  0.00  0.00    +0.000 A 
ATOM     18  C   UNL     1       1.925   8.716  17.706  0.00  0.00    +0.000 A 
ATOM     19  C   UNL     1       1.752   7.821  18.753  0.00  0.00    +0.000 A 
ENDBRANCH   1  19
BRANCH   4  20
ATOM     20  C   UNL     1       5.741   6.268  17.875  0.00  0.00    +0.000 C 
ATOM     21  C   UNL     1       6.337   5.504  19.095  0.00  0.00    +0.000 C 
ATOM     22  C   UNL     1       7.851   5.665  19.020  0.00  0.00    +0.000 C 
ATOM     23  C   UNL     1       8.096   6.887  18.145  0.00  0.00    +0.000 C 
ATOM     24  C   UNL     1       6.714   7.482  17.893  0.00  0.00    +0.000 C 
BRANCH  20  25
ATOM     25  C   UNL     1       5.770   5.480  16.550  0.00  0.00    +0.000 A 
ATOM     26  C   UNL     1       6.201   4.138  16.489  0.00  0.00    +0.000 A 
ATOM     27  C   UNL     1       6.217   3.435  15.277  0.00  0.00    +0.000 A 
ATOM     28  C   UNL     1       5.827   4.070  14.109  0.00  0.00    +0.000 A 
ATOM     29  F   UNL     1       5.838   3.394  12.952  0.00  0.00    +0.000 F 
ATOM     30  C   UNL     1       5.439   5.400  14.124  0.00  0.00    +0.000 A 
ATOM     31  C   UNL     1       5.422   6.102  15.335  0.00  0.00    +0.000 A 
ENDBRANCH  20  25
ENDBRANCH   4  20
TORSDOF 3
ENDMDL
MODEL 4
REMARK VINA RESULT:      -7.5      4.540      7.417
REMARK  Name = 
REMARK  4 active torsions:
REMARK  status: ('A' for Active; 'I' for Inactive)
REMARK    1  A    between atoms: C_1  and  C_2
REMARK    2  A    between atoms: C_13  and  N_14
REMARK    3  A    between atoms: N_17  and  C_18
REMARK    4  A    between atoms: C_18  and  C_19
REMARK                            x       y       z     vdW  Elec       q    Type
REMARK                         _______ _______ _______ _____ _____    ______ ____
ROOT
ATOM      1  N   UNL     1       2.432   9.243  17.730  0.00  0.00    +0.000 N 
ATOM      2  C   UNL     1       2.786   7.927  17.703  0.00  0.00    +0.000 C 
ATOM      3  O   UNL     1       3.376   7.518  16.705  0.00  0.00    +0.000 OA
ATOM      4  N   UNL     1       2.307   7.120  18.690  0.00  0.00    +0.000 N 
ATOM      5  H   UNL     1       2.380   9.591  16.780  0.00  0.00    +0.000 HD
ATOM      6  H   UNL     1       2.019   7.556  19.550  0.00  0.00    +0.000 HD
ENDROOT
BRANCH   1  19
ATOM      7  C   UNL     1       2.593  12.250  17.956  0.00  0.00    +0.000 C 
ATOM      8  C   UNL     1       1.792  11.355  18.856  0.00  0.00    +0.000 A 
ATOM      9  N   UNL     1       1.034  12.007  19.781  0.00  0.00    +0.000 NA
ATOM     10  C   UNL     1       0.171  11.326  20.569  0.00  0.00    +0.000 A 
ATOM     11  N   UNL     1      -0.535  12.020  21.536  0.00  0.00    +0.000 N 
ATOM     12  C   UNL     1      -0.391  13.488  21.545  0.00  0.00    +0.000 C 
ATOM     13  C   UNL     1      -0.721  13.996  22.959  0.00  0.00    +0.000 C 
ATOM     14  O   UNL     1      -2.043  13.600  23.372  0.00  0.00    +0.000 OA
ATOM     15  C   UNL     1      -2.171  12.169  23.340  0.00  0.00    +0.000 C 
ATOM     16  C   UNL     1      -1.890  11.605  21.937  0.00  0.00    +0.000 C 
ATOM     17  C   UNL     1       0.081   9.943  20.451  0.00  0.00    +0.000 A 
ATOM     18  C   UNL     1       0.845   9.268  19.503  0.00  0.00    +0.000 A 
ATOM     19  C   UNL     1       1.741   9.970  18.707  0.00  0.00    +0.000 A 
ENDBRANCH   1  19
BRANCH   4  20
ATOM     20  C   UNL     1       2.497   5.667  18.717  0.00  0.00    +0.000 C 
ATOM     21  C   UNL     1       1.485   4.915  17.802  0.00  0.00    +0.000 C 
ATOM     22  C   UNL     1       1.304   3.522  18.395  0.00  0.00    +0.000 C 
ATOM     23  C   UNL     1       1.744   3.629  19.849  0.00  0.00    +0.000 C 
ATOM     24  C   UNL     1       1.994   5.116  20.082  0.00  0.00    +0.000 C 
BRANCH  20  25
ATOM     25  C   UNL     1       3.978   5.343  18.434  0.00  0.00    +0.000 A 
ATOM     26  C   UNL     1       4.388   4.697  17.249  0.00  0.00    +0.000 A 
ATOM     27  C   UNL     1       5.739   4.414  17.005  0.00  0.00    +0.000 A 
ATOM     28  C   UNL     1       6.692   4.751  17.952  0.00  0.00    +0.000 A 
ATOM     29  F   UNL     1       7.984   4.485  17.715  0.00  0.00    +0.000 F 
ATOM     30  C   UNL     1       6.322   5.348  19.146  0.00  0.00    +0.000 A 
ATOM     31  C   UNL     1       4.973   5.631  19.389  0.00  0.00    +0.000 A 
ENDBRANCH  20  25
ENDBRANCH   4  20
TORSDOF 3
ENDMDL
MODEL 5
REMARK VINA RESULT:      -7.4      0.891      1.708
REMARK  Name = 
REMARK  4 active torsions:
REMARK  status: ('A' for Active; 'I' for Inactive)
REMARK    1  A    between atoms: C_1  and  C_2
REMARK    2  A    between atoms: C_13  and  N_14
REMARK    3  A    between atoms: N_17  and  C_18
REMARK    4  A    between atoms: C_18  and  C_19
REMARK                            x       y       z     vdW  Elec       q    Type
REMARK                         _______ _______ _______ _____ _____    ______ ____
ROOT
ATOM      1  N   UNL     1       6.622   5.619  17.428  0.00  0.00    +0.000 N 
ATOM      2  C   UNL     1       5.413   5.091  17.767  0.00  0.00    +0.000 C 
ATOM      3  O   UNL     1       5.091   4.026  17.243  0.00  0.00    +0.000 OA
ATOM      4  N   UNL     1       4.571   5.859  18.513  0.00  0.00    +0.000 N 
ATOM      5  H   UNL     1       6.905   5.249  16.528  0.00  0.00    +0.000 HD
ATOM      6  H   UNL     1       4.976   6.602  19.058  0.00  0.00    +0.000 HD
ENDROOT
BRANCH   1  19
ATOM      7  C   UNL     1       8.479   5.778  19.806  0.00  0.00    +0.000 C 
ATOM      8  C   UNL     1       8.087   6.935  18.933  0.00  0.00    +0.000 A 
ATOM      9  N   UNL     1       8.707   8.110  19.232  0.00  0.00    +0.000 NA
ATOM     10  C   UNL     1       8.539   9.198  18.445  0.00  0.00    +0.000 A 
ATOM     11  N   UNL     1       9.140  10.387  18.818  0.00  0.00    +0.000 N 
ATOM     12  C   UNL     1      10.037  10.345  19.988  0.00  0.00    +0.000 C 
ATOM     13  C   UNL     1      10.115  11.759  20.588  0.00  0.00    +0.000 C 
ATOM     14  O   UNL     1      10.566  12.725  19.619  0.00  0.00    +0.000 OA
ATOM     15  C   UNL     1       9.691  12.740  18.480  0.00  0.00    +0.000 C 
ATOM     16  C   UNL     1       9.604  11.356  17.812  0.00  0.00    +0.000 C 
ATOM     17  C   UNL     1       7.701   9.119  17.337  0.00  0.00    +0.000 A 
ATOM     18  C   UNL     1       7.068   7.920  17.019  0.00  0.00    +0.000 A 
ATOM     19  C   UNL     1       7.233   6.811  17.839  0.00  0.00    +0.000 A 
ENDBRANCH   1  19
BRANCH   4  20
ATOM     20  C   UNL     1       3.195   5.475  18.841  0.00  0.00    +0.000 C 
ATOM     21  C   UNL     1       3.130   4.293  19.853  0.00  0.00    +0.000 C 
ATOM     22  C   UNL     1       1.814   3.566  19.599  0.00  0.00    +0.000 C 
ATOM     23  C   UNL     1       1.395   3.948  18.186  0.00  0.00    +0.000 C 
ATOM     24  C   UNL     1       2.570   4.740  17.620  0.00  0.00    +0.000 C 
BRANCH  20  25
ATOM     25  C   UNL     1       2.407   6.729  19.270  0.00  0.00    +0.000 A 
ATOM     26  C   UNL     1       2.182   7.807  18.389  0.00  0.00    +0.000 A 
ATOM     27  C   UNL     1       1.459   8.937  18.793  0.00  0.00    +0.000 A 
ATOM     28  C   UNL     1       0.974   9.014  20.088  0.00  0.00    +0.000 A 
ATOM     29  F   UNL     1       0.278  10.094  20.472  0.00  0.00    +0.000 F 
ATOM     30  C   UNL     1       1.212   7.994  20.994  0.00  0.00    +0.000 A 
ATOM     31  C   UNL     1       1.934   6.865  20.590  0.00  0.00    +0.000 A 
ENDBRANCH  20  25
ENDBRANCH   4  20
TORSDOF 3
ENDMDL
MODEL 6
REMARK VINA RESULT:      -7.4      3.328      7.004
REMARK  Name = 
REMARK  4 active torsions:
REMARK  status: ('A' for Active; 'I' for Inactive)
REMARK    1  A    between atoms: C_1  and  C_2
REMARK    2  A    between atoms: C_13  and  N_14
REMARK    3  A    between atoms: N_17  and  C_18
REMARK    4  A    between atoms: C_18  and  C_19
REMARK                            x       y       z     vdW  Elec       q    Type
REMARK                         _______ _______ _______ _____ _____    ______ ____
ROOT
ATOM      1  N   UNL     1       2.468   4.852  18.225  0.00  0.00    +0.000 N 
ATOM      2  C   UNL     1       3.572   4.724  17.437  0.00  0.00    +0.000 C 
ATOM      3  O   UNL     1       3.777   3.628  16.919  0.00  0.00    +0.000 OA
ATOM      4  N   UNL     1       4.465   5.753  17.424  0.00  0.00    +0.000 N 
ATOM      5  H   UNL     1       2.191   3.936  18.558  0.00  0.00    +0.000 HD
ATOM      6  H   UNL     1       4.133   6.663  17.697  0.00  0.00    +0.000 HD
ENDROOT
BRANCH   1  19
ATOM      7  C   UNL     1       1.980   4.764  21.205  0.00  0.00    +0.000 C 
ATOM      8  C   UNL     1       1.753   5.958  20.324  0.00  0.00    +0.000 A 
ATOM      9  N   UNL     1       1.373   7.088  20.984  0.00  0.00    +0.000 NA
ATOM     10  C   UNL     1       1.259   8.264  20.325  0.00  0.00    +0.000 A 
ATOM     11  N   UNL     1       0.812   9.375  21.021  0.00  0.00    +0.000 N 
ATOM     12  C   UNL     1       0.620   9.220  22.475  0.00  0.00    +0.000 C 
ATOM     13  C   UNL     1      -0.393  10.278  22.943  0.00  0.00    +0.000 C 
ATOM     14  O   UNL     1       0.040  11.612  22.613  0.00  0.00    +0.000 OA
ATOM     15  C   UNL     1       0.239  11.740  21.196  0.00  0.00    +0.000 C 
ATOM     16  C   UNL     1       1.276  10.729  20.675  0.00  0.00    +0.000 C 
ATOM     17  C   UNL     1       1.505   8.310  18.957  0.00  0.00    +0.000 A 
ATOM     18  C   UNL     1       1.901   7.162  18.275  0.00  0.00    +0.000 A 
ATOM     19  C   UNL     1       2.002   5.955  18.953  0.00  0.00    +0.000 A 
ENDBRANCH   1  19
BRANCH   4  20
ATOM     20  C   UNL     1       5.754   5.702  16.729  0.00  0.00    +0.000 C 
ATOM     21  C   UNL     1       5.611   5.894  15.190  0.00  0.00    +0.000 C 
ATOM     22  C   UNL     1       6.789   5.175  14.543  0.00  0.00    +0.000 C 
ATOM     23  C   UNL     1       7.282   4.172  15.577  0.00  0.00    +0.000 C 
ATOM     24  C   UNL     1       6.261   4.231  16.709  0.00  0.00    +0.000 C 
BRANCH  20  25
ATOM     25  C   UNL     1       6.736   6.679  17.406  0.00  0.00    +0.000 A 
ATOM     26  C   UNL     1       6.878   8.014  16.974  0.00  0.00    +0.000 A 
ATOM     27  C   UNL     1       7.772   8.891  17.604  0.00  0.00    +0.000 A 
ATOM     28  C   UNL     1       8.550   8.438  18.657  0.00  0.00    +0.000 A 
ATOM     29  F   UNL     1       9.400   9.279  19.262  0.00  0.00    +0.000 F 
ATOM     30  C   UNL     1       8.468   7.121  19.080  0.00  0.00    +0.000 A 
ATOM     31  C   UNL     1       7.576   6.246  18.451  0.00  0.00    +0.000 A 
ENDBRANCH  20  25
ENDBRANCH   4  20
TORSDOF 3
ENDMDL
MODEL 7
REMARK VINA RESULT:      -7.3      3.913      6.539
REMARK  Name = 
REMARK  4 active torsions:
REMARK  status: ('A' for Active; 'I' for Inactive)
REMARK    1  A    between atoms: C_1  and  C_2
REMARK    2  A    between atoms: C_13  and  N_14
REMARK    3  A    between atoms: N_17  and  C_18
REMARK    4  A    between atoms: C_18  and  C_19
REMARK                            x       y       z     vdW  Elec       q    Type
REMARK                         _______ _______ _______ _____ _____    ______ ____
ROOT
ATOM      1  N   UNL     1       1.082   7.026  21.241  0.00  0.00    +0.000 N 
ATOM      2  C   UNL     1       1.608   5.944  20.602  0.00  0.00    +0.000 C 
ATOM      3  O   UNL     1       1.487   4.847  21.145  0.00  0.00    +0.000 OA
ATOM      4  N   UNL     1       2.386   6.170  19.506  0.00  0.00    +0.000 N 
ATOM      5  H   UNL     1       0.999   6.818  22.230  0.00  0.00    +0.000 HD
ATOM      6  H   UNL     1       2.267   7.044  19.022  0.00  0.00    +0.000 HD
ENDROOT
BRANCH   1  19
ATOM      7  C   UNL     1       0.537   9.252  23.208  0.00  0.00    +0.000 C 
ATOM      8  C   UNL     1       0.835   9.439  21.748  0.00  0.00    +0.000 A 
ATOM      9  N   UNL     1       0.935  10.737  21.349  0.00  0.00    +0.000 NA
ATOM     10  C   UNL     1       1.324  11.042  20.089  0.00  0.00    +0.000 A 
ATOM     11  N   UNL     1       1.354  12.372  19.707  0.00  0.00    +0.000 N 
ATOM     12  C   UNL     1       1.084  13.374  20.754  0.00  0.00    +0.000 C 
ATOM     13  C   UNL     1       0.581  14.659  20.073  0.00  0.00    +0.000 C 
ATOM     14  O   UNL     1       1.527  15.155  19.107  0.00  0.00    +0.000 OA
ATOM     15  C   UNL     1       1.791  14.160  18.105  0.00  0.00    +0.000 C 
ATOM     16  C   UNL     1       2.336  12.861  18.725  0.00  0.00    +0.000 C 
ATOM     17  C   UNL     1       1.597  10.017  19.189  0.00  0.00    +0.000 A 
ATOM     18  C   UNL     1       1.505   8.686  19.591  0.00  0.00    +0.000 A 
ATOM     19  C   UNL     1       1.091   8.379  20.880  0.00  0.00    +0.000 A 
ENDBRANCH   1  19
BRANCH   4  20
ATOM     20  C   UNL     1       3.120   5.117  18.799  0.00  0.00    +0.000 C 
ATOM     21  C   UNL     1       2.266   4.436  17.689  0.00  0.00    +0.000 C 
ATOM     22  C   UNL     1       2.807   3.021  17.521  0.00  0.00    +0.000 C 
ATOM     23  C   UNL     1       3.554   2.706  18.810  0.00  0.00    +0.000 C 
ATOM     24  C   UNL     1       3.266   3.884  19.736  0.00  0.00    +0.000 C 
BRANCH  20  25
ATOM     25  C   UNL     1       4.471   5.680  18.312  0.00  0.00    +0.000 A 
ATOM     26  C   UNL     1       5.678   5.415  18.991  0.00  0.00    +0.000 A 
ATOM     27  C   UNL     1       6.898   5.931  18.532  0.00  0.00    +0.000 A 
ATOM     28  C   UNL     1       6.923   6.735  17.405  0.00  0.00    +0.000 A 
ATOM     29  F   UNL     1       8.091   7.223  16.965  0.00  0.00    +0.000 F 
ATOM     30  C   UNL     1       5.751   7.051  16.737  0.00  0.00    +0.000 A 
ATOM     31  C   UNL     1       4.533   6.536  17.195  0.00  0.00    +0.000 A 
ENDBRANCH  20  25
ENDBRANCH   4  20
TORSDOF 3
ENDMDL
MODEL 8
REMARK VINA RESULT:      -7.3      5.443      8.845
REMARK  Name = 
REMARK  4 active torsions:
REMARK  status: ('A' for Active; 'I' for Inactive)
REMARK    1  A    between atoms: C_1  and  C_2
REMARK    2  A    between atoms: C_13  and  N_14
REMARK    3  A    between atoms: N_17  and  C_18
REMARK    4  A    between atoms: C_18  and  C_19
REMARK                            x       y       z     vdW  Elec       q    Type
REMARK                         _______ _______ _______ _____ _____    ______ ____
ROOT
ATOM      1  N   UNL     1       0.164  11.432  19.581  0.00  0.00    +0.000 N 
ATOM      2  C   UNL     1       0.553  12.654  20.040  0.00  0.00    +0.000 C 
ATOM      3  O   UNL     1      -0.284  13.555  20.041  0.00  0.00    +0.000 OA
ATOM      4  N   UNL     1       1.878  12.846  20.293  0.00  0.00    +0.000 N 
ATOM      5  H   UNL     1      -0.638  11.547  18.972  0.00  0.00    +0.000 HD
ATOM      6  H   UNL     1       2.443  12.030  20.464  0.00  0.00    +0.000 HD
ENDROOT
BRANCH   1  19
ATOM      7  C   UNL     1       0.244   9.293  21.713  0.00  0.00    +0.000 C 
ATOM      8  C   UNL     1       0.971   9.237  20.400  0.00  0.00    +0.000 A 
ATOM      9  N   UNL     1       1.640   8.074  20.170  0.00  0.00    +0.000 NA
ATOM     10  C   UNL     1       2.231   7.844  18.974  0.00  0.00    +0.000 A 
ATOM     11  N   UNL     1       2.951   6.675  18.802  0.00  0.00    +0.000 N 
ATOM     12  C   UNL     1       2.909   5.696  19.904  0.00  0.00    +0.000 C 
ATOM     13  C   UNL     1       4.164   4.812  19.813  0.00  0.00    +0.000 C 
ATOM     14  O   UNL     1       4.263   4.155  18.535  0.00  0.00    +0.000 OA
ATOM     15  C   UNL     1       4.285   5.123  17.473  0.00  0.00    +0.000 C 
ATOM     16  C   UNL     1       3.029   6.013  17.489  0.00  0.00    +0.000 C 
ATOM     17  C   UNL     1       2.175   8.820  17.984  0.00  0.00    +0.000 A 
ATOM     18  C   UNL     1       1.487  10.010  18.208  0.00  0.00    +0.000 A 
ATOM     19  C   UNL     1       0.896  10.246  19.442  0.00  0.00    +0.000 A 
ENDBRANCH   1  19
BRANCH   4  20
ATOM     20  C   UNL     1       2.457  14.139  20.664  0.00  0.00    +0.000 C 
ATOM     21  C   UNL     1       3.787  13.991  21.462  0.00  0.00    +0.000 C 
ATOM     22  C   UNL     1       3.917  15.231  22.339  0.00  0.00    +0.000 C 
ATOM     23  C   UNL     1       2.510  15.800  22.465  0.00  0.00    +0.000 C 
ATOM     24  C   UNL     1       1.601  14.770  21.800  0.00  0.00    +0.000 C 
BRANCH  20  25
ATOM     25  C   UNL     1       2.560  15.029  19.409  0.00  0.00    +0.000 A 
ATOM     26  C   UNL     1       3.526  14.800  18.408  0.00  0.00    +0.000 A 
ATOM     27  C   UNL     1       3.603  15.616  17.271  0.00  0.00    +0.000 A 
ATOM     28  C   UNL     1       2.732  16.683  17.133  0.00  0.00    +0.000 A 
ATOM     29  F   UNL     1       2.803  17.459  16.042  0.00  0.00    +0.000 F 
ATOM     30  C   UNL     1       1.798  16.965  18.116  0.00  0.00    +0.000 A 
ATOM     31  C   UNL     1       1.721  16.150  19.251  0.00  0.00    +0.000 A 
ENDBRANCH  20  25
ENDBRANCH   4  20
TORSDOF 3
ENDMDL
MODEL 9
REMARK VINA RESULT:      -7.2      5.555     10.641
REMARK  Name = 
REMARK  4 active torsions:
REMARK  status: ('A' for Active; 'I' for Inactive)
REMARK    1  A    between atoms: C_1  and  C_2
REMARK    2  A    between atoms: C_13  and  N_14
REMARK    3  A    between atoms: N_17  and  C_18
REMARK    4  A    between atoms: C_18  and  C_19
REMARK                            x       y       z     vdW  Elec       q    Type
REMARK                         _______ _______ _______ _____ _____    ______ ____
ROOT
ATOM      1  N   UNL     1       4.638  16.339  19.078  0.00  0.00    +0.000 N 
ATOM      2  C   UNL     1       5.997  16.425  19.102  0.00  0.00    +0.000 C 
ATOM      3  O   UNL     1       6.501  17.529  18.905  0.00  0.00    +0.000 OA
ATOM      4  N   UNL     1       6.707  15.263  19.158  0.00  0.00    +0.000 N 
ATOM      5  H   UNL     1       4.266  17.115  18.542  0.00  0.00    +0.000 HD
ATOM      6  H   UNL     1       6.238  14.447  19.516  0.00  0.00    +0.000 HD
ENDROOT
BRANCH   1  19
ATOM      7  C   UNL     1       3.828  15.277  21.787  0.00  0.00    +0.000 C 
ATOM      8  C   UNL     1       3.409  14.696  20.468  0.00  0.00    +0.000 A 
ATOM      9  N   UNL     1       2.532  13.658  20.555  0.00  0.00    +0.000 NA
ATOM     10  C   UNL     1       1.980  13.127  19.440  0.00  0.00    +0.000 A 
ATOM     11  N   UNL     1       1.139  12.035  19.570  0.00  0.00    +0.000 N 
ATOM     12  C   UNL     1       0.800  11.612  20.941  0.00  0.00    +0.000 C 
ATOM     13  C   UNL     1       0.399  10.127  20.902  0.00  0.00    +0.000 C 
ATOM     14  O   UNL     1      -0.699   9.896  19.999  0.00  0.00    +0.000 OA
ATOM     15  C   UNL     1      -0.359  10.330  18.672  0.00  0.00    +0.000 C 
ATOM     16  C   UNL     1       0.015  11.823  18.642  0.00  0.00    +0.000 C 
ATOM     17  C   UNL     1       2.336  13.630  18.193  0.00  0.00    +0.000 A 
ATOM     18  C   UNL     1       3.226  14.697  18.094  0.00  0.00    +0.000 A 
ATOM     19  C   UNL     1       3.802  15.227  19.241  0.00  0.00    +0.000 A 
ENDBRANCH   1  19
BRANCH   4  20
ATOM     20  C   UNL     1       8.167  15.195  19.059  0.00  0.00    +0.000 C 
ATOM     21  C   UNL     1       8.878  16.151  20.062  0.00  0.00    +0.000 C 
ATOM     22  C   UNL     1      10.227  16.511  19.448  0.00  0.00    +0.000 C 
ATOM     23  C   UNL     1      10.091  16.238  17.956  0.00  0.00    +0.000 C 
ATOM     24  C   UNL     1       8.618  15.897  17.745  0.00  0.00    +0.000 C 
BRANCH  20  25
ATOM     25  C   UNL     1       8.615  13.723  19.151  0.00  0.00    +0.000 A 
ATOM     26  C   UNL     1       9.025  13.142  20.369  0.00  0.00    +0.000 A 
ATOM     27  C   UNL     1       9.424  11.800  20.436  0.00  0.00    +0.000 A 
ATOM     28  C   UNL     1       9.442  11.031  19.285  0.00  0.00    +0.000 A 
ATOM     29  F   UNL     1       9.819   9.746  19.352  0.00  0.00    +0.000 F 
ATOM     30  C   UNL     1       9.086  11.579  18.063  0.00  0.00    +0.000 A 
ATOM     31  C   UNL     1       8.687  12.919  17.996  0.00  0.00    +0.000 A 
ENDBRANCH  20  25
ENDBRANCH   4  20
TORSDOF 3
ENDMDL
