MODEL 1
REMARK VINA RESULT:      -8.6      0.000      0.000
REMARK  Name = 
REMARK  5 active torsions:
REMARK  status: ('A' for Active; 'I' for Inactive)
REMARK    1  A    between atoms: C_2  and  C_3
REMARK    2  A    between atoms: C_6  and  N_7
REMARK    3  A    between atoms: C_10  and  C_11
REMARK    4  A    between atoms: C_22  and  O_23
REMARK    5  A    between atoms: C_22  and  C_24
REMARK                            x       y       z     vdW  Elec       q    Type
REMARK                         _______ _______ _______ _____ _____    ______ ____
ROOT
ATOM      1  C   UNL     1       2.757   7.585  18.330  0.00  0.00    +0.000 A 
ATOM      2  C   UNL     1       2.339   8.674  17.556  0.00  0.00    +0.000 A 
ATOM      3  C   UNL     1       1.456   9.621  18.085  0.00  0.00    +0.000 A 
ATOM      4  C   UNL     1       0.977   9.479  19.395  0.00  0.00    +0.000 A 
ATOM      5  C   UNL     1       1.404   8.397  20.174  0.00  0.00    +0.000 A 
ATOM      6  C   UNL     1       2.320   7.482  19.656  0.00  0.00    +0.000 A 
ENDROOT
BRANCH   1   8
ATOM      7  O   UNL     1       4.490   7.056  16.873  0.00  0.00    +0.000 OA
ATOM      8  C   UNL     1       3.742   6.625  17.755  0.00  0.00    +0.000 C 
ATOM      9  N   UNL     1       3.809   5.319  18.234  0.00  0.00    +0.000 N 
ATOM     10  C   UNL     1       4.954   4.495  17.854  0.00  0.00    +0.000 C 
ATOM     11  C   UNL     1       4.516   3.188  17.204  0.00  0.00    +0.000 C 
ATOM     12  C   UNL     1       3.531   2.431  18.098  0.00  0.00    +0.000 C 
ATOM     13  C   UNL     1       2.308   3.300  18.429  0.00  0.00    +0.000 C 
ATOM     14  C   UNL     1       2.773   4.644  19.036  0.00  0.00    +0.000 C 
BRANCH  13  15
ATOM     15  C   UNL     1       1.373   2.599  19.400  0.00  0.00    +0.000 C 
ATOM     16  C   UNL     1       0.597   3.353  20.456  0.00  0.00    +0.000 C 
ATOM     17  C   UNL     1       1.717   2.439  20.866  0.00  0.00    +0.000 C 
ENDBRANCH  13  15
BRANCH  13  18
ATOM     18  O   UNL     1       1.604   3.606  17.221  0.00  0.00    +0.000 OA
ATOM     19  H   UNL     1       1.931   3.002  16.530  0.00  0.00    +0.000 HD
ENDBRANCH  13  18
ENDBRANCH   1   8
BRANCH   4  20
ATOM     20  N   UNL     1       0.103  10.441  19.971  0.00  0.00    +0.000 N 
ATOM     21  C   UNL     1      -0.342  11.618  19.414  0.00  0.00    +0.000 A 
ATOM     22  C   UNL     1      -1.088  12.259  20.373  0.00  0.00    +0.000 A 
ATOM     23  C   UNL     1      -1.069  11.405  21.499  0.00  0.00    +0.000 A 
ATOM     24  N   UNL     1      -0.376  10.281  21.234  0.00  0.00    +0.000 NA
BRANCH  23  25
ATOM     25  C   UNL     1      -1.712  11.677  22.834  0.00  0.00    +0.000 C 
ATOM     26  F   UNL     1      -3.026  12.008  22.696  0.00  0.00    +0.000 F 
ATOM     27  F   UNL     1      -1.673  10.601  23.663  0.00  0.00    +0.000 F 
ATOM     28  F   UNL     1      -1.126  12.712  23.492  0.00  0.00    +0.000 F 
ENDBRANCH  23  25
ENDBRANCH   4  20
TORSDOF 5
ENDMDL
MODEL 2
REMARK VINA RESULT:      -8.5      0.150      1.184
REMARK  Name = 
REMARK  5 active torsions:
REMARK  status: ('A' for Active; 'I' for Inactive)
REMARK    1  A    between atoms: C_2  and  C_3
REMARK    2  A    between atoms: C_6  and  N_7
REMARK    3  A    between atoms: C_10  and  C_11
REMARK    4  A    between atoms: C_22  and  O_23
REMARK    5  A    between atoms: C_22  and  C_24
REMARK                            x       y       z     vdW  Elec       q    Type
REMARK                         _______ _______ _______ _____ _____    ______ ____
ROOT
ATOM      1  C   UNL     1       2.867   7.616  18.277  0.00  0.00    +0.000 A 
ATOM      2  C   UNL     1       2.379   7.403  19.571  0.00  0.00    +0.000 A 
ATOM      3  C   UNL     1       1.456   8.290  20.134  0.00  0.00    +0.000 A 
ATOM      4  C   UNL     1       1.018   9.405  19.404  0.00  0.00    +0.000 A 
ATOM      5  C   UNL     1       1.497   9.611  18.104  0.00  0.00    +0.000 A 
ATOM      6  C   UNL     1       2.383   8.698  17.533  0.00  0.00    +0.000 A 
ENDROOT
BRANCH   1   8
ATOM      7  O   UNL     1       4.550   7.022  16.786  0.00  0.00    +0.000 OA
ATOM      8  C   UNL     1       3.808   6.621  17.687  0.00  0.00    +0.000 C 
ATOM      9  N   UNL     1       3.842   5.315  18.172  0.00  0.00    +0.000 N 
ATOM     10  C   UNL     1       4.950   4.452  17.773  0.00  0.00    +0.000 C 
ATOM     11  C   UNL     1       4.456   3.157  17.140  0.00  0.00    +0.000 C 
ATOM     12  C   UNL     1       3.466   2.438  18.059  0.00  0.00    +0.000 C 
ATOM     13  C   UNL     1       2.279   3.349  18.410  0.00  0.00    +0.000 C 
ATOM     14  C   UNL     1       2.801   4.679  19.000  0.00  0.00    +0.000 C 
BRANCH  13  15
ATOM     15  C   UNL     1       1.343   2.684  19.405  0.00  0.00    +0.000 C 
ATOM     16  C   UNL     1       0.641   3.463  20.494  0.00  0.00    +0.000 C 
ATOM     17  C   UNL     1       1.726   2.489  20.857  0.00  0.00    +0.000 C 
ENDBRANCH  13  15
BRANCH  13  18
ATOM     18  O   UNL     1       1.560   3.671  17.215  0.00  0.00    +0.000 OA
ATOM     19  H   UNL     1       0.825   4.260  17.466  0.00  0.00    +0.000 HD
ENDBRANCH  13  18
ENDBRANCH   1   8
BRANCH   4  20
ATOM     20  N   UNL     1       0.058  10.308  19.936  0.00  0.00    +0.000 N 
ATOM     21  C   UNL     1      -0.610  11.315  19.278  0.00  0.00    +0.000 A 
ATOM     22  C   UNL     1      -1.361  11.979  20.217  0.00  0.00    +0.000 A 
ATOM     23  C   UNL     1      -1.113  11.313  21.439  0.00  0.00    +0.000 A 
ATOM     24  N   UNL     1      -0.279  10.271  21.253  0.00  0.00    +0.000 NA
BRANCH  23  25
ATOM     25  C   UNL     1      -1.672  11.685  22.786  0.00  0.00    +0.000 C 
ATOM     26  F   UNL     1      -1.654  10.626  23.644  0.00  0.00    +0.000 F 
ATOM     27  F   UNL     1      -0.970  12.679  23.390  0.00  0.00    +0.000 F 
ATOM     28  F   UNL     1      -2.966  12.095  22.716  0.00  0.00    +0.000 F 
ENDBRANCH  23  25
ENDBRANCH   4  20
TORSDOF 5
ENDMDL
MODEL 3
REMARK VINA RESULT:      -8.5      1.962      3.789
REMARK  Name = 
REMARK  5 active torsions:
REMARK  status: ('A' for Active; 'I' for Inactive)
REMARK    1  A    between atoms: C_2  and  C_3
REMARK    2  A    between atoms: C_6  and  N_7
REMARK    3  A    between atoms: C_10  and  C_11
REMARK    4  A    between atoms: C_22  and  O_23
REMARK    5  A    between atoms: C_22  and  C_24
REMARK                            x       y       z     vdW  Elec       q    Type
REMARK                         _______ _______ _______ _____ _____    ______ ____
ROOT
ATOM      1  C   UNL     1       2.562   6.812  18.403  0.00  0.00    +0.000 A 
ATOM      2  C   UNL     1       2.258   6.809  19.769  0.00  0.00    +0.000 A 
ATOM      3  C   UNL     1       1.690   7.937  20.371  0.00  0.00    +0.000 A 
ATOM      4  C   UNL     1       1.429   9.084  19.606  0.00  0.00    +0.000 A 
ATOM      5  C   UNL     1       1.721   9.083  18.237  0.00  0.00    +0.000 A 
ATOM      6  C   UNL     1       2.245   7.939  17.635  0.00  0.00    +0.000 A 
ENDROOT
BRANCH   1   8
ATOM      7  O   UNL     1       2.457   4.539  17.926  0.00  0.00    +0.000 OA
ATOM      8  C   UNL     1       3.114   5.575  17.783  0.00  0.00    +0.000 C 
ATOM      9  N   UNL     1       4.302   5.624  17.057  0.00  0.00    +0.000 N 
ATOM     10  C   UNL     1       4.667   4.472  16.237  0.00  0.00    +0.000 C 
ATOM     11  C   UNL     1       6.053   3.947  16.588  0.00  0.00    +0.000 C 
ATOM     12  C   UNL     1       7.099   5.062  16.515  0.00  0.00    +0.000 C 
ATOM     13  C   UNL     1       6.721   6.233  17.435  0.00  0.00    +0.000 C 
ATOM     14  C   UNL     1       5.290   6.716  17.102  0.00  0.00    +0.000 C 
BRANCH  13  15
ATOM     15  C   UNL     1       7.695   7.391  17.292  0.00  0.00    +0.000 C 
ATOM     16  C   UNL     1       8.352   8.042  18.488  0.00  0.00    +0.000 C 
ATOM     17  C   UNL     1       7.325   8.802  17.698  0.00  0.00    +0.000 C 
ENDBRANCH  13  15
BRANCH  13  18
ATOM     18  O   UNL     1       6.706   5.782  18.794  0.00  0.00    +0.000 OA
ATOM     19  H   UNL     1       7.535   5.295  18.949  0.00  0.00    +0.000 HD
ENDBRANCH  13  18
ENDBRANCH   1   8
BRANCH   4  20
ATOM     20  N   UNL     1       0.825  10.235  20.182  0.00  0.00    +0.000 N 
ATOM     21  C   UNL     1       1.102  11.556  19.915  0.00  0.00    +0.000 A 
ATOM     22  C   UNL     1       0.340  12.308  20.776  0.00  0.00    +0.000 A 
ATOM     23  C   UNL     1      -0.395  11.375  21.542  0.00  0.00    +0.000 A 
ATOM     24  N   UNL     1      -0.125  10.115  21.147  0.00  0.00    +0.000 NA
BRANCH  23  25
ATOM     25  C   UNL     1      -1.352  11.697  22.660  0.00  0.00    +0.000 C 
ATOM     26  F   UNL     1      -2.585  12.027  22.182  0.00  0.00    +0.000 F 
ATOM     27  F   UNL     1      -1.538  10.652  23.509  0.00  0.00    +0.000 F 
ATOM     28  F   UNL     1      -0.939  12.753  23.409  0.00  0.00    +0.000 F 
ENDBRANCH  23  25
ENDBRANCH   4  20
TORSDOF 5
ENDMDL
MODEL 4
REMARK VINA RESULT:      -8.3      4.568      8.817
REMARK  Name = 
REMARK  5 active torsions:
REMARK  status: ('A' for Active; 'I' for Inactive)
REMARK    1  A    between atoms: C_2  and  C_3
REMARK    2  A    between atoms: C_6  and  N_7
REMARK    3  A    between atoms: C_10  and  C_11
REMARK    4  A    between atoms: C_22  and  O_23
REMARK    5  A    between atoms: C_22  and  C_24
REMARK                            x       y       z     vdW  Elec       q    Type
REMARK                         _______ _______ _______ _____ _____    ______ ____
ROOT
ATOM      1  C   UNL     1       0.728   9.854  19.242  0.00  0.00    +0.000 A 
ATOM      2  C   UNL     1       1.350   9.331  18.102  0.00  0.00    +0.000 A 
ATOM      3  C   UNL     1       2.084   8.143  18.177  0.00  0.00    +0.000 A 
ATOM      4  C   UNL     1       2.209   7.471  19.402  0.00  0.00    +0.000 A 
ATOM      5  C   UNL     1       1.577   7.988  20.541  0.00  0.00    +0.000 A 
ATOM      6  C   UNL     1       0.809   9.148  20.448  0.00  0.00    +0.000 A 
ENDROOT
BRANCH   1   8
ATOM      7  O   UNL     1      -1.266  10.946  18.761  0.00  0.00    +0.000 OA
ATOM      8  C   UNL     1      -0.093  11.091  19.115  0.00  0.00    +0.000 C 
ATOM      9  N   UNL     1       0.460  12.334  19.417  0.00  0.00    +0.000 N 
ATOM     10  C   UNL     1      -0.434  13.480  19.552  0.00  0.00    +0.000 C 
ATOM     11  C   UNL     1      -0.027  14.623  18.629  0.00  0.00    +0.000 C 
ATOM     12  C   UNL     1       1.440  15.006  18.841  0.00  0.00    +0.000 C 
ATOM     13  C   UNL     1       2.361  13.795  18.631  0.00  0.00    +0.000 C 
ATOM     14  C   UNL     1       1.900  12.627  19.534  0.00  0.00    +0.000 C 
BRANCH  13  15
ATOM     15  C   UNL     1       3.809  14.136  18.941  0.00  0.00    +0.000 C 
ATOM     16  C   UNL     1       4.262  15.553  19.209  0.00  0.00    +0.000 C 
ATOM     17  C   UNL     1       4.690  14.862  17.946  0.00  0.00    +0.000 C 
ENDBRANCH  13  15
BRANCH  13  18
ATOM     18  O   UNL     1       2.253  13.347  17.276  0.00  0.00    +0.000 OA
ATOM     19  H   UNL     1       1.874  14.078  16.755  0.00  0.00    +0.000 HD
ENDBRANCH  13  18
ENDBRANCH   1   8
BRANCH   4  20
ATOM     20  N   UNL     1       2.923   6.247  19.505  0.00  0.00    +0.000 N 
ATOM     21  C   UNL     1       4.111   5.909  18.898  0.00  0.00    +0.000 A 
ATOM     22  C   UNL     1       4.365   4.597  19.214  0.00  0.00    +0.000 A 
ATOM     23  C   UNL     1       3.288   4.192  20.036  0.00  0.00    +0.000 A 
ATOM     24  N   UNL     1       2.435   5.214  20.242  0.00  0.00    +0.000 NA
BRANCH  23  25
ATOM     25  C   UNL     1       3.078   2.818  20.616  0.00  0.00    +0.000 C 
ATOM     26  F   UNL     1       2.610   2.882  21.894  0.00  0.00    +0.000 F 
ATOM     27  F   UNL     1       2.174   2.085  19.914  0.00  0.00    +0.000 F 
ATOM     28  F   UNL     1       4.227   2.094  20.668  0.00  0.00    +0.000 F 
ENDBRANCH  23  25
ENDBRANCH   4  20
TORSDOF 5
ENDMDL
MODEL 5
REMARK VINA RESULT:      -8.2      1.117      1.597
REMARK  Name = 
REMARK  5 active torsions:
REMARK  status: ('A' for Active; 'I' for Inactive)
REMARK    1  A    between atoms: C_2  and  C_3
REMARK    2  A    between atoms: C_6  and  N_7
REMARK    3  A    between atoms: C_10  and  C_11
REMARK    4  A    between atoms: C_22  and  O_23
REMARK    5  A    between atoms: C_22  and  C_24
REMARK                            x       y       z     vdW  Elec       q    Type
REMARK                         _______ _______ _______ _____ _____    ______ ____
ROOT
ATOM      1  C   UNL     1       2.612   7.678  18.455  0.00  0.00    +0.000 A 
ATOM      2  C   UNL     1       2.129   8.807  17.783  0.00  0.00    +0.000 A 
ATOM      3  C   UNL     1       1.276   9.706  18.432  0.00  0.00    +0.000 A 
ATOM      4  C   UNL     1       0.894   9.477  19.762  0.00  0.00    +0.000 A 
ATOM      5  C   UNL     1       1.387   8.354  20.439  0.00  0.00    +0.000 A 
ATOM      6  C   UNL     1       2.273   7.487  19.800  0.00  0.00    +0.000 A 
ENDROOT
BRANCH   1   8
ATOM      7  O   UNL     1       4.230   7.263  16.838  0.00  0.00    +0.000 OA
ATOM      8  C   UNL     1       3.563   6.771  17.753  0.00  0.00    +0.000 C 
ATOM      9  N   UNL     1       3.691   5.443  18.154  0.00  0.00    +0.000 N 
ATOM     10  C   UNL     1       4.814   4.664  17.640  0.00  0.00    +0.000 C 
ATOM     11  C   UNL     1       4.347   3.384  16.958  0.00  0.00    +0.000 C 
ATOM     12  C   UNL     1       3.451   2.561  17.886  0.00  0.00    +0.000 C 
ATOM     13  C   UNL     1       2.244   3.386  18.359  0.00  0.00    +0.000 C 
ATOM     14  C   UNL     1       2.734   4.705  18.999  0.00  0.00    +0.000 C 
BRANCH  13  15
ATOM     15  C   UNL     1       1.402   2.616  19.363  0.00  0.00    +0.000 C 
ATOM     16  C   UNL     1       0.629   3.306  20.463  0.00  0.00    +0.000 C 
ATOM     17  C   UNL     1       1.824   2.464  20.810  0.00  0.00    +0.000 C 
ENDBRANCH  13  15
BRANCH  13  18
ATOM     18  O   UNL     1       1.439   3.740  17.230  0.00  0.00    +0.000 OA
ATOM     19  H   UNL     1       1.635   3.102  16.520  0.00  0.00    +0.000 HD
ENDBRANCH  13  18
ENDBRANCH   1   8
BRANCH   4  20
ATOM     20  N   UNL     1       0.053  10.387  20.457  0.00  0.00    +0.000 N 
ATOM     21  C   UNL     1       0.009  10.630  21.811  0.00  0.00    +0.000 A 
ATOM     22  C   UNL     1      -1.019  11.516  22.027  0.00  0.00    +0.000 A 
ATOM     23  C   UNL     1      -1.559  11.786  20.749  0.00  0.00    +0.000 A 
ATOM     24  N   UNL     1      -0.874  11.127  19.793  0.00  0.00    +0.000 NA
BRANCH  23  25
ATOM     25  C   UNL     1      -2.739  12.672  20.449  0.00  0.00    +0.000 C 
ATOM     26  F   UNL     1      -2.360  13.973  20.301  0.00  0.00    +0.000 F 
ATOM     27  F   UNL     1      -3.377  12.327  19.301  0.00  0.00    +0.000 F 
ATOM     28  F   UNL     1      -3.665  12.657  21.443  0.00  0.00    +0.000 F 
ENDBRANCH  23  25
ENDBRANCH   4  20
TORSDOF 5
ENDMDL
MODEL 6
REMARK VINA RESULT:      -8.2      5.163      8.847
REMARK  Name = 
REMARK  5 active torsions:
REMARK  status: ('A' for Active; 'I' for Inactive)
REMARK    1  A    between atoms: C_2  and  C_3
REMARK    2  A    between atoms: C_6  and  N_7
REMARK    3  A    between atoms: C_10  and  C_11
REMARK    4  A    between atoms: C_22  and  O_23
REMARK    5  A    between atoms: C_22  and  C_24
REMARK                            x       y       z     vdW  Elec       q    Type
REMARK                         _______ _______ _______ _____ _____    ______ ____
ROOT
ATOM      1  C   UNL     1       1.385   8.835  19.568  0.00  0.00    +0.000 A 
ATOM      2  C   UNL     1       1.664   7.651  20.260  0.00  0.00    +0.000 A 
ATOM      3  C   UNL     1       2.453   6.656  19.672  0.00  0.00    +0.000 A 
ATOM      4  C   UNL     1       2.963   6.839  18.378  0.00  0.00    +0.000 A 
ATOM      5  C   UNL     1       2.694   8.029  17.690  0.00  0.00    +0.000 A 
ATOM      6  C   UNL     1       1.945   9.034  18.301  0.00  0.00    +0.000 A 
ENDROOT
BRANCH   1   8
ATOM      7  O   UNL     1       0.643   9.933  21.478  0.00  0.00    +0.000 OA
ATOM      8  C   UNL     1       0.588   9.897  20.245  0.00  0.00    +0.000 C 
ATOM      9  N   UNL     1      -0.149  10.809  19.493  0.00  0.00    +0.000 N 
ATOM     10  C   UNL     1      -0.685  11.992  20.160  0.00  0.00    +0.000 C 
ATOM     11  C   UNL     1      -2.192  12.112  19.965  0.00  0.00    +0.000 C 
ATOM     12  C   UNL     1      -2.561  12.070  18.481  0.00  0.00    +0.000 C 
ATOM     13  C   UNL     1      -2.038  10.785  17.821  0.00  0.00    +0.000 C 
ATOM     14  C   UNL     1      -0.519  10.650  18.075  0.00  0.00    +0.000 C 
BRANCH  13  15
ATOM     15  C   UNL     1      -2.306  10.779  16.325  0.00  0.00    +0.000 C 
ATOM     16  C   UNL     1      -3.696  10.954  15.756  0.00  0.00    +0.000 C 
ATOM     17  C   UNL     1      -3.008   9.623  15.643  0.00  0.00    +0.000 C 
ENDBRANCH  13  15
BRANCH  13  18
ATOM     18  O   UNL     1      -2.667   9.651  18.426  0.00  0.00    +0.000 OA
ATOM     19  H   UNL     1      -3.616   9.856  18.515  0.00  0.00    +0.000 HD
ENDBRANCH  13  18
ENDBRANCH   1   8
BRANCH   4  20
ATOM     20  N   UNL     1       3.792   5.860  17.765  0.00  0.00    +0.000 N 
ATOM     21  C   UNL     1       3.493   4.541  17.509  0.00  0.00    +0.000 A 
ATOM     22  C   UNL     1       4.629   3.965  16.994  0.00  0.00    +0.000 A 
ATOM     23  C   UNL     1       5.591   5.000  16.951  0.00  0.00    +0.000 A 
ATOM     24  N   UNL     1       5.062   6.161  17.384  0.00  0.00    +0.000 NA
BRANCH  23  25
ATOM     25  C   UNL     1       7.021   4.868  16.500  0.00  0.00    +0.000 C 
ATOM     26  F   UNL     1       7.112   4.194  15.319  0.00  0.00    +0.000 F 
ATOM     27  F   UNL     1       7.622   6.070  16.301  0.00  0.00    +0.000 F 
ATOM     28  F   UNL     1       7.785   4.180  17.389  0.00  0.00    +0.000 F 
ENDBRANCH  23  25
ENDBRANCH   4  20
TORSDOF 5
ENDMDL
MODEL 7
REMARK VINA RESULT:      -8.2      1.083      1.425
REMARK  Name = 
REMARK  5 active torsions:
REMARK  status: ('A' for Active; 'I' for Inactive)
REMARK    1  A    between atoms: C_2  and  C_3
REMARK    2  A    between atoms: C_6  and  N_7
REMARK    3  A    between atoms: C_10  and  C_11
REMARK    4  A    between atoms: C_22  and  O_23
REMARK    5  A    between atoms: C_22  and  C_24
REMARK                            x       y       z     vdW  Elec       q    Type
REMARK                         _______ _______ _______ _____ _____    ______ ____
ROOT
ATOM      1  C   UNL     1       2.387   7.710  18.771  0.00  0.00    +0.000 A 
ATOM      2  C   UNL     1       1.822   8.886  18.265  0.00  0.00    +0.000 A 
ATOM      3  C   UNL     1       1.011   9.688  19.076  0.00  0.00    +0.000 A 
ATOM      4  C   UNL     1       0.754   9.312  20.402  0.00  0.00    +0.000 A 
ATOM      5  C   UNL     1       1.330   8.142  20.913  0.00  0.00    +0.000 A 
ATOM      6  C   UNL     1       2.173   7.372  20.113  0.00  0.00    +0.000 A 
ENDROOT
BRANCH   1   8
ATOM      7  O   UNL     1       3.752   7.477  16.904  0.00  0.00    +0.000 OA
ATOM      8  C   UNL     1       3.291   6.909  17.898  0.00  0.00    +0.000 C 
ATOM      9  N   UNL     1       3.603   5.593  18.232  0.00  0.00    +0.000 N 
ATOM     10  C   UNL     1       4.695   4.933  17.522  0.00  0.00    +0.000 C 
ATOM     11  C   UNL     1       4.242   3.626  16.883  0.00  0.00    +0.000 C 
ATOM     12  C   UNL     1       3.587   2.706  17.916  0.00  0.00    +0.000 C 
ATOM     13  C   UNL     1       2.402   3.405  18.602  0.00  0.00    +0.000 C 
ATOM     14  C   UNL     1       2.867   4.754  19.195  0.00  0.00    +0.000 C 
BRANCH  13  15
ATOM     15  C   UNL     1       1.809   2.541  19.702  0.00  0.00    +0.000 C 
ATOM     16  C   UNL     1       0.944   3.119  20.799  0.00  0.00    +0.000 C 
ATOM     17  C   UNL     1       2.316   2.603  21.128  0.00  0.00    +0.000 C 
ENDBRANCH  13  15
BRANCH  13  18
ATOM     18  O   UNL     1       1.396   3.698  17.626  0.00  0.00    +0.000 OA
ATOM     19  H   UNL     1       1.849   4.022  16.827  0.00  0.00    +0.000 HD
ENDBRANCH  13  18
ENDBRANCH   1   8
BRANCH   4  20
ATOM     20  N   UNL     1      -0.041  10.121  21.259  0.00  0.00    +0.000 N 
ATOM     21  C   UNL     1      -0.238   9.976  22.614  0.00  0.00    +0.000 A 
ATOM     22  C   UNL     1      -1.153  10.928  22.991  0.00  0.00    +0.000 A 
ATOM     23  C   UNL     1      -1.469  11.637  21.809  0.00  0.00    +0.000 A 
ATOM     24  N   UNL     1      -0.757  11.166  20.766  0.00  0.00    +0.000 NA
BRANCH  23  25
ATOM     25  C   UNL     1      -2.462  12.761  21.683  0.00  0.00    +0.000 C 
ATOM     26  F   UNL     1      -2.975  12.835  20.423  0.00  0.00    +0.000 F 
ATOM     27  F   UNL     1      -3.523  12.621  22.520  0.00  0.00    +0.000 F 
ATOM     28  F   UNL     1      -1.907  13.976  21.939  0.00  0.00    +0.000 F 
ENDBRANCH  23  25
ENDBRANCH   4  20
TORSDOF 5
ENDMDL
MODEL 8
REMARK VINA RESULT:      -8.1      5.119      8.733
REMARK  Name = 
REMARK  5 active torsions:
REMARK  status: ('A' for Active; 'I' for Inactive)
REMARK    1  A    between atoms: C_2  and  C_3
REMARK    2  A    between atoms: C_6  and  N_7
REMARK    3  A    between atoms: C_10  and  C_11
REMARK    4  A    between atoms: C_22  and  O_23
REMARK    5  A    between atoms: C_22  and  C_24
REMARK                            x       y       z     vdW  Elec       q    Type
REMARK                         _______ _______ _______ _____ _____    ______ ____
ROOT
ATOM      1  C   UNL     1       1.224   8.929  19.777  0.00  0.00    +0.000 A 
ATOM      2  C   UNL     1       1.689   9.145  18.474  0.00  0.00    +0.000 A 
ATOM      3  C   UNL     1       2.510   8.201  17.849  0.00  0.00    +0.000 A 
ATOM      4  C   UNL     1       2.878   7.031  18.530  0.00  0.00    +0.000 A 
ATOM      5  C   UNL     1       2.402   6.808  19.829  0.00  0.00    +0.000 A 
ATOM      6  C   UNL     1       1.548   7.733  20.427  0.00  0.00    +0.000 A 
ENDROOT
BRANCH   1   8
ATOM      7  O   UNL     1       0.247   9.947  21.624  0.00  0.00    +0.000 OA
ATOM      8  C   UNL     1       0.306   9.929  20.392  0.00  0.00    +0.000 C 
ATOM      9  N   UNL     1      -0.415  10.808  19.586  0.00  0.00    +0.000 N 
ATOM     10  C   UNL     1      -1.081  11.945  20.215  0.00  0.00    +0.000 C 
ATOM     11  C   UNL     1      -2.568  11.979  19.886  0.00  0.00    +0.000 C 
ATOM     12  C   UNL     1      -2.799  11.940  18.374  0.00  0.00    +0.000 C 
ATOM     13  C   UNL     1      -2.140  10.701  17.749  0.00  0.00    +0.000 C 
ATOM     14  C   UNL     1      -0.645  10.653  18.138  0.00  0.00    +0.000 C 
BRANCH  13  15
ATOM     15  C   UNL     1      -2.272  10.705  16.235  0.00  0.00    +0.000 C 
ATOM     16  C   UNL     1      -3.581  11.006  15.542  0.00  0.00    +0.000 C 
ATOM     17  C   UNL     1      -3.017   9.614  15.494  0.00  0.00    +0.000 C 
ENDBRANCH  13  15
BRANCH  13  18
ATOM     18  O   UNL     1      -2.752   9.521  18.281  0.00  0.00    +0.000 OA
ATOM     19  H   UNL     1      -3.103   9.745  19.161  0.00  0.00    +0.000 HD
ENDBRANCH  13  18
ENDBRANCH   1   8
BRANCH   4  20
ATOM     20  N   UNL     1       3.686   6.038  17.912  0.00  0.00    +0.000 N 
ATOM     21  C   UNL     1       3.333   4.750  17.577  0.00  0.00    +0.000 A 
ATOM     22  C   UNL     1       4.463   4.138  17.091  0.00  0.00    +0.000 A 
ATOM     23  C   UNL     1       5.478   5.121  17.145  0.00  0.00    +0.000 A 
ATOM     24  N   UNL     1       4.987   6.288  17.608  0.00  0.00    +0.000 NA
BRANCH  23  25
ATOM     25  C   UNL     1       6.921   4.934  16.759  0.00  0.00    +0.000 C 
ATOM     26  F   UNL     1       7.558   6.130  16.613  0.00  0.00    +0.000 F 
ATOM     27  F   UNL     1       7.626   4.236  17.688  0.00  0.00    +0.000 F 
ATOM     28  F   UNL     1       7.062   4.282  15.575  0.00  0.00    +0.000 F 
ENDBRANCH  23  25
ENDBRANCH   4  20
TORSDOF 5
ENDMDL
MODEL 9
REMARK VINA RESULT:      -8.1      5.143      9.282
REMARK  Name = 
REMARK  5 active torsions:
REMARK  status: ('A' for Active; 'I' for Inactive)
REMARK    1  A    between atoms: C_2  and  C_3
REMARK    2  A    between atoms: C_6  and  N_7
REMARK    3  A    between atoms: C_10  and  C_11
REMARK    4  A    between atoms: C_22  and  O_23
REMARK    5  A    between atoms: C_22  and  C_24
REMARK                            x       y       z     vdW  Elec       q    Type
REMARK                         _______ _______ _______ _____ _____    ______ ____
ROOT
ATOM      1  C   UNL     1       1.098   9.396  18.954  0.00  0.00    +0.000 A 
ATOM      2  C   UNL     1       1.803   9.206  17.760  0.00  0.00    +0.000 A 
ATOM      3  C   UNL     1       2.721   8.158  17.638  0.00  0.00    +0.000 A 
ATOM      4  C   UNL     1       2.945   7.292  18.719  0.00  0.00    +0.000 A 
ATOM      5  C   UNL     1       2.230   7.474  19.910  0.00  0.00    +0.000 A 
ATOM      6  C   UNL     1       1.284   8.494  20.008  0.00  0.00    +0.000 A 
ENDROOT
BRANCH   1   8
ATOM      7  O   UNL     1      -1.076  10.193  18.740  0.00  0.00    +0.000 OA
ATOM      8  C   UNL     1       0.087  10.488  19.031  0.00  0.00    +0.000 C 
ATOM      9  N   UNL     1       0.464  11.765  19.443  0.00  0.00    +0.000 N 
ATOM     10  C   UNL     1      -0.582  12.728  19.773  0.00  0.00    +0.000 C 
ATOM     11  C   UNL     1      -0.436  14.015  18.970  0.00  0.00    +0.000 C 
ATOM     12  C   UNL     1       0.966  14.608  19.129  0.00  0.00    +0.000 C 
ATOM     13  C   UNL     1       2.043  13.593  18.714  0.00  0.00    +0.000 C 
ATOM     14  C   UNL     1       1.846  12.275  19.498  0.00  0.00    +0.000 C 
BRANCH  13  15
ATOM     15  C   UNL     1       3.441  14.131  18.967  0.00  0.00    +0.000 C 
ATOM     16  C   UNL     1       3.709  15.602  19.193  0.00  0.00    +0.000 C 
ATOM     17  C   UNL     1       4.184  14.946  17.928  0.00  0.00    +0.000 C 
ENDBRANCH  13  15
BRANCH  13  18
ATOM     18  O   UNL     1       1.891  13.283  17.325  0.00  0.00    +0.000 OA
ATOM     19  H   UNL     1       2.735  13.491  16.885  0.00  0.00    +0.000 HD
ENDBRANCH  13  18
ENDBRANCH   1   8
BRANCH   4  20
ATOM     20  N   UNL     1       3.848   6.200  18.616  0.00  0.00    +0.000 N 
ATOM     21  C   UNL     1       3.941   5.100  19.439  0.00  0.00    +0.000 A 
ATOM     22  C   UNL     1       5.017   4.364  19.006  0.00  0.00    +0.000 A 
ATOM     23  C   UNL     1       5.536   5.071  17.897  0.00  0.00    +0.000 A 
ATOM     24  N   UNL     1       4.795   6.166  17.641  0.00  0.00    +0.000 NA
BRANCH  23  25
ATOM     25  C   UNL     1       6.751   4.695  17.091  0.00  0.00    +0.000 C 
ATOM     26  F   UNL     1       7.752   4.225  17.888  0.00  0.00    +0.000 F 
ATOM     27  F   UNL     1       6.496   3.718  16.182  0.00  0.00    +0.000 F 
ATOM     28  F   UNL     1       7.270   5.751  16.411  0.00  0.00    +0.000 F 
ENDBRANCH  23  25
ENDBRANCH   4  20
TORSDOF 5
ENDMDL
