MODEL 1
REMARK VINA RESULT:      -7.3      0.000      0.000
REMARK  Name = 
REMARK  7 active torsions:
REMARK  status: ('A' for Active; 'I' for Inactive)
REMARK    1  A    between atoms: C_1  and  C_2
REMARK    2  A    between atoms: C_2  and  C_3
REMARK    3  A    between atoms: C_7  and  C_8
REMARK    4  A    between atoms: C_8  and  C_9
REMARK    5  A    between atoms: C_10  and  C_11
REMARK    6  A    between atoms: C_19  and  C_20
REMARK    7  A    between atoms: C_23  and  C_24
REMARK                            x       y       z     vdW  Elec       q    Type
REMARK                         _______ _______ _______ _____ _____    ______ ____
ROOT
ATOM      1  C   UNL     1       2.552   5.338  18.290  0.00  0.00    +0.000 C 
ATOM      2  O   UNL     1       1.805   4.824  17.458  0.00  0.00    +0.000 OA
ATOM      3  N   UNL     1       3.904   5.006  18.261  0.00  0.00    +0.000 N 
ATOM      4  C   UNL     1       4.852   5.120  19.284  0.00  0.00    +0.000 C 
ATOM      5  C   UNL     1       6.139   4.614  18.693  0.00  0.00    +0.000 C 
ATOM      6  C   UNL     1       7.220   5.184  19.614  0.00  0.00    +0.000 C 
ATOM      7  C   UNL     1       8.305   5.546  18.668  0.00  0.00    +0.000 C 
ATOM      8  C   UNL     1       7.788   4.998  17.349  0.00  0.00    +0.000 C 
ATOM      9  C   UNL     1       6.182   5.206  17.229  0.00  0.00    +0.000 C 
ATOM     10  C   UNL     1       4.634   4.573  17.080  0.00  0.00    +0.000 C 
ENDROOT
BRANCH   1  16
ATOM     11  C   UNL     1       1.437   5.975  20.430  0.00  0.00    +0.000 A 
ATOM     12  N   UNL     1       0.991   6.820  21.397  0.00  0.00    +0.000 NA
ATOM     13  C   UNL     1       1.053   8.122  21.142  0.00  0.00    +0.000 A 
ATOM     14  N   UNL     1       1.480   8.652  20.000  0.00  0.00    +0.000 NA
ATOM     15  C   UNL     1       1.935   7.813  19.028  0.00  0.00    +0.000 A 
ATOM     16  C   UNL     1       1.980   6.413  19.196  0.00  0.00    +0.000 A 
BRANCH  11  18
ATOM     17  C   UNL     1       2.212   3.893  21.537  0.00  0.00    +0.000 C 
ATOM     18  C   UNL     1       1.077   4.540  20.754  0.00  0.00    +0.000 C 
ENDBRANCH  11  18
BRANCH  15  19
ATOM     19  C   UNL     1       2.293   8.581  17.785  0.00  0.00    +0.000 C 
ATOM     20  C   UNL     1       2.074  10.091  17.756  0.00  0.00    +0.000 C 
ENDBRANCH  15  19
ENDBRANCH   1  16
BRANCH   9  21
ATOM     21  C   UNL     1       6.320   4.776  15.773  0.00  0.00    +0.000 A 
ATOM     22  N   UNL     1       5.614   3.964  15.008  0.00  0.00    +0.000 NA
ATOM     23  N   UNL     1       6.166   4.066  13.745  0.00  0.00    +0.000 NA
ATOM     24  C   UNL     1       7.164   4.913  13.835  0.00  0.00    +0.000 A 
ATOM     25  C   UNL     1       8.066   5.443  12.805  0.00  0.00    +0.000 C 
ATOM     26  O   UNL     1       7.333   5.398  15.102  0.00  0.00    +0.000 OA
ENDBRANCH   9  21
TORSDOF 4
ENDMDL
MODEL 2
REMARK VINA RESULT:      -7.0      0.917      1.039
REMARK  Name = 
REMARK  7 active torsions:
REMARK  status: ('A' for Active; 'I' for Inactive)
REMARK    1  A    between atoms: C_1  and  C_2
REMARK    2  A    between atoms: C_2  and  C_3
REMARK    3  A    between atoms: C_7  and  C_8
REMARK    4  A    between atoms: C_8  and  C_9
REMARK    5  A    between atoms: C_10  and  C_11
REMARK    6  A    between atoms: C_19  and  C_20
REMARK    7  A    between atoms: C_23  and  C_24
REMARK                            x       y       z     vdW  Elec       q    Type
REMARK                         _______ _______ _______ _____ _____    ______ ____
ROOT
ATOM      1  C   UNL     1       2.604   5.642  18.234  0.00  0.00    +0.000 C 
ATOM      2  O   UNL     1       1.907   5.193  17.326  0.00  0.00    +0.000 OA
ATOM      3  N   UNL     1       3.961   5.327  18.245  0.00  0.00    +0.000 N 
ATOM      4  C   UNL     1       4.856   5.363  19.321  0.00  0.00    +0.000 C 
ATOM      5  C   UNL     1       6.177   4.923  18.754  0.00  0.00    +0.000 C 
ATOM      6  C   UNL     1       7.203   5.423  19.774  0.00  0.00    +0.000 C 
ATOM      7  C   UNL     1       8.328   5.876  18.918  0.00  0.00    +0.000 C 
ATOM      8  C   UNL     1       7.885   5.439  17.532  0.00  0.00    +0.000 C 
ATOM      9  C   UNL     1       6.283   5.639  17.351  0.00  0.00    +0.000 C 
ATOM     10  C   UNL     1       4.754   5.005  17.070  0.00  0.00    +0.000 C 
ENDROOT
BRANCH   1  16
ATOM     11  C   UNL     1       1.443   6.088  20.399  0.00  0.00    +0.000 A 
ATOM     12  N   UNL     1       0.949   6.849  21.411  0.00  0.00    +0.000 NA
ATOM     13  C   UNL     1       0.947   8.165  21.237  0.00  0.00    +0.000 A 
ATOM     14  N   UNL     1       1.355   8.786  20.135  0.00  0.00    +0.000 NA
ATOM     15  C   UNL     1       1.858   8.032  19.118  0.00  0.00    +0.000 A 
ATOM     16  C   UNL     1       1.972   6.628  19.199  0.00  0.00    +0.000 A 
BRANCH  11  18
ATOM     17  C   UNL     1       2.248   4.015  21.501  0.00  0.00    +0.000 C 
ATOM     18  C   UNL     1       1.154   4.620  20.630  0.00  0.00    +0.000 C 
ENDBRANCH  11  18
BRANCH  15  19
ATOM     19  C   UNL     1       2.185   8.892  17.927  0.00  0.00    +0.000 C 
ATOM     20  C   UNL     1       1.897  10.390  17.992  0.00  0.00    +0.000 C 
ENDBRANCH  15  19
ENDBRANCH   1  16
BRANCH   9  21
ATOM     21  C   UNL     1       6.499   5.338  15.871  0.00  0.00    +0.000 A 
ATOM     22  N   UNL     1       7.484   5.614  15.036  0.00  0.00    +0.000 NA
ATOM     23  N   UNL     1       7.158   4.980  13.852  0.00  0.00    +0.000 NA
ATOM     24  C   UNL     1       6.007   4.381  14.047  0.00  0.00    +0.000 A 
ATOM     25  C   UNL     1       5.214   3.519  13.162  0.00  0.00    +0.000 C 
ATOM     26  O   UNL     1       5.517   4.576  15.308  0.00  0.00    +0.000 OA
ENDBRANCH   9  21
TORSDOF 4
ENDMDL
MODEL 3
REMARK VINA RESULT:      -7.0      2.062      3.653
REMARK  Name = 
REMARK  7 active torsions:
REMARK  status: ('A' for Active; 'I' for Inactive)
REMARK    1  A    between atoms: C_1  and  C_2
REMARK    2  A    between atoms: C_2  and  C_3
REMARK    3  A    between atoms: C_7  and  C_8
REMARK    4  A    between atoms: C_8  and  C_9
REMARK    5  A    between atoms: C_10  and  C_11
REMARK    6  A    between atoms: C_19  and  C_20
REMARK    7  A    between atoms: C_23  and  C_24
REMARK                            x       y       z     vdW  Elec       q    Type
REMARK                         _______ _______ _______ _____ _____    ______ ____
ROOT
ATOM      1  C   UNL     1       4.078   2.960  18.237  0.00  0.00    +0.000 C 
ATOM      2  O   UNL     1       3.849   1.997  17.507  0.00  0.00    +0.000 OA
ATOM      3  N   UNL     1       5.211   3.730  17.982  0.00  0.00    +0.000 N 
ATOM      4  C   UNL     1       5.896   4.588  18.850  0.00  0.00    +0.000 C 
ATOM      5  C   UNL     1       7.035   5.147  18.041  0.00  0.00    +0.000 C 
ATOM      6  C   UNL     1       7.456   6.401  18.810  0.00  0.00    +0.000 C 
ATOM      7  C   UNL     1       7.770   7.364  17.726  0.00  0.00    +0.000 C 
ATOM      8  C   UNL     1       7.647   6.509  16.477  0.00  0.00    +0.000 C 
ATOM      9  C   UNL     1       6.418   5.456  16.620  0.00  0.00    +0.000 C 
ATOM     10  C   UNL     1       5.845   3.879  16.681  0.00  0.00    +0.000 C 
ENDROOT
BRANCH   1  16
ATOM     11  C   UNL     1       2.127   4.362  18.913  0.00  0.00    +0.000 A 
ATOM     12  N   UNL     1       1.069   4.734  19.683  0.00  0.00    +0.000 NA
ATOM     13  C   UNL     1       0.911   4.106  20.842  0.00  0.00    +0.000 A 
ATOM     14  N   UNL     1       1.731   3.175  21.319  0.00  0.00    +0.000 NA
ATOM     15  C   UNL     1       2.790   2.792  20.553  0.00  0.00    +0.000 A 
ATOM     16  C   UNL     1       3.036   3.336  19.274  0.00  0.00    +0.000 A 
BRANCH  11  18
ATOM     17  C   UNL     1       2.866   6.645  18.279  0.00  0.00    +0.000 C 
ATOM     18  C   UNL     1       2.322   5.321  17.758  0.00  0.00    +0.000 C 
ENDBRANCH  11  18
BRANCH  15  19
ATOM     19  C   UNL     1       3.649   1.799  21.287  0.00  0.00    +0.000 C 
ATOM     20  C   UNL     1       5.089   1.581  20.828  0.00  0.00    +0.000 C 
ENDBRANCH  15  19
ENDBRANCH   1  16
BRANCH   9  21
ATOM     21  C   UNL     1       6.621   5.150  15.140  0.00  0.00    +0.000 A 
ATOM     22  N   UNL     1       7.562   5.485  14.277  0.00  0.00    +0.000 NA
ATOM     23  N   UNL     1       7.257   4.812  13.109  0.00  0.00    +0.000 NA
ATOM     24  C   UNL     1       6.158   4.133  13.340  0.00  0.00    +0.000 A 
ATOM     25  C   UNL     1       5.410   3.202  12.486  0.00  0.00    +0.000 C 
ATOM     26  O   UNL     1       5.684   4.310  14.610  0.00  0.00    +0.000 OA
ENDBRANCH   9  21
TORSDOF 4
ENDMDL
MODEL 4
REMARK VINA RESULT:      -6.4      2.097      2.819
REMARK  Name = 
REMARK  7 active torsions:
REMARK  status: ('A' for Active; 'I' for Inactive)
REMARK    1  A    between atoms: C_1  and  C_2
REMARK    2  A    between atoms: C_2  and  C_3
REMARK    3  A    between atoms: C_7  and  C_8
REMARK    4  A    between atoms: C_8  and  C_9
REMARK    5  A    between atoms: C_10  and  C_11
REMARK    6  A    between atoms: C_19  and  C_20
REMARK    7  A    between atoms: C_23  and  C_24
REMARK                            x       y       z     vdW  Elec       q    Type
REMARK                         _______ _______ _______ _____ _____    ______ ____
ROOT
ATOM      1  C   UNL     1       4.224   3.111  18.171  0.00  0.00    +0.000 C 
ATOM      2  O   UNL     1       3.997   2.119  17.481  0.00  0.00    +0.000 OA
ATOM      3  N   UNL     1       5.343   3.885  17.873  0.00  0.00    +0.000 N 
ATOM      4  C   UNL     1       6.028   4.783  18.699  0.00  0.00    +0.000 C 
ATOM      5  C   UNL     1       7.148   5.326  17.854  0.00  0.00    +0.000 C 
ATOM      6  C   UNL     1       7.563   6.613  18.571  0.00  0.00    +0.000 C 
ATOM      7  C   UNL     1       7.850   7.540  17.449  0.00  0.00    +0.000 C 
ATOM      8  C   UNL     1       7.721   6.637  16.234  0.00  0.00    +0.000 C 
ATOM      9  C   UNL     1       6.508   5.575  16.432  0.00  0.00    +0.000 C 
ATOM     10  C   UNL     1       5.957   3.995  16.559  0.00  0.00    +0.000 C 
ENDROOT
BRANCH   1  16
ATOM     11  C   UNL     1       3.125   2.711  20.377  0.00  0.00    +0.000 A 
ATOM     12  N   UNL     1       2.336   3.003  21.444  0.00  0.00    +0.000 NA
ATOM     13  C   UNL     1       1.573   4.087  21.358  0.00  0.00    +0.000 A 
ATOM     14  N   UNL     1       1.498   4.879  20.293  0.00  0.00    +0.000 NA
ATOM     15  C   UNL     1       2.290   4.598  19.222  0.00  0.00    +0.000 A 
ATOM     16  C   UNL     1       3.191   3.511  19.209  0.00  0.00    +0.000 A 
BRANCH  11  18
ATOM     17  C   UNL     1       5.135   1.453  21.112  0.00  0.00    +0.000 C 
ATOM     18  C   UNL     1       3.739   1.333  20.514  0.00  0.00    +0.000 C 
ENDBRANCH  11  18
BRANCH  15  19
ATOM     19  C   UNL     1       2.008   5.544  18.086  0.00  0.00    +0.000 C 
ATOM     20  C   UNL     1       2.873   6.792  17.928  0.00  0.00    +0.000 C 
ENDBRANCH  15  19
ENDBRANCH   1  16
BRANCH   9  21
ATOM     21  C   UNL     1       6.696   5.217  14.961  0.00  0.00    +0.000 A 
ATOM     22  N   UNL     1       7.649   5.486  14.089  0.00  0.00    +0.000 NA
ATOM     23  N   UNL     1       7.313   4.793  12.941  0.00  0.00    +0.000 NA
ATOM     24  C   UNL     1       6.185   4.170  13.192  0.00  0.00    +0.000 A 
ATOM     25  C   UNL     1       5.396   3.248  12.366  0.00  0.00    +0.000 C 
ATOM     26  O   UNL     1       5.722   4.404  14.457  0.00  0.00    +0.000 OA
ENDBRANCH   9  21
TORSDOF 4
ENDMDL
MODEL 5
REMARK VINA RESULT:      -6.4      1.982      3.577
REMARK  Name = 
REMARK  7 active torsions:
REMARK  status: ('A' for Active; 'I' for Inactive)
REMARK    1  A    between atoms: C_1  and  C_2
REMARK    2  A    between atoms: C_2  and  C_3
REMARK    3  A    between atoms: C_7  and  C_8
REMARK    4  A    between atoms: C_8  and  C_9
REMARK    5  A    between atoms: C_10  and  C_11
REMARK    6  A    between atoms: C_19  and  C_20
REMARK    7  A    between atoms: C_23  and  C_24
REMARK                            x       y       z     vdW  Elec       q    Type
REMARK                         _______ _______ _______ _____ _____    ______ ____
ROOT
ATOM      1  C   UNL     1       4.008   2.751  18.361  0.00  0.00    +0.000 C 
ATOM      2  O   UNL     1       3.792   1.753  17.676  0.00  0.00    +0.000 OA
ATOM      3  N   UNL     1       5.123   3.531  18.065  0.00  0.00    +0.000 N 
ATOM      4  C   UNL     1       5.797   4.439  18.890  0.00  0.00    +0.000 C 
ATOM      5  C   UNL     1       6.919   4.984  18.049  0.00  0.00    +0.000 C 
ATOM      6  C   UNL     1       7.320   6.278  18.760  0.00  0.00    +0.000 C 
ATOM      7  C   UNL     1       7.608   7.200  17.633  0.00  0.00    +0.000 C 
ATOM      8  C   UNL     1       7.494   6.288  16.423  0.00  0.00    +0.000 C 
ATOM      9  C   UNL     1       6.287   5.219  16.621  0.00  0.00    +0.000 C 
ATOM     10  C   UNL     1       5.745   3.636  16.755  0.00  0.00    +0.000 C 
ENDROOT
BRANCH   1  16
ATOM     11  C   UNL     1       2.003   4.107  18.975  0.00  0.00    +0.000 A 
ATOM     12  N   UNL     1       0.941   4.482  19.736  0.00  0.00    +0.000 NA
ATOM     13  C   UNL     1       0.831   3.932  20.939  0.00  0.00    +0.000 A 
ATOM     14  N   UNL     1       1.701   3.076  21.465  0.00  0.00    +0.000 NA
ATOM     15  C   UNL     1       2.765   2.689  20.707  0.00  0.00    +0.000 A 
ATOM     16  C   UNL     1       2.965   3.151  19.389  0.00  0.00    +0.000 A 
BRANCH  11  18
ATOM     17  C   UNL     1       2.672   6.354  18.161  0.00  0.00    +0.000 C 
ATOM     18  C   UNL     1       2.135   4.988  17.751  0.00  0.00    +0.000 C 
ENDBRANCH  11  18
BRANCH  15  19
ATOM     19  C   UNL     1       3.682   1.791  21.493  0.00  0.00    +0.000 C 
ATOM     20  C   UNL     1       5.047   1.433  20.912  0.00  0.00    +0.000 C 
ENDBRANCH  15  19
ENDBRANCH   1  16
BRANCH   9  21
ATOM     21  C   UNL     1       6.486   4.853  15.154  0.00  0.00    +0.000 A 
ATOM     22  N   UNL     1       5.847   4.032  14.341  0.00  0.00    +0.000 NA
ATOM     23  N   UNL     1       6.423   4.213  13.098  0.00  0.00    +0.000 NA
ATOM     24  C   UNL     1       7.368   5.112  13.245  0.00  0.00    +0.000 A 
ATOM     25  C   UNL     1       8.263   5.731  12.260  0.00  0.00    +0.000 C 
ATOM     26  O   UNL     1       7.478   5.557  14.533  0.00  0.00    +0.000 OA
ENDBRANCH   9  21
TORSDOF 4
ENDMDL
MODEL 6
REMARK VINA RESULT:      -6.4      2.006      3.095
REMARK  Name = 
REMARK  7 active torsions:
REMARK  status: ('A' for Active; 'I' for Inactive)
REMARK    1  A    between atoms: C_1  and  C_2
REMARK    2  A    between atoms: C_2  and  C_3
REMARK    3  A    between atoms: C_7  and  C_8
REMARK    4  A    between atoms: C_8  and  C_9
REMARK    5  A    between atoms: C_10  and  C_11
REMARK    6  A    between atoms: C_19  and  C_20
REMARK    7  A    between atoms: C_23  and  C_24
REMARK                            x       y       z     vdW  Elec       q    Type
REMARK                         _______ _______ _______ _____ _____    ______ ____
ROOT
ATOM      1  C   UNL     1       2.422   7.955  18.049  0.00  0.00    +0.000 C 
ATOM      2  O   UNL     1       3.106   8.802  17.475  0.00  0.00    +0.000 OA
ATOM      3  N   UNL     1       2.631   6.614  17.740  0.00  0.00    +0.000 N 
ATOM      4  C   UNL     1       1.765   5.530  17.929  0.00  0.00    +0.000 C 
ATOM      5  C   UNL     1       2.511   4.330  17.413  0.00  0.00    +0.000 C 
ATOM      6  C   UNL     1       1.790   3.142  18.054  0.00  0.00    +0.000 C 
ATOM      7  C   UNL     1       2.903   2.216  18.381  0.00  0.00    +0.000 C 
ATOM      8  C   UNL     1       4.101   2.905  17.750  0.00  0.00    +0.000 C 
ATOM      9  C   UNL     1       3.995   4.516  17.922  0.00  0.00    +0.000 C 
ATOM     10  C   UNL     1       3.881   6.052  17.253  0.00  0.00    +0.000 C 
ENDROOT
BRANCH   1  16
ATOM     11  C   UNL     1       1.714   7.840  20.440  0.00  0.00    +0.000 A 
ATOM     12  N   UNL     1       1.051   8.230  21.561  0.00  0.00    +0.000 NA
ATOM     13  C   UNL     1       0.140   9.186  21.426  0.00  0.00    +0.000 A 
ATOM     14  N   UNL     1      -0.197   9.758  20.274  0.00  0.00    +0.000 NA
ATOM     15  C   UNL     1       0.468   9.378  19.147  0.00  0.00    +0.000 A 
ATOM     16  C   UNL     1       1.500   8.417  19.163  0.00  0.00    +0.000 A 
BRANCH  11  18
ATOM     17  C   UNL     1       1.595   5.431  21.025  0.00  0.00    +0.000 C 
ATOM     18  C   UNL     1       2.528   6.590  20.696  0.00  0.00    +0.000 C 
ENDBRANCH  11  18
BRANCH  15  19
ATOM     19  C   UNL     1      -0.103  10.064  17.935  0.00  0.00    +0.000 C 
ATOM     20  C   UNL     1      -1.617  10.215  17.811  0.00  0.00    +0.000 C 
ENDBRANCH  15  19
ENDBRANCH   1  16
BRANCH   9  21
ATOM     21  C   UNL     1       5.431   4.580  17.412  0.00  0.00    +0.000 A 
ATOM     22  N   UNL     1       6.599   4.436  18.009  0.00  0.00    +0.000 NA
ATOM     23  N   UNL     1       7.543   4.490  17.000  0.00  0.00    +0.000 NA
ATOM     24  C   UNL     1       6.888   4.673  15.878  0.00  0.00    +0.000 A 
ATOM     25  C   UNL     1       7.366   4.749  14.492  0.00  0.00    +0.000 C 
ATOM     26  O   UNL     1       5.536   4.754  16.063  0.00  0.00    +0.000 OA
ENDBRANCH   9  21
TORSDOF 4
ENDMDL
MODEL 7
REMARK VINA RESULT:      -6.3      0.955      2.814
REMARK  Name = 
REMARK  7 active torsions:
REMARK  status: ('A' for Active; 'I' for Inactive)
REMARK    1  A    between atoms: C_1  and  C_2
REMARK    2  A    between atoms: C_2  and  C_3
REMARK    3  A    between atoms: C_7  and  C_8
REMARK    4  A    between atoms: C_8  and  C_9
REMARK    5  A    between atoms: C_10  and  C_11
REMARK    6  A    between atoms: C_19  and  C_20
REMARK    7  A    between atoms: C_23  and  C_24
REMARK                            x       y       z     vdW  Elec       q    Type
REMARK                         _______ _______ _______ _____ _____    ______ ____
ROOT
ATOM      1  C   UNL     1       2.639   5.633  18.310  0.00  0.00    +0.000 C 
ATOM      2  O   UNL     1       1.927   5.295  17.366  0.00  0.00    +0.000 OA
ATOM      3  N   UNL     1       3.978   5.249  18.301  0.00  0.00    +0.000 N 
ATOM      4  C   UNL     1       4.865   5.152  19.380  0.00  0.00    +0.000 C 
ATOM      5  C   UNL     1       6.167   4.692  18.785  0.00  0.00    +0.000 C 
ATOM      6  C   UNL     1       7.209   5.055  19.845  0.00  0.00    +0.000 C 
ATOM      7  C   UNL     1       8.361   5.517  19.033  0.00  0.00    +0.000 C 
ATOM      8  C   UNL     1       7.908   5.216  17.615  0.00  0.00    +0.000 C 
ATOM      9  C   UNL     1       6.320   5.512  17.444  0.00  0.00    +0.000 C 
ATOM     10  C   UNL     1       4.763   4.982  17.107  0.00  0.00    +0.000 C 
ENDROOT
BRANCH   1  16
ATOM     11  C   UNL     1       1.892   7.924  18.962  0.00  0.00    +0.000 A 
ATOM     12  N   UNL     1       1.279   8.859  19.734  0.00  0.00    +0.000 NA
ATOM     13  C   UNL     1       0.832   8.469  20.922  0.00  0.00    +0.000 A 
ATOM     14  N   UNL     1       0.978   7.247  21.424  0.00  0.00    +0.000 NA
ATOM     15  C   UNL     1       1.586   6.302  20.655  0.00  0.00    +0.000 A 
ATOM     16  C   UNL     1       2.051   6.569  19.350  0.00  0.00    +0.000 A 
BRANCH  11  18
ATOM     17  C   UNL     1       2.205  10.042  17.706  0.00  0.00    +0.000 C 
ATOM     18  C   UNL     1       2.561   8.562  17.762  0.00  0.00    +0.000 C 
ENDBRANCH  11  18
BRANCH  15  19
ATOM     19  C   UNL     1       1.738   5.012  21.415  0.00  0.00    +0.000 C 
ATOM     20  C   UNL     1       1.236   3.715  20.785  0.00  0.00    +0.000 C 
ENDBRANCH  15  19
ENDBRANCH   1  16
BRANCH   9  21
ATOM     21  C   UNL     1       6.533   5.320  15.946  0.00  0.00    +0.000 A 
ATOM     22  N   UNL     1       7.496   5.692  15.123  0.00  0.00    +0.000 NA
ATOM     23  N   UNL     1       7.184   5.126  13.901  0.00  0.00    +0.000 NA
ATOM     24  C   UNL     1       6.060   4.468  14.065  0.00  0.00    +0.000 A 
ATOM     25  C   UNL     1       5.294   3.634  13.130  0.00  0.00    +0.000 C 
ATOM     26  O   UNL     1       5.576   4.557  15.340  0.00  0.00    +0.000 OA
ENDBRANCH   9  21
TORSDOF 4
ENDMDL
MODEL 8
REMARK VINA RESULT:      -6.3      5.462      9.799
REMARK  Name = 
REMARK  7 active torsions:
REMARK  status: ('A' for Active; 'I' for Inactive)
REMARK    1  A    between atoms: C_1  and  C_2
REMARK    2  A    between atoms: C_2  and  C_3
REMARK    3  A    between atoms: C_7  and  C_8
REMARK    4  A    between atoms: C_8  and  C_9
REMARK    5  A    between atoms: C_10  and  C_11
REMARK    6  A    between atoms: C_19  and  C_20
REMARK    7  A    between atoms: C_23  and  C_24
REMARK                            x       y       z     vdW  Elec       q    Type
REMARK                         _______ _______ _______ _____ _____    ______ ____
ROOT
ATOM      1  C   UNL     1      -0.141  11.372  18.917  0.00  0.00    +0.000 C 
ATOM      2  O   UNL     1      -1.332  11.352  18.610  0.00  0.00    +0.000 OA
ATOM      3  N   UNL     1       0.584  12.538  18.684  0.00  0.00    +0.000 N 
ATOM      4  C   UNL     1       1.970  12.694  18.566  0.00  0.00    +0.000 C 
ATOM      5  C   UNL     1       2.186  14.162  18.317  0.00  0.00    +0.000 C 
ATOM      6  C   UNL     1       3.657  14.386  18.673  0.00  0.00    +0.000 C 
ATOM      7  C   UNL     1       3.638  15.710  19.343  0.00  0.00    +0.000 C 
ATOM      8  C   UNL     1       2.199  16.156  19.152  0.00  0.00    +0.000 C 
ATOM      9  C   UNL     1       1.182  14.897  19.292  0.00  0.00    +0.000 C 
ATOM     10  C   UNL     1       0.020  13.878  18.636  0.00  0.00    +0.000 C 
ENDROOT
BRANCH   1  16
ATOM     11  C   UNL     1       0.012  10.025  21.014  0.00  0.00    +0.000 A 
ATOM     12  N   UNL     1       0.337   8.951  21.781  0.00  0.00    +0.000 NA
ATOM     13  C   UNL     1       1.103   8.018  21.227  0.00  0.00    +0.000 A 
ATOM     14  N   UNL     1       1.604   8.079  19.998  0.00  0.00    +0.000 NA
ATOM     15  C   UNL     1       1.278   9.149  19.219  0.00  0.00    +0.000 A 
ATOM     16  C   UNL     1       0.423  10.178  19.665  0.00  0.00    +0.000 A 
BRANCH  11  18
ATOM     17  C   UNL     1      -0.955  10.569  23.234  0.00  0.00    +0.000 C 
ATOM     18  C   UNL     1      -0.644  11.108  21.843  0.00  0.00    +0.000 C 
ENDBRANCH  11  18
BRANCH  15  19
ATOM     19  C   UNL     1       2.002   9.089  17.901  0.00  0.00    +0.000 C 
ATOM     20  C   UNL     1       3.134   8.082  17.720  0.00  0.00    +0.000 C 
ENDBRANCH  15  19
ENDBRANCH   1  16
BRANCH   9  21
ATOM     21  C   UNL     1       0.051  15.919  19.289  0.00  0.00    +0.000 A 
ATOM     22  N   UNL     1      -0.868  16.240  20.180  0.00  0.00    +0.000 NA
ATOM     23  N   UNL     1      -1.544  17.322  19.648  0.00  0.00    +0.000 NA
ATOM     24  C   UNL     1      -1.001  17.570  18.479  0.00  0.00    +0.000 A 
ATOM     25  C   UNL     1      -1.275  18.631  17.502  0.00  0.00    +0.000 C 
ATOM     26  O   UNL     1       0.014  16.707  18.174  0.00  0.00    +0.000 OA
ENDBRANCH   9  21
TORSDOF 4
ENDMDL
MODEL 9
REMARK VINA RESULT:      -6.2      5.656     10.084
REMARK  Name = 
REMARK  7 active torsions:
REMARK  status: ('A' for Active; 'I' for Inactive)
REMARK    1  A    between atoms: C_1  and  C_2
REMARK    2  A    between atoms: C_2  and  C_3
REMARK    3  A    between atoms: C_7  and  C_8
REMARK    4  A    between atoms: C_8  and  C_9
REMARK    5  A    between atoms: C_10  and  C_11
REMARK    6  A    between atoms: C_19  and  C_20
REMARK    7  A    between atoms: C_23  and  C_24
REMARK                            x       y       z     vdW  Elec       q    Type
REMARK                         _______ _______ _______ _____ _____    ______ ____
ROOT
ATOM      1  C   UNL     1      -0.173  11.610  18.973  0.00  0.00    +0.000 C 
ATOM      2  O   UNL     1      -1.367  11.554  18.680  0.00  0.00    +0.000 OA
ATOM      3  N   UNL     1       0.534  12.766  18.655  0.00  0.00    +0.000 N 
ATOM      4  C   UNL     1       1.917  12.932  18.512  0.00  0.00    +0.000 C 
ATOM      5  C   UNL     1       2.110  14.382  18.163  0.00  0.00    +0.000 C 
ATOM      6  C   UNL     1       3.582  14.648  18.488  0.00  0.00    +0.000 C 
ATOM      7  C   UNL     1       3.552  16.014  19.068  0.00  0.00    +0.000 C 
ATOM      8  C   UNL     1       2.105  16.428  18.863  0.00  0.00    +0.000 C 
ATOM      9  C   UNL     1       1.107  15.168  19.097  0.00  0.00    +0.000 C 
ATOM     10  C   UNL     1      -0.048  14.093  18.523  0.00  0.00    +0.000 C 
ENDROOT
BRANCH   1  16
ATOM     11  C   UNL     1       0.143  10.496  21.185  0.00  0.00    +0.000 A 
ATOM     12  N   UNL     1       0.501   9.496  22.034  0.00  0.00    +0.000 NA
ATOM     13  C   UNL     1       1.161   8.467  21.517  0.00  0.00    +0.000 A 
ATOM     14  N   UNL     1       1.531   8.363  20.245  0.00  0.00    +0.000 NA
ATOM     15  C   UNL     1       1.171   9.357  19.385  0.00  0.00    +0.000 A 
ATOM     16  C   UNL     1       0.415  10.476  19.793  0.00  0.00    +0.000 A 
BRANCH  11  18
ATOM     17  C   UNL     1      -1.381  11.246  22.994  0.00  0.00    +0.000 C 
ATOM     18  C   UNL     1      -0.372  11.699  21.946  0.00  0.00    +0.000 C 
ENDBRANCH  11  18
BRANCH  15  19
ATOM     19  C   UNL     1       1.746   9.112  18.016  0.00  0.00    +0.000 C 
ATOM     20  C   UNL     1       2.753   7.981  17.825  0.00  0.00    +0.000 C 
ENDBRANCH  15  19
ENDBRANCH   1  16
BRANCH   9  21
ATOM     21  C   UNL     1      -0.038  16.173  19.037  0.00  0.00    +0.000 A 
ATOM     22  N   UNL     1      -0.444  17.014  18.104  0.00  0.00    +0.000 NA
ATOM     23  N   UNL     1      -1.607  17.581  18.591  0.00  0.00    +0.000 NA
ATOM     24  C   UNL     1      -1.814  17.059  19.777  0.00  0.00    +0.000 A 
ATOM     25  C   UNL     1      -2.920  17.246  20.725  0.00  0.00    +0.000 C 
ATOM     26  O   UNL     1      -0.847  16.162  20.137  0.00  0.00    +0.000 OA
ENDBRANCH   9  21
TORSDOF 4
ENDMDL
