MODEL 1
REMARK VINA RESULT:      -8.5      0.000      0.000
REMARK  Name = 
REMARK  5 active torsions:
REMARK  status: ('A' for Active; 'I' for Inactive)
REMARK    1  A    between atoms: C_1  and  N_2
REMARK    2  A    between atoms: C_6  and  C_7
REMARK    3  A    between atoms: C_11  and  N_12
REMARK    4  A    between atoms: C_13  and  C_15
REMARK    5  A    between atoms: C_17  and  C_18
REMARK                            x       y       z     vdW  Elec       q    Type
REMARK                         _______ _______ _______ _____ _____    ______ ____
ROOT
ATOM      1  N   UNL     1       1.790   7.005  20.894  0.00  0.00    +0.000 N 
ATOM      2  C   UNL     1       1.587   8.242  20.301  0.00  0.00    +0.000 C 
ATOM      3  O   UNL     1       1.842   8.537  19.139  0.00  0.00    +0.000 OA
ATOM      4  H   UNL     1       1.423   6.917  21.837  0.00  0.00    +0.000 HD
ENDROOT
BRANCH   1   9
ATOM      5  C   UNL     1       4.173   4.775  19.120  0.00  0.00    +0.000 A 
ATOM      6  C   UNL     1       3.452   3.572  19.123  0.00  0.00    +0.000 A 
ATOM      7  C   UNL     1       2.163   3.509  19.646  0.00  0.00    +0.000 A 
ATOM      8  C   UNL     1       1.585   4.646  20.206  0.00  0.00    +0.000 A 
ATOM      9  C   UNL     1       2.294   5.847  20.264  0.00  0.00    +0.000 A 
ATOM     10  C   UNL     1       3.578   5.910  19.698  0.00  0.00    +0.000 A 
BRANCH   5  16
ATOM     11  C   UNL     1       5.098   4.808  16.065  0.00  0.00    +0.000 C 
ATOM     12  N   UNL     1       5.918   4.769  17.245  0.00  0.00    +0.000 N 
ATOM     13  C   UNL     1       7.277   4.650  17.236  0.00  0.00    +0.000 A 
ATOM     14  N   UNL     1       7.722   4.595  18.465  0.00  0.00    +0.000 NA
ATOM     15  N   UNL     1       6.633   4.652  19.297  0.00  0.00    +0.000 NA
ATOM     16  C   UNL     1       5.533   4.758  18.566  0.00  0.00    +0.000 A 
ENDBRANCH   5  16
ENDBRANCH   1   9
BRANCH   2  17
ATOM     17  C   UNL     1       0.960   9.226  21.187  0.00  0.00    +0.000 A 
ATOM     18  C   UNL     1      -0.025  10.179  20.817  0.00  0.00    +0.000 A 
ATOM     19  C   UNL     1      -0.338  10.841  21.979  0.00  0.00    +0.000 A 
ATOM     20  O   UNL     1       0.436  10.333  22.985  0.00  0.00    +0.000 OA
ATOM     21  N   UNL     1       1.244   9.316  22.497  0.00  0.00    +0.000 NA
BRANCH  19  22
ATOM     22  C   UNL     1      -1.280  11.890  22.336  0.00  0.00    +0.000 A 
ATOM     23  C   UNL     1      -2.274  11.681  23.300  0.00  0.00    +0.000 A 
ATOM     24  C   UNL     1      -3.151  12.710  23.639  0.00  0.00    +0.000 A 
ATOM     25  C   UNL     1      -3.014  13.929  23.000  0.00  0.00    +0.000 A 
ATOM     26  N   UNL     1      -2.077  14.176  22.062  0.00  0.00    +0.000 NA
ATOM     27  C   UNL     1      -1.236  13.155  21.755  0.00  0.00    +0.000 A 
ENDBRANCH  19  22
ENDBRANCH   2  17
TORSDOF 4
ENDMDL
MODEL 2
REMARK VINA RESULT:      -8.3      7.037      8.639
REMARK  Name = 
REMARK  5 active torsions:
REMARK  status: ('A' for Active; 'I' for Inactive)
REMARK    1  A    between atoms: C_1  and  N_2
REMARK    2  A    between atoms: C_6  and  C_7
REMARK    3  A    between atoms: C_11  and  N_12
REMARK    4  A    between atoms: C_13  and  C_15
REMARK    5  A    between atoms: C_17  and  C_18
REMARK                            x       y       z     vdW  Elec       q    Type
REMARK                         _______ _______ _______ _____ _____    ______ ____
ROOT
ATOM      1  N   UNL     1       6.841   7.255  17.001  0.00  0.00    +0.000 N 
ATOM      2  C   UNL     1       7.734   7.509  18.031  0.00  0.00    +0.000 C 
ATOM      3  O   UNL     1       8.190   6.682  18.813  0.00  0.00    +0.000 OA
ATOM      4  H   UNL     1       6.655   8.045  16.392  0.00  0.00    +0.000 HD
ENDROOT
BRANCH   1   9
ATOM      5  C   UNL     1       4.578   4.308  16.988  0.00  0.00    +0.000 A 
ATOM      6  C   UNL     1       5.105   3.584  15.909  0.00  0.00    +0.000 A 
ATOM      7  C   UNL     1       6.237   4.028  15.230  0.00  0.00    +0.000 A 
ATOM      8  C   UNL     1       6.844   5.224  15.602  0.00  0.00    +0.000 A 
ATOM      9  C   UNL     1       6.317   5.995  16.639  0.00  0.00    +0.000 A 
ATOM     10  C   UNL     1       5.198   5.519  17.343  0.00  0.00    +0.000 A 
BRANCH   5  16
ATOM     11  C   UNL     1       4.320   2.701  19.734  0.00  0.00    +0.000 C 
ATOM     12  N   UNL     1       3.276   3.091  18.827  0.00  0.00    +0.000 N 
ATOM     13  C   UNL     1       1.965   2.742  18.966  0.00  0.00    +0.000 A 
ATOM     14  N   UNL     1       1.275   3.208  17.955  0.00  0.00    +0.000 NA
ATOM     15  N   UNL     1       2.156   3.850  17.123  0.00  0.00    +0.000 NA
ATOM     16  C   UNL     1       3.373   3.785  17.643  0.00  0.00    +0.000 A 
ENDBRANCH   5  16
ENDBRANCH   1   9
BRANCH   2  17
ATOM     17  C   UNL     1       8.173   8.905  18.102  0.00  0.00    +0.000 A 
ATOM     18  C   UNL     1       9.193   9.422  18.942  0.00  0.00    +0.000 A 
ATOM     19  C   UNL     1       9.278  10.756  18.626  0.00  0.00    +0.000 A 
ATOM     20  O   UNL     1       8.341  11.031  17.670  0.00  0.00    +0.000 OA
ATOM     21  N   UNL     1       7.652   9.875  17.331  0.00  0.00    +0.000 NA
BRANCH  19  22
ATOM     22  C   UNL     1      10.122  11.858  19.060  0.00  0.00    +0.000 A 
ATOM     23  C   UNL     1      11.290  12.199  18.367  0.00  0.00    +0.000 A 
ATOM     24  C   UNL     1      12.071  13.273  18.792  0.00  0.00    +0.000 A 
ATOM     25  C   UNL     1      11.663  13.982  19.907  0.00  0.00    +0.000 A 
ATOM     26  N   UNL     1      10.549  13.689  20.610  0.00  0.00    +0.000 NA
ATOM     27  C   UNL     1       9.809  12.638  20.170  0.00  0.00    +0.000 A 
ENDBRANCH  19  22
ENDBRANCH   2  17
TORSDOF 4
ENDMDL
MODEL 3
REMARK VINA RESULT:      -8.2      3.294      9.934
REMARK  Name = 
REMARK  5 active torsions:
REMARK  status: ('A' for Active; 'I' for Inactive)
REMARK    1  A    between atoms: C_1  and  N_2
REMARK    2  A    between atoms: C_6  and  C_7
REMARK    3  A    between atoms: C_11  and  N_12
REMARK    4  A    between atoms: C_13  and  C_15
REMARK    5  A    between atoms: C_17  and  C_18
REMARK                            x       y       z     vdW  Elec       q    Type
REMARK                         _______ _______ _______ _____ _____    ______ ____
ROOT
ATOM      1  N   UNL     1       1.382   9.264  18.604  0.00  0.00    +0.000 N 
ATOM      2  C   UNL     1       1.715   8.248  19.487  0.00  0.00    +0.000 C 
ATOM      3  O   UNL     1       1.350   8.155  20.653  0.00  0.00    +0.000 OA
ATOM      4  H   UNL     1       1.693   9.120  17.649  0.00  0.00    +0.000 HD
ENDROOT
BRANCH   1   9
ATOM      5  C   UNL     1      -1.672  11.380  18.579  0.00  0.00    +0.000 A 
ATOM      6  C   UNL     1      -1.283  12.404  19.454  0.00  0.00    +0.000 A 
ATOM      7  C   UNL     1      -0.002  12.435  19.999  0.00  0.00    +0.000 A 
ATOM      8  C   UNL     1       0.904  11.421  19.700  0.00  0.00    +0.000 A 
ATOM      9  C   UNL     1       0.534  10.360  18.872  0.00  0.00    +0.000 A 
ATOM     10  C   UNL     1      -0.748  10.359  18.296  0.00  0.00    +0.000 A 
BRANCH   5  16
ATOM     11  C   UNL     1      -2.714  10.751  15.628  0.00  0.00    +0.000 C 
ATOM     12  N   UNL     1      -3.480  11.135  16.781  0.00  0.00    +0.000 N 
ATOM     13  C   UNL     1      -4.821  11.383  16.769  0.00  0.00    +0.000 A 
ATOM     14  N   UNL     1      -5.212  11.757  17.961  0.00  0.00    +0.000 NA
ATOM     15  N   UNL     1      -4.101  11.781  18.764  0.00  0.00    +0.000 NA
ATOM     16  C   UNL     1      -3.045  11.406  18.059  0.00  0.00    +0.000 A 
ENDBRANCH   5  16
ENDBRANCH   1   9
BRANCH   2  17
ATOM     17  C   UNL     1       2.540   7.194  18.890  0.00  0.00    +0.000 A 
ATOM     18  C   UNL     1       3.469   7.356  17.830  0.00  0.00    +0.000 A 
ATOM     19  C   UNL     1       4.027   6.114  17.648  0.00  0.00    +0.000 A 
ATOM     20  O   UNL     1       3.444   5.248  18.531  0.00  0.00    +0.000 OA
ATOM     21  N   UNL     1       2.519   5.920  19.317  0.00  0.00    +0.000 NA
BRANCH  19  22
ATOM     22  C   UNL     1       5.059   5.574  16.777  0.00  0.00    +0.000 A 
ATOM     23  C   UNL     1       4.850   4.403  16.037  0.00  0.00    +0.000 A 
ATOM     24  C   UNL     1       5.847   3.918  15.193  0.00  0.00    +0.000 A 
ATOM     25  C   UNL     1       7.038   4.618  15.112  0.00  0.00    +0.000 A 
ATOM     26  N   UNL     1       7.288   5.746  15.809  0.00  0.00    +0.000 NA
ATOM     27  C   UNL     1       6.296   6.194  16.620  0.00  0.00    +0.000 A 
ENDBRANCH  19  22
ENDBRANCH   2  17
TORSDOF 4
ENDMDL
MODEL 4
REMARK VINA RESULT:      -8.1      0.728      1.226
REMARK  Name = 
REMARK  5 active torsions:
REMARK  status: ('A' for Active; 'I' for Inactive)
REMARK    1  A    between atoms: C_1  and  N_2
REMARK    2  A    between atoms: C_6  and  C_7
REMARK    3  A    between atoms: C_11  and  N_12
REMARK    4  A    between atoms: C_13  and  C_15
REMARK    5  A    between atoms: C_17  and  C_18
REMARK                            x       y       z     vdW  Elec       q    Type
REMARK                         _______ _______ _______ _____ _____    ______ ____
ROOT
ATOM      1  N   UNL     1       1.717   6.742  20.909  0.00  0.00    +0.000 N 
ATOM      2  C   UNL     1       1.595   7.988  20.314  0.00  0.00    +0.000 C 
ATOM      3  O   UNL     1       1.838   8.257  19.143  0.00  0.00    +0.000 OA
ATOM      4  H   UNL     1       1.372   6.687  21.862  0.00  0.00    +0.000 HD
ENDROOT
BRANCH   1   9
ATOM      5  C   UNL     1       3.696   4.427  18.781  0.00  0.00    +0.000 A 
ATOM      6  C   UNL     1       3.065   3.209  19.071  0.00  0.00    +0.000 A 
ATOM      7  C   UNL     1       1.955   3.155  19.909  0.00  0.00    +0.000 A 
ATOM      8  C   UNL     1       1.474   4.322  20.499  0.00  0.00    +0.000 A 
ATOM      9  C   UNL     1       2.108   5.545  20.271  0.00  0.00    +0.000 A 
ATOM     10  C   UNL     1       3.204   5.593  19.393  0.00  0.00    +0.000 A 
BRANCH   5  16
ATOM     11  C   UNL     1       6.676   5.402  19.381  0.00  0.00    +0.000 C 
ATOM     12  N   UNL     1       6.152   4.827  18.174  0.00  0.00    +0.000 N 
ATOM     13  C   UNL     1       6.862   4.681  17.018  0.00  0.00    +0.000 A 
ATOM     14  N   UNL     1       6.093   4.172  16.089  0.00  0.00    +0.000 NA
ATOM     15  N   UNL     1       4.847   4.005  16.638  0.00  0.00    +0.000 NA
ATOM     16  C   UNL     1       4.872   4.400  17.902  0.00  0.00    +0.000 A 
ENDBRANCH   5  16
ENDBRANCH   1   9
BRANCH   2  17
ATOM     17  C   UNL     1       1.073   9.023  21.211  0.00  0.00    +0.000 A 
ATOM     18  C   UNL     1       0.137  10.033  20.871  0.00  0.00    +0.000 A 
ATOM     19  C   UNL     1      -0.079  10.729  22.035  0.00  0.00    +0.000 A 
ATOM     20  O   UNL     1       0.705  10.185  23.012  0.00  0.00    +0.000 OA
ATOM     21  N   UNL     1       1.422   9.111  22.506  0.00  0.00    +0.000 NA
BRANCH  19  22
ATOM     22  C   UNL     1      -0.934  11.843  22.416  0.00  0.00    +0.000 A 
ATOM     23  C   UNL     1      -2.116  11.640  23.139  0.00  0.00    +0.000 A 
ATOM     24  C   UNL     1      -2.907  12.725  23.511  0.00  0.00    +0.000 A 
ATOM     25  C   UNL     1      -2.496  13.995  23.146  0.00  0.00    +0.000 A 
ATOM     26  N   UNL     1      -1.369  14.240  22.446  0.00  0.00    +0.000 NA
ATOM     27  C   UNL     1      -0.619  13.162  22.100  0.00  0.00    +0.000 A 
ENDBRANCH  19  22
ENDBRANCH   2  17
TORSDOF 4
ENDMDL
MODEL 5
REMARK VINA RESULT:      -8.0      2.538      4.394
REMARK  Name = 
REMARK  5 active torsions:
REMARK  status: ('A' for Active; 'I' for Inactive)
REMARK    1  A    between atoms: C_1  and  N_2
REMARK    2  A    between atoms: C_6  and  C_7
REMARK    3  A    between atoms: C_11  and  N_12
REMARK    4  A    between atoms: C_13  and  C_15
REMARK    5  A    between atoms: C_17  and  C_18
REMARK                            x       y       z     vdW  Elec       q    Type
REMARK                         _______ _______ _______ _____ _____    ______ ____
ROOT
ATOM      1  N   UNL     1       4.393   6.887  17.757  0.00  0.00    +0.000 N 
ATOM      2  C   UNL     1       3.119   6.523  18.167  0.00  0.00    +0.000 C 
ATOM      3  O   UNL     1       2.661   5.386  18.181  0.00  0.00    +0.000 OA
ATOM      4  H   UNL     1       4.630   7.862  17.912  0.00  0.00    +0.000 HD
ENDROOT
BRANCH   1   9
ATOM      5  C   UNL     1       6.381   4.759  15.450  0.00  0.00    +0.000 A 
ATOM      6  C   UNL     1       7.452   4.407  16.284  0.00  0.00    +0.000 A 
ATOM      7  C   UNL     1       7.490   4.812  17.616  0.00  0.00    +0.000 A 
ATOM      8  C   UNL     1       6.467   5.605  18.129  0.00  0.00    +0.000 A 
ATOM      9  C   UNL     1       5.410   6.015  17.313  0.00  0.00    +0.000 A 
ATOM     10  C   UNL     1       5.362   5.569  15.982  0.00  0.00    +0.000 A 
BRANCH   5  16
ATOM     11  C   UNL     1       8.330   5.685  13.098  0.00  0.00    +0.000 C 
ATOM     12  N   UNL     1       7.267   4.719  13.048  0.00  0.00    +0.000 N 
ATOM     13  C   UNL     1       6.856   4.084  11.913  0.00  0.00    +0.000 A 
ATOM     14  N   UNL     1       5.839   3.306  12.187  0.00  0.00    +0.000 NA
ATOM     15  N   UNL     1       5.562   3.453  13.521  0.00  0.00    +0.000 NA
ATOM     16  C   UNL     1       6.422   4.309  14.053  0.00  0.00    +0.000 A 
ENDBRANCH   5  16
ENDBRANCH   1   9
BRANCH   2  17
ATOM     17  C   UNL     1       2.316   7.643  18.666  0.00  0.00    +0.000 A 
ATOM     18  C   UNL     1       1.773   7.769  19.971  0.00  0.00    +0.000 A 
ATOM     19  C   UNL     1       1.147   8.991  19.983  0.00  0.00    +0.000 A 
ATOM     20  O   UNL     1       1.282   9.555  18.746  0.00  0.00    +0.000 OA
ATOM     21  N   UNL     1       2.020   8.720  17.919  0.00  0.00    +0.000 NA
BRANCH  19  22
ATOM     22  C   UNL     1       0.433   9.764  20.987  0.00  0.00    +0.000 A 
ATOM     23  C   UNL     1      -0.429  10.808  20.627  0.00  0.00    +0.000 A 
ATOM     24  C   UNL     1      -1.117  11.520  21.607  0.00  0.00    +0.000 A 
ATOM     25  C   UNL     1      -0.924  11.172  22.932  0.00  0.00    +0.000 A 
ATOM     26  N   UNL     1      -0.101  10.179  23.328  0.00  0.00    +0.000 NA
ATOM     27  C   UNL     1       0.554   9.502  22.349  0.00  0.00    +0.000 A 
ENDBRANCH  19  22
ENDBRANCH   2  17
TORSDOF 4
ENDMDL
MODEL 6
REMARK VINA RESULT:      -7.9      1.428      1.453
REMARK  Name = 
REMARK  5 active torsions:
REMARK  status: ('A' for Active; 'I' for Inactive)
REMARK    1  A    between atoms: C_1  and  N_2
REMARK    2  A    between atoms: C_6  and  C_7
REMARK    3  A    between atoms: C_11  and  N_12
REMARK    4  A    between atoms: C_13  and  C_15
REMARK    5  A    between atoms: C_17  and  C_18
REMARK                            x       y       z     vdW  Elec       q    Type
REMARK                         _______ _______ _______ _____ _____    ______ ____
ROOT
ATOM      1  N   UNL     1       1.934   7.710  20.039  0.00  0.00    +0.000 N 
ATOM      2  C   UNL     1       1.585   8.590  19.026  0.00  0.00    +0.000 C 
ATOM      3  O   UNL     1       1.713   8.394  17.823  0.00  0.00    +0.000 OA
ATOM      4  H   UNL     1       1.659   8.002  20.972  0.00  0.00    +0.000 HD
ENDROOT
BRANCH   1   9
ATOM      5  C   UNL     1       4.322   5.035  19.071  0.00  0.00    +0.000 A 
ATOM      6  C   UNL     1       3.691   3.913  19.626  0.00  0.00    +0.000 A 
ATOM      7  C   UNL     1       2.456   4.023  20.259  0.00  0.00    +0.000 A 
ATOM      8  C   UNL     1       1.844   5.268  20.373  0.00  0.00    +0.000 A 
ATOM      9  C   UNL     1       2.467   6.414  19.876  0.00  0.00    +0.000 A 
ATOM     10  C   UNL     1       3.695   6.286  19.205  0.00  0.00    +0.000 A 
BRANCH   5  16
ATOM     11  C   UNL     1       5.012   4.583  15.987  0.00  0.00    +0.000 C 
ATOM     12  N   UNL     1       5.915   4.645  17.103  0.00  0.00    +0.000 N 
ATOM     13  C   UNL     1       7.259   4.425  17.020  0.00  0.00    +0.000 A 
ATOM     14  N   UNL     1       7.792   4.505  18.213  0.00  0.00    +0.000 NA
ATOM     15  N   UNL     1       6.776   4.756  19.099  0.00  0.00    +0.000 NA
ATOM     16  C   UNL     1       5.632   4.842  18.435  0.00  0.00    +0.000 A 
ENDBRANCH   5  16
ENDBRANCH   1   9
BRANCH   2  17
ATOM     17  C   UNL     1       0.963   9.828  19.505  0.00  0.00    +0.000 A 
ATOM     18  C   UNL     1       0.476  10.068  20.816  0.00  0.00    +0.000 A 
ATOM     19  C   UNL     1       0.032  11.367  20.802  0.00  0.00    +0.000 A 
ATOM     20  O   UNL     1       0.216  11.870  19.545  0.00  0.00    +0.000 OA
ATOM     21  N   UNL     1       0.807  10.914  18.731  0.00  0.00    +0.000 NA
BRANCH  19  22
ATOM     22  C   UNL     1      -0.539  12.263  21.795  0.00  0.00    +0.000 A 
ATOM     23  C   UNL     1      -1.656  11.893  22.555  0.00  0.00    +0.000 A 
ATOM     24  C   UNL     1      -2.171  12.762  23.516  0.00  0.00    +0.000 A 
ATOM     25  C   UNL     1      -1.556  13.988  23.691  0.00  0.00    +0.000 A 
ATOM     26  N   UNL     1      -0.482  14.391  22.980  0.00  0.00    +0.000 NA
ATOM     27  C   UNL     1      -0.002  13.522  22.054  0.00  0.00    +0.000 A 
ENDBRANCH  19  22
ENDBRANCH   2  17
TORSDOF 4
ENDMDL
MODEL 7
REMARK VINA RESULT:      -7.8      3.275      9.974
REMARK  Name = 
REMARK  5 active torsions:
REMARK  status: ('A' for Active; 'I' for Inactive)
REMARK    1  A    between atoms: C_1  and  N_2
REMARK    2  A    between atoms: C_6  and  C_7
REMARK    3  A    between atoms: C_11  and  N_12
REMARK    4  A    between atoms: C_13  and  C_15
REMARK    5  A    between atoms: C_17  and  C_18
REMARK                            x       y       z     vdW  Elec       q    Type
REMARK                         _______ _______ _______ _____ _____    ______ ____
ROOT
ATOM      1  N   UNL     1       1.503   9.357  18.723  0.00  0.00    +0.000 N 
ATOM      2  C   UNL     1       1.684   8.290  19.589  0.00  0.00    +0.000 C 
ATOM      3  O   UNL     1       1.133   8.137  20.673  0.00  0.00    +0.000 OA
ATOM      4  H   UNL     1       1.967   9.261  17.824  0.00  0.00    +0.000 HD
ENDROOT
BRANCH   1   9
ATOM      5  C   UNL     1      -1.548  11.452  18.409  0.00  0.00    +0.000 A 
ATOM      6  C   UNL     1      -1.251  12.478  19.317  0.00  0.00    +0.000 A 
ATOM      7  C   UNL     1      -0.028  12.518  19.981  0.00  0.00    +0.000 A 
ATOM      8  C   UNL     1       0.910  11.510  19.769  0.00  0.00    +0.000 A 
ATOM      9  C   UNL     1       0.627  10.447  18.909  0.00  0.00    +0.000 A 
ATOM     10  C   UNL     1      -0.595  10.437  18.215  0.00  0.00    +0.000 A 
BRANCH   5  16
ATOM     11  C   UNL     1      -4.383  12.246  19.644  0.00  0.00    +0.000 C 
ATOM     12  N   UNL     1      -4.082  11.812  18.308  0.00  0.00    +0.000 N 
ATOM     13  C   UNL     1      -5.019  11.580  17.343  0.00  0.00    +0.000 A 
ATOM     14  N   UNL     1      -4.434  11.149  16.255  0.00  0.00    +0.000 NA
ATOM     15  N   UNL     1      -3.091  11.069  16.519  0.00  0.00    +0.000 NA
ATOM     16  C   UNL     1      -2.866  11.469  17.762  0.00  0.00    +0.000 A 
ENDBRANCH   5  16
ENDBRANCH   1   9
BRANCH   2  17
ATOM     17  C   UNL     1       2.592   7.260  19.077  0.00  0.00    +0.000 A 
ATOM     18  C   UNL     1       3.373   7.343  17.895  0.00  0.00    +0.000 A 
ATOM     19  C   UNL     1       4.089   6.172  17.855  0.00  0.00    +0.000 A 
ATOM     20  O   UNL     1       3.737   5.416  18.936  0.00  0.00    +0.000 OA
ATOM     21  N   UNL     1       2.807   6.094  19.711  0.00  0.00    +0.000 NA
BRANCH  19  22
ATOM     22  C   UNL     1       5.096   5.620  16.962  0.00  0.00    +0.000 A 
ATOM     23  C   UNL     1       4.879   4.421  16.271  0.00  0.00    +0.000 A 
ATOM     24  C   UNL     1       5.851   3.924  15.404  0.00  0.00    +0.000 A 
ATOM     25  C   UNL     1       7.025   4.640  15.252  0.00  0.00    +0.000 A 
ATOM     26  N   UNL     1       7.282   5.795  15.900  0.00  0.00    +0.000 NA
ATOM     27  C   UNL     1       6.314   6.255  16.735  0.00  0.00    +0.000 A 
ENDBRANCH  19  22
ENDBRANCH   2  17
TORSDOF 4
ENDMDL
MODEL 8
REMARK VINA RESULT:      -7.8      3.239     10.019
REMARK  Name = 
REMARK  5 active torsions:
REMARK  status: ('A' for Active; 'I' for Inactive)
REMARK    1  A    between atoms: C_1  and  N_2
REMARK    2  A    between atoms: C_6  and  C_7
REMARK    3  A    between atoms: C_11  and  N_12
REMARK    4  A    between atoms: C_13  and  C_15
REMARK    5  A    between atoms: C_17  and  C_18
REMARK                            x       y       z     vdW  Elec       q    Type
REMARK                         _______ _______ _______ _____ _____    ______ ____
ROOT
ATOM      1  N   UNL     1       2.884   6.938  18.507  0.00  0.00    +0.000 N 
ATOM      2  C   UNL     1       3.292   5.649  18.815  0.00  0.00    +0.000 C 
ATOM      3  O   UNL     1       3.053   5.044  19.854  0.00  0.00    +0.000 OA
ATOM      4  H   UNL     1       3.088   7.236  17.558  0.00  0.00    +0.000 HD
ENDROOT
BRANCH   1   9
ATOM      5  C   UNL     1       0.679   9.775  19.449  0.00  0.00    +0.000 A 
ATOM      6  C   UNL     1       0.380   9.439  20.777  0.00  0.00    +0.000 A 
ATOM      7  C   UNL     1       0.951   8.323  21.382  0.00  0.00    +0.000 A 
ATOM      8  C   UNL     1       1.810   7.503  20.654  0.00  0.00    +0.000 A 
ATOM      9  C   UNL     1       2.090   7.780  19.315  0.00  0.00    +0.000 A 
ATOM     10  C   UNL     1       1.539   8.931  18.726  0.00  0.00    +0.000 A 
BRANCH   5  16
ATOM     11  C   UNL     1       1.572  12.836  19.597  0.00  0.00    +0.000 C 
ATOM     12  N   UNL     1       0.419  12.274  18.951  0.00  0.00    +0.000 N 
ATOM     13  C   UNL     1      -0.560  13.007  18.346  0.00  0.00    +0.000 A 
ATOM     14  N   UNL     1      -1.495  12.209  17.896  0.00  0.00    +0.000 NA
ATOM     15  N   UNL     1      -1.136  10.929  18.236  0.00  0.00    +0.000 NA
ATOM     16  C   UNL     1       0.023  10.958  18.876  0.00  0.00    +0.000 A 
ENDBRANCH   5  16
ENDBRANCH   1   9
BRANCH   2  17
ATOM     17  C   UNL     1       4.028   4.988  17.734  0.00  0.00    +0.000 A 
ATOM     18  C   UNL     1       4.594   5.620  16.597  0.00  0.00    +0.000 A 
ATOM     19  C   UNL     1       5.215   4.613  15.899  0.00  0.00    +0.000 A 
ATOM     20  O   UNL     1       5.008   3.438  16.564  0.00  0.00    +0.000 OA
ATOM     21  N   UNL     1       4.273   3.667  17.719  0.00  0.00    +0.000 NA
BRANCH  19  22
ATOM     22  C   UNL     1       6.013   4.553  14.684  0.00  0.00    +0.000 A 
ATOM     23  C   UNL     1       5.648   3.728  13.612  0.00  0.00    +0.000 A 
ATOM     24  C   UNL     1       6.418   3.704  12.450  0.00  0.00    +0.000 A 
ATOM     25  C   UNL     1       7.542   4.508  12.389  0.00  0.00    +0.000 A 
ATOM     26  N   UNL     1       7.936   5.315  13.397  0.00  0.00    +0.000 NA
ATOM     27  C   UNL     1       7.164   5.317  14.514  0.00  0.00    +0.000 A 
ENDBRANCH  19  22
ENDBRANCH   2  17
TORSDOF 4
ENDMDL
MODEL 9
REMARK VINA RESULT:      -7.8      3.315     10.084
REMARK  Name = 
REMARK  5 active torsions:
REMARK  status: ('A' for Active; 'I' for Inactive)
REMARK    1  A    between atoms: C_1  and  N_2
REMARK    2  A    between atoms: C_6  and  C_7
REMARK    3  A    between atoms: C_11  and  N_12
REMARK    4  A    between atoms: C_13  and  C_15
REMARK    5  A    between atoms: C_17  and  C_18
REMARK                            x       y       z     vdW  Elec       q    Type
REMARK                         _______ _______ _______ _____ _____    ______ ____
ROOT
ATOM      1  N   UNL     1       2.863   6.948  18.287  0.00  0.00    +0.000 N 
ATOM      2  C   UNL     1       3.734   5.934  18.658  0.00  0.00    +0.000 C 
ATOM      3  O   UNL     1       4.010   5.601  19.805  0.00  0.00    +0.000 OA
ATOM      4  H   UNL     1       2.680   7.011  17.290  0.00  0.00    +0.000 HD
ENDROOT
BRANCH   1   9
ATOM      5  C   UNL     1       0.758   9.784  19.439  0.00  0.00    +0.000 A 
ATOM      6  C   UNL     1       0.466   9.373  20.747  0.00  0.00    +0.000 A 
ATOM      7  C   UNL     1       1.010   8.204  21.272  0.00  0.00    +0.000 A 
ATOM      8  C   UNL     1       1.834   7.407  20.481  0.00  0.00    +0.000 A 
ATOM      9  C   UNL     1       2.106   7.760  19.158  0.00  0.00    +0.000 A 
ATOM     10  C   UNL     1       1.583   8.962  18.651  0.00  0.00    +0.000 A 
BRANCH   5  16
ATOM     11  C   UNL     1      -2.081  10.180  18.035  0.00  0.00    +0.000 C 
ATOM     12  N   UNL     1      -1.093  11.176  18.345  0.00  0.00    +0.000 N 
ATOM     13  C   UNL     1      -1.187  12.490  17.993  0.00  0.00    +0.000 A 
ATOM     14  N   UNL     1      -0.109  13.127  18.375  0.00  0.00    +0.000 NA
ATOM     15  N   UNL     1       0.720  12.207  18.964  0.00  0.00    +0.000 NA
ATOM     16  C   UNL     1       0.133  11.020  18.951  0.00  0.00    +0.000 A 
ENDBRANCH   5  16
ENDBRANCH   1   9
BRANCH   2  17
ATOM     17  C   UNL     1       4.303   5.200  17.524  0.00  0.00    +0.000 A 
ATOM     18  C   UNL     1       4.929   5.770  16.386  0.00  0.00    +0.000 A 
ATOM     19  C   UNL     1       5.338   4.700  15.628  0.00  0.00    +0.000 A 
ATOM     20  O   UNL     1       4.953   3.553  16.261  0.00  0.00    +0.000 OA
ATOM     21  N   UNL     1       4.313   3.858  17.454  0.00  0.00    +0.000 NA
BRANCH  19  22
ATOM     22  C   UNL     1       6.068   4.552  14.378  0.00  0.00    +0.000 A 
ATOM     23  C   UNL     1       5.672   3.623  13.408  0.00  0.00    +0.000 A 
ATOM     24  C   UNL     1       6.376   3.515  12.210  0.00  0.00    +0.000 A 
ATOM     25  C   UNL     1       7.467   4.342  12.011  0.00  0.00    +0.000 A 
ATOM     26  N   UNL     1       7.890   5.248  12.917  0.00  0.00    +0.000 NA
ATOM     27  C   UNL     1       7.182   5.330  14.074  0.00  0.00    +0.000 A 
ENDBRANCH  19  22
ENDBRANCH   2  17
TORSDOF 4
ENDMDL
