MODEL 1
REMARK VINA RESULT:      -9.3      0.000      0.000
REMARK  Name = 
REMARK  8 active torsions:
REMARK  status: ('A' for Active; 'I' for Inactive)
REMARK    1  A    between atoms: C_1  and  C_2
REMARK    2  A    between atoms: C_2  and  C_3
REMARK    3  A    between atoms: C_2  and  C_11
REMARK    4  A    between atoms: C_3  and  C_4
REMARK    5  A    between atoms: C_4  and  C_5
REMARK    6  A    between atoms: N_9  and  C_10
REMARK    7  A    between atoms: C_15  and  N_16
REMARK    8  A    between atoms: C_23  and  C_24
REMARK                            x       y       z     vdW  Elec       q    Type
REMARK                         _______ _______ _______ _____ _____    ______ ____
ROOT
ATOM      1  C   UNL     1       4.405   5.279  18.303  0.00  0.00    +0.000 A 
ATOM      2  C   UNL     1       4.138   4.138  19.050  0.00  0.00    +0.000 A 
ATOM      3  C   UNL     1       3.122   4.175  19.997  0.00  0.00    +0.000 A 
ATOM      4  C   UNL     1       2.393   5.344  20.172  0.00  0.00    +0.000 A 
ATOM      5  C   UNL     1       2.699   6.461  19.401  0.00  0.00    +0.000 A 
ATOM      6  N   UNL     1       3.700   6.423  18.499  0.00  0.00    +0.000 NA
ENDROOT
BRANCH   5   7
ATOM      7  N   UNL     1       1.976   7.661  19.564  0.00  0.00    +0.000 N 
ATOM      8  C   UNL     1       1.274   7.984  20.788  0.00  0.00    +0.000 C 
ATOM      9  C   UNL     1       0.768   9.368  20.547  0.00  0.00    +0.000 A 
ATOM     10  C   UNL     1       1.119   9.765  19.258  0.00  0.00    +0.000 A 
ATOM     11  C   UNL     1       0.776  11.001  18.741  0.00  0.00    +0.000 A 
ATOM     12  C   UNL     1       0.050  11.865  19.562  0.00  0.00    +0.000 A 
ATOM     13  C   UNL     1      -0.302  11.480  20.868  0.00  0.00    +0.000 A 
ATOM     14  C   UNL     1       0.057  10.221  21.387  0.00  0.00    +0.000 A 
ATOM     15  C   UNL     1       1.887   8.684  18.623  0.00  0.00    +0.000 C 
ATOM     16  O   UNL     1       2.288   8.782  17.477  0.00  0.00    +0.000 OA
BRANCH  14  17
ATOM     17  C   UNL     1      -0.314   9.851  22.799  0.00  0.00    +0.000 C 
ATOM     18  F   UNL     1       0.760   9.583  23.594  0.00  0.00    +0.000 F 
ATOM     19  F   UNL     1      -1.003  10.839  23.430  0.00  0.00    +0.000 F 
ATOM     20  F   UNL     1      -1.103   8.743  22.859  0.00  0.00    +0.000 F 
ENDBRANCH  14  17
ENDBRANCH   5   7
BRANCH   1  22
ATOM     21  C   UNL     1       6.821   4.667  17.701  0.00  0.00    +0.000 C 
ATOM     22  C   UNL     1       5.517   5.361  17.264  0.00  0.00    +0.000 C 
BRANCH  22  23
ATOM     23  C   UNL     1       5.109   4.798  15.880  0.00  0.00    +0.000 C 
BRANCH  23  24
ATOM     24  C   UNL     1       6.129   3.863  15.212  0.00  0.00    +0.000 C 
BRANCH  24  25
ATOM     25  C   UNL     1       6.831   4.523  14.067  0.00  0.00    +0.000 A 
ATOM     26  N   UNL     1       7.723   5.492  14.125  0.00  0.00    +0.000 NA
ATOM     27  N   UNL     1       8.171   5.747  12.849  0.00  0.00    +0.000 NA
ATOM     28  C   UNL     1       7.544   4.926  12.041  0.00  0.00    +0.000 A 
ATOM     29  N   UNL     1       6.677   4.158  12.753  0.00  0.00    +0.000 N 
ATOM     30  C   UNL     1       5.796   3.155  12.217  0.00  0.00    +0.000 C 
ENDBRANCH  24  25
ENDBRANCH  23  24
ENDBRANCH  22  23
ENDBRANCH   1  22
TORSDOF 6
ENDMDL
MODEL 2
REMARK VINA RESULT:      -9.1      0.678      1.017
REMARK  Name = 
REMARK  8 active torsions:
REMARK  status: ('A' for Active; 'I' for Inactive)
REMARK    1  A    between atoms: C_1  and  C_2
REMARK    2  A    between atoms: C_2  and  C_3
REMARK    3  A    between atoms: C_2  and  C_11
REMARK    4  A    between atoms: C_3  and  C_4
REMARK    5  A    between atoms: C_4  and  C_5
REMARK    6  A    between atoms: N_9  and  C_10
REMARK    7  A    between atoms: C_15  and  N_16
REMARK    8  A    between atoms: C_23  and  C_24
REMARK                            x       y       z     vdW  Elec       q    Type
REMARK                         _______ _______ _______ _____ _____    ______ ____
ROOT
ATOM      1  C   UNL     1       4.365   5.734  17.694  0.00  0.00    +0.000 A 
ATOM      2  C   UNL     1       3.869   4.474  18.008  0.00  0.00    +0.000 A 
ATOM      3  C   UNL     1       2.683   4.375  18.723  0.00  0.00    +0.000 A 
ATOM      4  C   UNL     1       2.015   5.533  19.103  0.00  0.00    +0.000 A 
ATOM      5  C   UNL     1       2.552   6.772  18.766  0.00  0.00    +0.000 A 
ATOM      6  N   UNL     1       3.714   6.858  18.090  0.00  0.00    +0.000 NA
ENDROOT
BRANCH   5   7
ATOM      7  N   UNL     1       1.895   7.961  19.145  0.00  0.00    +0.000 N 
ATOM      8  C   UNL     1       1.301   8.137  20.453  0.00  0.00    +0.000 C 
ATOM      9  C   UNL     1       0.838   9.556  20.439  0.00  0.00    +0.000 A 
ATOM     10  C   UNL     1       1.108  10.114  19.190  0.00  0.00    +0.000 A 
ATOM     11  C   UNL     1       0.780  11.419  18.871  0.00  0.00    +0.000 A 
ATOM     12  C   UNL     1       0.155  12.186  19.855  0.00  0.00    +0.000 A 
ATOM     13  C   UNL     1      -0.115  11.639  21.122  0.00  0.00    +0.000 A 
ATOM     14  C   UNL     1       0.228  10.310  21.439  0.00  0.00    +0.000 A 
ATOM     15  C   UNL     1       1.780   9.104  18.358  0.00  0.00    +0.000 C 
ATOM     16  O   UNL     1       2.098   9.344  17.206  0.00  0.00    +0.000 OA
BRANCH  14  17
ATOM     17  C   UNL     1      -0.052   9.764  22.815  0.00  0.00    +0.000 C 
ATOM     18  F   UNL     1      -0.756  10.619  23.608  0.00  0.00    +0.000 F 
ATOM     19  F   UNL     1      -0.776   8.613  22.778  0.00  0.00    +0.000 F 
ATOM     20  F   UNL     1       1.086   9.473  23.503  0.00  0.00    +0.000 F 
ENDBRANCH  14  17
ENDBRANCH   5   7
BRANCH   1  22
ATOM     21  C   UNL     1       6.610   6.970  17.632  0.00  0.00    +0.000 C 
ATOM     22  C   UNL     1       5.673   5.959  16.945  0.00  0.00    +0.000 C 
BRANCH  22  23
ATOM     23  C   UNL     1       6.469   4.654  16.693  0.00  0.00    +0.000 C 
BRANCH  23  24
ATOM     24  C   UNL     1       6.194   3.953  15.353  0.00  0.00    +0.000 C 
BRANCH  24  25
ATOM     25  C   UNL     1       6.932   4.594  14.221  0.00  0.00    +0.000 A 
ATOM     26  N   UNL     1       7.858   5.531  14.295  0.00  0.00    +0.000 NA
ATOM     27  N   UNL     1       8.330   5.777  13.027  0.00  0.00    +0.000 NA
ATOM     28  C   UNL     1       7.684   4.984  12.206  0.00  0.00    +0.000 A 
ATOM     29  N   UNL     1       6.781   4.243  12.902  0.00  0.00    +0.000 N 
ATOM     30  C   UNL     1       5.872   3.276  12.350  0.00  0.00    +0.000 C 
ENDBRANCH  24  25
ENDBRANCH  23  24
ENDBRANCH  22  23
ENDBRANCH   1  22
TORSDOF 6
ENDMDL
MODEL 3
REMARK VINA RESULT:      -8.9      2.053      2.947
REMARK  Name = 
REMARK  8 active torsions:
REMARK  status: ('A' for Active; 'I' for Inactive)
REMARK    1  A    between atoms: C_1  and  C_2
REMARK    2  A    between atoms: C_2  and  C_3
REMARK    3  A    between atoms: C_2  and  C_11
REMARK    4  A    between atoms: C_3  and  C_4
REMARK    5  A    between atoms: C_4  and  C_5
REMARK    6  A    between atoms: N_9  and  C_10
REMARK    7  A    between atoms: C_15  and  N_16
REMARK    8  A    between atoms: C_23  and  C_24
REMARK                            x       y       z     vdW  Elec       q    Type
REMARK                         _______ _______ _______ _____ _____    ______ ____
ROOT
ATOM      1  C   UNL     1       3.959   5.158  17.525  0.00  0.00    +0.000 A 
ATOM      2  C   UNL     1       4.065   4.129  18.455  0.00  0.00    +0.000 A 
ATOM      3  C   UNL     1       3.476   4.285  19.703  0.00  0.00    +0.000 A 
ATOM      4  C   UNL     1       2.791   5.459  19.994  0.00  0.00    +0.000 A 
ATOM      5  C   UNL     1       2.714   6.461  19.031  0.00  0.00    +0.000 A 
ATOM      6  N   UNL     1       3.306   6.309  17.830  0.00  0.00    +0.000 NA
ENDROOT
BRANCH   5   7
ATOM      7  N   UNL     1       2.028   7.661  19.304  0.00  0.00    +0.000 N 
ATOM      8  C   UNL     1       1.354   7.902  20.563  0.00  0.00    +0.000 C 
ATOM      9  C   UNL     1       0.885   9.314  20.445  0.00  0.00    +0.000 A 
ATOM     10  C   UNL     1       1.227   9.807  19.187  0.00  0.00    +0.000 A 
ATOM     11  C   UNL     1       0.911  11.090  18.779  0.00  0.00    +0.000 A 
ATOM     12  C   UNL     1       0.223  11.902  19.681  0.00  0.00    +0.000 A 
ATOM     13  C   UNL     1      -0.120  11.421  20.957  0.00  0.00    +0.000 A 
ATOM     14  C   UNL     1       0.211  10.114  21.365  0.00  0.00    +0.000 A 
ATOM     15  C   UNL     1       1.954   8.761  18.452  0.00  0.00    +0.000 C 
ATOM     16  O   UNL     1       2.340   8.942  17.311  0.00  0.00    +0.000 OA
BRANCH  14  17
ATOM     17  C   UNL     1      -0.149   9.639  22.748  0.00  0.00    +0.000 C 
ATOM     18  F   UNL     1      -0.852  10.554  23.473  0.00  0.00    +0.000 F 
ATOM     19  F   UNL     1      -0.917   8.516  22.727  0.00  0.00    +0.000 F 
ATOM     20  F   UNL     1       0.945   9.335  23.497  0.00  0.00    +0.000 F 
ENDBRANCH  14  17
ENDBRANCH   5   7
BRANCH   1  22
ATOM     21  C   UNL     1       4.941   6.495  15.571  0.00  0.00    +0.000 C 
ATOM     22  C   UNL     1       4.595   5.107  16.141  0.00  0.00    +0.000 C 
BRANCH  22  23
ATOM     23  C   UNL     1       5.868   4.227  16.081  0.00  0.00    +0.000 C 
BRANCH  23  24
ATOM     24  C   UNL     1       7.204   4.979  16.188  0.00  0.00    +0.000 C 
BRANCH  24  25
ATOM     25  C   UNL     1       7.556   5.302  17.606  0.00  0.00    +0.000 A 
ATOM     26  N   UNL     1       7.789   4.454  18.588  0.00  0.00    +0.000 NA
ATOM     27  N   UNL     1       8.153   5.170  19.704  0.00  0.00    +0.000 NA
ATOM     28  C   UNL     1       8.137   6.440  19.379  0.00  0.00    +0.000 A 
ATOM     29  N   UNL     1       7.745   6.575  18.084  0.00  0.00    +0.000 N 
ATOM     30  C   UNL     1       7.585   7.814  17.372  0.00  0.00    +0.000 C 
ENDBRANCH  24  25
ENDBRANCH  23  24
ENDBRANCH  22  23
ENDBRANCH   1  22
TORSDOF 6
ENDMDL
MODEL 4
REMARK VINA RESULT:      -8.5      2.958      4.297
REMARK  Name = 
REMARK  8 active torsions:
REMARK  status: ('A' for Active; 'I' for Inactive)
REMARK    1  A    between atoms: C_1  and  C_2
REMARK    2  A    between atoms: C_2  and  C_3
REMARK    3  A    between atoms: C_2  and  C_11
REMARK    4  A    between atoms: C_3  and  C_4
REMARK    5  A    between atoms: C_4  and  C_5
REMARK    6  A    between atoms: N_9  and  C_10
REMARK    7  A    between atoms: C_15  and  N_16
REMARK    8  A    between atoms: C_23  and  C_24
REMARK                            x       y       z     vdW  Elec       q    Type
REMARK                         _______ _______ _______ _____ _____    ______ ____
ROOT
ATOM      1  C   UNL     1       2.713   6.474  19.290  0.00  0.00    +0.000 A 
ATOM      2  C   UNL     1       3.250   6.825  18.057  0.00  0.00    +0.000 A 
ATOM      3  C   UNL     1       2.960   8.075  17.527  0.00  0.00    +0.000 A 
ATOM      4  C   UNL     1       2.146   8.948  18.239  0.00  0.00    +0.000 A 
ATOM      5  C   UNL     1       1.630   8.549  19.469  0.00  0.00    +0.000 A 
ATOM      6  N   UNL     1       1.901   7.327  19.966  0.00  0.00    +0.000 NA
ENDROOT
BRANCH   5   7
ATOM      7  N   UNL     1       0.799   9.416  20.207  0.00  0.00    +0.000 N 
ATOM      8  C   UNL     1      -0.136  10.322  19.575  0.00  0.00    +0.000 C 
ATOM      9  C   UNL     1      -0.863  10.936  20.726  0.00  0.00    +0.000 A 
ATOM     10  C   UNL     1      -0.331  10.445  21.917  0.00  0.00    +0.000 A 
ATOM     11  C   UNL     1      -0.794  10.842  23.158  0.00  0.00    +0.000 A 
ATOM     12  C   UNL     1      -1.835  11.771  23.191  0.00  0.00    +0.000 A 
ATOM     13  C   UNL     1      -2.387  12.268  21.997  0.00  0.00    +0.000 A 
ATOM     14  C   UNL     1      -1.911  11.853  20.737  0.00  0.00    +0.000 A 
ATOM     15  C   UNL     1       0.730   9.477  21.597  0.00  0.00    +0.000 C 
ATOM     16  O   UNL     1       1.367   8.925  22.476  0.00  0.00    +0.000 OA
BRANCH  14  17
ATOM     17  C   UNL     1      -2.542  12.385  19.477  0.00  0.00    +0.000 C 
ATOM     18  F   UNL     1      -3.604  13.208  19.705  0.00  0.00    +0.000 F 
ATOM     19  F   UNL     1      -1.669  13.108  18.725  0.00  0.00    +0.000 F 
ATOM     20  F   UNL     1      -3.009  11.395  18.668  0.00  0.00    +0.000 F 
ENDBRANCH  14  17
ENDBRANCH   5   7
BRANCH   1  22
ATOM     21  C   UNL     1       1.705   4.588  20.705  0.00  0.00    +0.000 C 
ATOM     22  C   UNL     1       2.937   5.117  19.948  0.00  0.00    +0.000 C 
BRANCH  22  23
ATOM     23  C   UNL     1       3.405   4.023  18.957  0.00  0.00    +0.000 C 
BRANCH  23  24
ATOM     24  C   UNL     1       4.826   3.483  19.182  0.00  0.00    +0.000 C 
BRANCH  24  25
ATOM     25  C   UNL     1       5.873   4.493  18.836  0.00  0.00    +0.000 A 
ATOM     26  N   UNL     1       6.567   5.246  19.667  0.00  0.00    +0.000 NA
ATOM     27  N   UNL     1       7.476   5.975  18.937  0.00  0.00    +0.000 NA
ATOM     28  C   UNL     1       7.320   5.650  17.676  0.00  0.00    +0.000 A 
ATOM     29  N   UNL     1       6.312   4.745  17.560  0.00  0.00    +0.000 N 
ATOM     30  C   UNL     1       5.830   4.166  16.335  0.00  0.00    +0.000 C 
ENDBRANCH  24  25
ENDBRANCH  23  24
ENDBRANCH  22  23
ENDBRANCH   1  22
TORSDOF 6
ENDMDL
MODEL 5
REMARK VINA RESULT:      -8.5      4.315      8.654
REMARK  Name = 
REMARK  8 active torsions:
REMARK  status: ('A' for Active; 'I' for Inactive)
REMARK    1  A    between atoms: C_1  and  C_2
REMARK    2  A    between atoms: C_2  and  C_3
REMARK    3  A    between atoms: C_2  and  C_11
REMARK    4  A    between atoms: C_3  and  C_4
REMARK    5  A    between atoms: C_4  and  C_5
REMARK    6  A    between atoms: N_9  and  C_10
REMARK    7  A    between atoms: C_15  and  N_16
REMARK    8  A    between atoms: C_23  and  C_24
REMARK                            x       y       z     vdW  Elec       q    Type
REMARK                         _______ _______ _______ _____ _____    ______ ____
ROOT
ATOM      1  C   UNL     1       0.487  11.109  20.305  0.00  0.00    +0.000 A 
ATOM      2  C   UNL     1      -0.146  11.104  21.543  0.00  0.00    +0.000 A 
ATOM      3  C   UNL     1      -0.159   9.933  22.288  0.00  0.00    +0.000 A 
ATOM      4  C   UNL     1       0.464   8.796  21.787  0.00  0.00    +0.000 A 
ATOM      5  C   UNL     1       1.082   8.850  20.542  0.00  0.00    +0.000 A 
ATOM      6  N   UNL     1       1.073   9.986  19.816  0.00  0.00    +0.000 NA
ENDROOT
BRANCH   5   7
ATOM      7  N   UNL     1       1.717   7.709  20.010  0.00  0.00    +0.000 N 
ATOM      8  C   UNL     1       1.633   6.409  20.642  0.00  0.00    +0.000 C 
ATOM      9  C   UNL     1       2.340   5.508  19.685  0.00  0.00    +0.000 A 
ATOM     10  C   UNL     1       2.830   6.264  18.621  0.00  0.00    +0.000 A 
ATOM     11  C   UNL     1       3.544   5.704  17.577  0.00  0.00    +0.000 A 
ATOM     12  C   UNL     1       3.769   4.328  17.614  0.00  0.00    +0.000 A 
ATOM     13  C   UNL     1       3.273   3.551  18.676  0.00  0.00    +0.000 A 
ATOM     14  C   UNL     1       2.542   4.131  19.733  0.00  0.00    +0.000 A 
ATOM     15  C   UNL     1       2.439   7.668  18.820  0.00  0.00    +0.000 C 
ATOM     16  O   UNL     1       2.773   8.535  18.031  0.00  0.00    +0.000 OA
BRANCH  14  17
ATOM     17  C   UNL     1       2.002   3.266  20.842  0.00  0.00    +0.000 C 
ATOM     18  F   UNL     1       0.653   3.367  21.005  0.00  0.00    +0.000 F 
ATOM     19  F   UNL     1       2.253   1.945  20.638  0.00  0.00    +0.000 F 
ATOM     20  F   UNL     1       2.544   3.571  22.053  0.00  0.00    +0.000 F 
ENDBRANCH  14  17
ENDBRANCH   5   7
BRANCH   1  22
ATOM     21  C   UNL     1       1.821  12.424  18.554  0.00  0.00    +0.000 C 
ATOM     22  C   UNL     1       0.531  12.327  19.390  0.00  0.00    +0.000 C 
BRANCH  22  23
ATOM     23  C   UNL     1      -0.678  12.416  18.426  0.00  0.00    +0.000 C 
BRANCH  23  24
ATOM     24  C   UNL     1      -1.470  11.114  18.227  0.00  0.00    +0.000 C 
BRANCH  24  25
ATOM     25  C   UNL     1      -2.918  11.373  17.956  0.00  0.00    +0.000 A 
ATOM     26  N   UNL     1      -3.829  11.802  18.808  0.00  0.00    +0.000 NA
ATOM     27  N   UNL     1      -5.011  11.979  18.127  0.00  0.00    +0.000 NA
ATOM     28  C   UNL     1      -4.797  11.655  16.875  0.00  0.00    +0.000 A 
ATOM     29  N   UNL     1      -3.509  11.246  16.723  0.00  0.00    +0.000 N 
ATOM     30  C   UNL     1      -2.902  10.791  15.501  0.00  0.00    +0.000 C 
ENDBRANCH  24  25
ENDBRANCH  23  24
ENDBRANCH  22  23
ENDBRANCH   1  22
TORSDOF 6
ENDMDL
MODEL 6
REMARK VINA RESULT:      -8.3      0.903      1.514
REMARK  Name = 
REMARK  8 active torsions:
REMARK  status: ('A' for Active; 'I' for Inactive)
REMARK    1  A    between atoms: C_1  and  C_2
REMARK    2  A    between atoms: C_2  and  C_3
REMARK    3  A    between atoms: C_2  and  C_11
REMARK    4  A    between atoms: C_3  and  C_4
REMARK    5  A    between atoms: C_4  and  C_5
REMARK    6  A    between atoms: N_9  and  C_10
REMARK    7  A    between atoms: C_15  and  N_16
REMARK    8  A    between atoms: C_23  and  C_24
REMARK                            x       y       z     vdW  Elec       q    Type
REMARK                         _______ _______ _______ _____ _____    ______ ____
ROOT
ATOM      1  C   UNL     1       4.499   6.246  17.763  0.00  0.00    +0.000 A 
ATOM      2  C   UNL     1       4.313   4.978  18.300  0.00  0.00    +0.000 A 
ATOM      3  C   UNL     1       3.272   4.772  19.197  0.00  0.00    +0.000 A 
ATOM      4  C   UNL     1       2.438   5.832  19.532  0.00  0.00    +0.000 A 
ATOM      5  C   UNL     1       2.667   7.084  18.969  0.00  0.00    +0.000 A 
ATOM      6  N   UNL     1       3.691   7.279  18.116  0.00  0.00    +0.000 NA
ENDROOT
BRANCH   5   7
ATOM      7  N   UNL     1       1.837   8.175  19.297  0.00  0.00    +0.000 N 
ATOM      8  C   UNL     1       1.171   8.287  20.578  0.00  0.00    +0.000 C 
ATOM      9  C   UNL     1       0.518   9.628  20.517  0.00  0.00    +0.000 A 
ATOM     10  C   UNL     1       0.759  10.199  19.268  0.00  0.00    +0.000 A 
ATOM     11  C   UNL     1       0.268  11.441  18.911  0.00  0.00    +0.000 A 
ATOM     12  C   UNL     1      -0.496  12.129  19.853  0.00  0.00    +0.000 A 
ATOM     13  C   UNL     1      -0.740  11.569  21.121  0.00  0.00    +0.000 A 
ATOM     14  C   UNL     1      -0.231  10.304  21.477  0.00  0.00    +0.000 A 
ATOM     15  C   UNL     1       1.598   9.280  18.483  0.00  0.00    +0.000 C 
ATOM     16  O   UNL     1       1.927   9.545  17.341  0.00  0.00    +0.000 OA
BRANCH  14  17
ATOM     17  C   UNL     1      -0.489   9.745  22.852  0.00  0.00    +0.000 C 
ATOM     18  F   UNL     1      -1.327  10.513  23.604  0.00  0.00    +0.000 F 
ATOM     19  F   UNL     1      -1.057   8.510  22.810  0.00  0.00    +0.000 F 
ATOM     20  F   UNL     1       0.650   9.613  23.585  0.00  0.00    +0.000 F 
ENDBRANCH  14  17
ENDBRANCH   5   7
BRANCH   1  22
ATOM     21  C   UNL     1       7.033   6.386  17.396  0.00  0.00    +0.000 C 
ATOM     22  C   UNL     1       5.628   6.592  16.799  0.00  0.00    +0.000 C 
BRANCH  22  23
ATOM     23  C   UNL     1       5.552   5.817  15.460  0.00  0.00    +0.000 C 
BRANCH  23  24
ATOM     24  C   UNL     1       6.673   4.795  15.216  0.00  0.00    +0.000 C 
BRANCH  24  25
ATOM     25  C   UNL     1       6.635   4.240  13.827  0.00  0.00    +0.000 A 
ATOM     26  N   UNL     1       5.849   3.287  13.366  0.00  0.00    +0.000 NA
ATOM     27  N   UNL     1       6.088   3.140  12.020  0.00  0.00    +0.000 NA
ATOM     28  C   UNL     1       7.014   4.007  11.687  0.00  0.00    +0.000 A 
ATOM     29  N   UNL     1       7.407   4.701  12.789  0.00  0.00    +0.000 N 
ATOM     30  C   UNL     1       8.417   5.723  12.832  0.00  0.00    +0.000 C 
ENDBRANCH  24  25
ENDBRANCH  23  24
ENDBRANCH  22  23
ENDBRANCH   1  22
TORSDOF 6
ENDMDL
MODEL 7
REMARK VINA RESULT:      -8.3      0.727      1.426
REMARK  Name = 
REMARK  8 active torsions:
REMARK  status: ('A' for Active; 'I' for Inactive)
REMARK    1  A    between atoms: C_1  and  C_2
REMARK    2  A    between atoms: C_2  and  C_3
REMARK    3  A    between atoms: C_2  and  C_11
REMARK    4  A    between atoms: C_3  and  C_4
REMARK    5  A    between atoms: C_4  and  C_5
REMARK    6  A    between atoms: N_9  and  C_10
REMARK    7  A    between atoms: C_15  and  N_16
REMARK    8  A    between atoms: C_23  and  C_24
REMARK                            x       y       z     vdW  Elec       q    Type
REMARK                         _______ _______ _______ _____ _____    ______ ____
ROOT
ATOM      1  C   UNL     1       4.778   5.141  18.366  0.00  0.00    +0.000 A 
ATOM      2  C   UNL     1       4.426   3.951  18.992  0.00  0.00    +0.000 A 
ATOM      3  C   UNL     1       3.293   3.921  19.794  0.00  0.00    +0.000 A 
ATOM      4  C   UNL     1       2.533   5.075  19.948  0.00  0.00    +0.000 A 
ATOM      5  C   UNL     1       2.928   6.242  19.302  0.00  0.00    +0.000 A 
ATOM      6  N   UNL     1       4.040   6.267  18.542  0.00  0.00    +0.000 NA
ENDROOT
BRANCH   5   7
ATOM      7  N   UNL     1       2.176   7.426  19.447  0.00  0.00    +0.000 N 
ATOM      8  C   UNL     1       1.468   7.752  20.667  0.00  0.00    +0.000 C 
ATOM      9  C   UNL     1       0.928   9.119  20.404  0.00  0.00    +0.000 A 
ATOM     10  C   UNL     1       1.267   9.504  19.108  0.00  0.00    +0.000 A 
ATOM     11  C   UNL     1       0.893  10.722  18.572  0.00  0.00    +0.000 A 
ATOM     12  C   UNL     1       0.148  11.582  19.379  0.00  0.00    +0.000 A 
ATOM     13  C   UNL     1      -0.193  11.210  20.693  0.00  0.00    +0.000 A 
ATOM     14  C   UNL     1       0.197   9.968  21.231  0.00  0.00    +0.000 A 
ATOM     15  C   UNL     1       2.061   8.431  18.489  0.00  0.00    +0.000 C 
ATOM     16  O   UNL     1       2.458   8.520  17.341  0.00  0.00    +0.000 OA
BRANCH  14  17
ATOM     17  C   UNL     1      -0.163   9.612  22.650  0.00  0.00    +0.000 C 
ATOM     18  F   UNL     1      -0.945   8.501  22.752  0.00  0.00    +0.000 F 
ATOM     19  F   UNL     1       0.933   9.365  23.416  0.00  0.00    +0.000 F 
ATOM     20  F   UNL     1      -0.849  10.605  23.279  0.00  0.00    +0.000 F 
ENDBRANCH  14  17
ENDBRANCH   5   7
BRANCH   1  22
ATOM     21  C   UNL     1       7.334   4.990  18.234  0.00  0.00    +0.000 C 
ATOM     22  C   UNL     1       6.019   5.296  17.494  0.00  0.00    +0.000 C 
BRANCH  22  23
ATOM     23  C   UNL     1       5.976   4.437  16.205  0.00  0.00    +0.000 C 
BRANCH  23  24
ATOM     24  C   UNL     1       5.722   5.206  14.899  0.00  0.00    +0.000 C 
BRANCH  24  25
ATOM     25  C   UNL     1       5.976   4.361  13.691  0.00  0.00    +0.000 A 
ATOM     26  N   UNL     1       5.200   3.418  13.194  0.00  0.00    +0.000 NA
ATOM     27  N   UNL     1       5.773   2.950  12.035  0.00  0.00    +0.000 NA
ATOM     28  C   UNL     1       6.886   3.618  11.848  0.00  0.00    +0.000 A 
ATOM     29  N   UNL     1       7.069   4.495  12.871  0.00  0.00    +0.000 N 
ATOM     30  C   UNL     1       8.184   5.389  13.032  0.00  0.00    +0.000 C 
ENDBRANCH  24  25
ENDBRANCH  23  24
ENDBRANCH  22  23
ENDBRANCH   1  22
TORSDOF 6
ENDMDL
MODEL 8
REMARK VINA RESULT:      -8.3      4.485      9.131
REMARK  Name = 
REMARK  8 active torsions:
REMARK  status: ('A' for Active; 'I' for Inactive)
REMARK    1  A    between atoms: C_1  and  C_2
REMARK    2  A    between atoms: C_2  and  C_3
REMARK    3  A    between atoms: C_2  and  C_11
REMARK    4  A    between atoms: C_3  and  C_4
REMARK    5  A    between atoms: C_4  and  C_5
REMARK    6  A    between atoms: N_9  and  C_10
REMARK    7  A    between atoms: C_15  and  N_16
REMARK    8  A    between atoms: C_23  and  C_24
REMARK                            x       y       z     vdW  Elec       q    Type
REMARK                         _______ _______ _______ _____ _____    ______ ____
ROOT
ATOM      1  C   UNL     1       0.889  10.203  20.111  0.00  0.00    +0.000 A 
ATOM      2  C   UNL     1       0.726  10.147  21.490  0.00  0.00    +0.000 A 
ATOM      3  C   UNL     1       1.103   8.995  22.167  0.00  0.00    +0.000 A 
ATOM      4  C   UNL     1       1.638   7.928  21.456  0.00  0.00    +0.000 A 
ATOM      5  C   UNL     1       1.779   8.031  20.075  0.00  0.00    +0.000 A 
ATOM      6  N   UNL     1       1.392   9.146  19.424  0.00  0.00    +0.000 NA
ENDROOT
BRANCH   5   7
ATOM      7  N   UNL     1       2.315   6.960  19.331  0.00  0.00    +0.000 N 
ATOM      8  C   UNL     1       3.263   7.160  18.255  0.00  0.00    +0.000 C 
ATOM      9  C   UNL     1       3.632   5.771  17.851  0.00  0.00    +0.000 A 
ATOM     10  C   UNL     1       2.899   4.862  18.613  0.00  0.00    +0.000 A 
ATOM     11  C   UNL     1       3.017   3.494  18.456  0.00  0.00    +0.000 A 
ATOM     12  C   UNL     1       3.911   3.029  17.491  0.00  0.00    +0.000 A 
ATOM     13  C   UNL     1       4.664   3.935  16.720  0.00  0.00    +0.000 A 
ATOM     14  C   UNL     1       4.539   5.328  16.892  0.00  0.00    +0.000 A 
ATOM     15  C   UNL     1       2.056   5.611  19.558  0.00  0.00    +0.000 C 
ATOM     16  O   UNL     1       1.300   5.037  20.322  0.00  0.00    +0.000 OA
BRANCH  14  17
ATOM     17  C   UNL     1       5.380   6.269  16.068  0.00  0.00    +0.000 C 
ATOM     18  F   UNL     1       6.179   7.082  16.815  0.00  0.00    +0.000 F 
ATOM     19  F   UNL     1       6.213   5.611  15.218  0.00  0.00    +0.000 F 
ATOM     20  F   UNL     1       4.628   7.099  15.295  0.00  0.00    +0.000 F 
ENDBRANCH  14  17
ENDBRANCH   5   7
BRANCH   1  22
ATOM     21  C   UNL     1       1.663  12.121  18.596  0.00  0.00    +0.000 C 
ATOM     22  C   UNL     1       0.477  11.403  19.265  0.00  0.00    +0.000 C 
BRANCH  22  23
ATOM     23  C   UNL     1      -0.561  11.055  18.169  0.00  0.00    +0.000 C 
BRANCH  23  24
ATOM     24  C   UNL     1      -1.948  10.628  18.675  0.00  0.00    +0.000 C 
BRANCH  24  25
ATOM     25  C   UNL     1      -3.035  11.003  17.718  0.00  0.00    +0.000 A 
ATOM     26  N   UNL     1      -3.109  10.712  16.434  0.00  0.00    +0.000 NA
ATOM     27  N   UNL     1      -4.309  11.179  15.951  0.00  0.00    +0.000 NA
ATOM     28  C   UNL     1      -4.943  11.744  16.951  0.00  0.00    +0.000 A 
ATOM     29  N   UNL     1      -4.175  11.682  18.072  0.00  0.00    +0.000 N 
ATOM     30  C   UNL     1      -4.517  12.211  19.364  0.00  0.00    +0.000 C 
ENDBRANCH  24  25
ENDBRANCH  23  24
ENDBRANCH  22  23
ENDBRANCH   1  22
TORSDOF 6
ENDMDL
MODEL 9
REMARK VINA RESULT:      -8.3      4.268      8.449
REMARK  Name = 
REMARK  8 active torsions:
REMARK  status: ('A' for Active; 'I' for Inactive)
REMARK    1  A    between atoms: C_1  and  C_2
REMARK    2  A    between atoms: C_2  and  C_3
REMARK    3  A    between atoms: C_2  and  C_11
REMARK    4  A    between atoms: C_3  and  C_4
REMARK    5  A    between atoms: C_4  and  C_5
REMARK    6  A    between atoms: N_9  and  C_10
REMARK    7  A    between atoms: C_15  and  N_16
REMARK    8  A    between atoms: C_23  and  C_24
REMARK                            x       y       z     vdW  Elec       q    Type
REMARK                         _______ _______ _______ _____ _____    ______ ____
ROOT
ATOM      1  C   UNL     1       0.414  10.260  20.318  0.00  0.00    +0.000 A 
ATOM      2  C   UNL     1       0.423  10.388  21.702  0.00  0.00    +0.000 A 
ATOM      3  C   UNL     1       0.993   9.381  22.469  0.00  0.00    +0.000 A 
ATOM      4  C   UNL     1       1.546   8.272  21.840  0.00  0.00    +0.000 A 
ATOM      5  C   UNL     1       1.511   8.188  20.451  0.00  0.00    +0.000 A 
ATOM      6  N   UNL     1       0.938   9.161  19.716  0.00  0.00    +0.000 NA
ENDROOT
BRANCH   5   7
ATOM      7  N   UNL     1       2.062   7.072  19.790  0.00  0.00    +0.000 N 
ATOM      8  C   UNL     1       1.787   5.711  20.202  0.00  0.00    +0.000 C 
ATOM      9  C   UNL     1       2.472   4.885  19.164  0.00  0.00    +0.000 A 
ATOM     10  C   UNL     1       3.127   5.728  18.268  0.00  0.00    +0.000 A 
ATOM     11  C   UNL     1       3.862   5.249  17.199  0.00  0.00    +0.000 A 
ATOM     12  C   UNL     1       3.935   3.866  17.033  0.00  0.00    +0.000 A 
ATOM     13  C   UNL     1       3.271   3.004  17.925  0.00  0.00    +0.000 A 
ATOM     14  C   UNL     1       2.520   3.502  19.008  0.00  0.00    +0.000 A 
ATOM     15  C   UNL     1       2.874   7.123  18.659  0.00  0.00    +0.000 C 
ATOM     16  O   UNL     1       3.363   8.051  18.041  0.00  0.00    +0.000 OA
BRANCH  14  17
ATOM     17  C   UNL     1       1.800   2.552  19.929  0.00  0.00    +0.000 C 
ATOM     18  F   UNL     1       0.491   2.875  20.131  0.00  0.00    +0.000 F 
ATOM     19  F   UNL     1       1.798   1.276  19.459  0.00  0.00    +0.000 F 
ATOM     20  F   UNL     1       2.362   2.499  21.167  0.00  0.00    +0.000 F 
ENDBRANCH  14  17
ENDBRANCH   5   7
BRANCH   1  22
ATOM     21  C   UNL     1       0.748  12.416  18.971  0.00  0.00    +0.000 C 
ATOM     22  C   UNL     1      -0.215  11.287  19.384  0.00  0.00    +0.000 C 
BRANCH  22  23
ATOM     23  C   UNL     1      -0.811  10.664  18.097  0.00  0.00    +0.000 C 
BRANCH  23  24
ATOM     24  C   UNL     1      -2.345  10.637  18.018  0.00  0.00    +0.000 C 
BRANCH  24  25
ATOM     25  C   UNL     1      -2.833  10.484  16.612  0.00  0.00    +0.000 A 
ATOM     26  N   UNL     1      -2.261   9.810  15.634  0.00  0.00    +0.000 NA
ATOM     27  N   UNL     1      -3.082   9.864  14.531  0.00  0.00    +0.000 NA
ATOM     28  C   UNL     1      -4.138  10.568  14.861  0.00  0.00    +0.000 A 
ATOM     29  N   UNL     1      -4.017  10.999  16.145  0.00  0.00    +0.000 N 
ATOM     30  C   UNL     1      -4.962  11.815  16.858  0.00  0.00    +0.000 C 
ENDBRANCH  24  25
ENDBRANCH  23  24
ENDBRANCH  22  23
ENDBRANCH   1  22
TORSDOF 6
ENDMDL
