MODEL 1
REMARK VINA RESULT:      -8.8      0.000      0.000
REMARK  Name = 
REMARK  4 active torsions:
REMARK  status: ('A' for Active; 'I' for Inactive)
REMARK    1  A    between atoms: C_2  and  C_3
REMARK    2  A    between atoms: C_6  and  N_7
REMARK    3  A    between atoms: N_21  and  C_22
REMARK    4  A    between atoms: C_25  and  O_26
REMARK                            x       y       z     vdW  Elec       q    Type
REMARK                         _______ _______ _______ _____ _____    ______ ____
ROOT
ATOM      1  O   UNL     1       1.796  11.535  18.569  0.00  0.00    +0.000 OA
ATOM      2  C   UNL     1       1.098  10.833  19.303  0.00  0.00    +0.000 C 
ATOM      3  N   UNL     1       0.103  11.369  20.115  0.00  0.00    +0.000 N 
ATOM      4  C   UNL     1      -0.248  12.791  19.950  0.00  0.00    +0.000 C 
ATOM      5  C   UNL     1      -0.398  13.521  21.297  0.00  0.00    +0.000 C 
ATOM      6  N   UNL     1      -1.306  12.777  22.186  0.00  0.00    +0.000 N 
ATOM      7  C   UNL     1      -0.907  11.387  22.422  0.00  0.00    +0.000 C 
ATOM      8  C   UNL     1      -0.732  10.644  21.086  0.00  0.00    +0.000 C 
ENDROOT
BRANCH   2   9
ATOM      9  C   UNL     1       1.434   9.384  19.366  0.00  0.00    +0.000 A 
ATOM     10  C   UNL     1       1.958   8.826  18.201  0.00  0.00    +0.000 A 
ATOM     11  C   UNL     1       2.458   7.534  18.218  0.00  0.00    +0.000 A 
ATOM     12  C   UNL     1       2.442   6.785  19.406  0.00  0.00    +0.000 A 
ATOM     13  C   UNL     1       1.794   7.268  20.541  0.00  0.00    +0.000 A 
ATOM     14  C   UNL     1       1.273   8.574  20.506  0.00  0.00    +0.000 A 
BRANCH  12  15
ATOM     15  N   UNL     1       3.184   5.584  19.387  0.00  0.00    +0.000 N 
ATOM     16  C   UNL     1       4.539   5.563  19.127  0.00  0.00    +0.000 A 
ATOM     17  N   UNL     1       4.924   4.449  18.559  0.00  0.00    +0.000 NA
ATOM     18  C   UNL     1       3.791   3.683  18.521  0.00  0.00    +0.000 A 
ATOM     19  C   UNL     1       3.607   2.447  17.891  0.00  0.00    +0.000 A 
ATOM     20  C   UNL     1       2.366   1.818  17.999  0.00  0.00    +0.000 A 
ATOM     21  C   UNL     1       1.342   2.392  18.756  0.00  0.00    +0.000 A 
ATOM     22  C   UNL     1       1.490   3.651  19.358  0.00  0.00    +0.000 A 
ATOM     23  C   UNL     1       2.720   4.297  19.183  0.00  0.00    +0.000 A 
ENDBRANCH  12  15
ENDBRANCH   2   9
BRANCH   6  24
ATOM     24  C   UNL     1      -2.454  13.311  22.734  0.00  0.00    +0.000 A 
ATOM     25  C   UNL     1      -2.825  14.650  22.529  0.00  0.00    +0.000 A 
ATOM     26  C   UNL     1      -4.008  15.178  23.061  0.00  0.00    +0.000 A 
ATOM     27  C   UNL     1      -4.837  14.365  23.821  0.00  0.00    +0.000 A 
ATOM     28  C   UNL     1      -4.502  13.042  24.045  0.00  0.00    +0.000 A 
ATOM     29  C   UNL     1      -3.324  12.528  23.523  0.00  0.00    +0.000 A 
BRANCH  27  30
ATOM     30  O   UNL     1      -6.002  14.836  24.355  0.00  0.00    +0.000 OA
ATOM     31  H   UNL     1      -6.096  14.479  25.256  0.00  0.00    +0.000 HD
ENDBRANCH  27  30
ENDBRANCH   6  24
TORSDOF 4
ENDMDL
MODEL 2
REMARK VINA RESULT:      -8.6      0.806      1.187
REMARK  Name = 
REMARK  4 active torsions:
REMARK  status: ('A' for Active; 'I' for Inactive)
REMARK    1  A    between atoms: C_2  and  C_3
REMARK    2  A    between atoms: C_6  and  N_7
REMARK    3  A    between atoms: N_21  and  C_22
REMARK    4  A    between atoms: C_25  and  O_26
REMARK                            x       y       z     vdW  Elec       q    Type
REMARK                         _______ _______ _______ _____ _____    ______ ____
ROOT
ATOM      1  O   UNL     1       1.904  12.155  18.944  0.00  0.00    +0.000 OA
ATOM      2  C   UNL     1       1.083  11.424  19.499  0.00  0.00    +0.000 C 
ATOM      3  N   UNL     1       0.037  11.931  20.265  0.00  0.00    +0.000 N 
ATOM      4  C   UNL     1      -0.201  13.386  20.252  0.00  0.00    +0.000 C 
ATOM      5  C   UNL     1      -0.460  13.953  21.660  0.00  0.00    +0.000 C 
ATOM      6  N   UNL     1      -1.510  13.177  22.341  0.00  0.00    +0.000 N 
ATOM      7  C   UNL     1      -1.230  11.741  22.434  0.00  0.00    +0.000 C 
ATOM      8  C   UNL     1      -0.949  11.159  21.037  0.00  0.00    +0.000 C 
ENDROOT
BRANCH   2   9
ATOM      9  C   UNL     1       1.316   9.957  19.407  0.00  0.00    +0.000 A 
ATOM     10  C   UNL     1       1.557   9.456  18.128  0.00  0.00    +0.000 A 
ATOM     11  C   UNL     1       1.953   8.137  17.967  0.00  0.00    +0.000 A 
ATOM     12  C   UNL     1       2.117   7.306  19.085  0.00  0.00    +0.000 A 
ATOM     13  C   UNL     1       1.743   7.742  20.355  0.00  0.00    +0.000 A 
ATOM     14  C   UNL     1       1.323   9.076  20.505  0.00  0.00    +0.000 A 
BRANCH  12  15
ATOM     15  N   UNL     1       2.749   6.067  18.845  0.00  0.00    +0.000 N 
ATOM     16  C   UNL     1       3.747   5.922  17.904  0.00  0.00    +0.000 A 
ATOM     17  N   UNL     1       3.781   4.722  17.386  0.00  0.00    +0.000 NA
ATOM     18  C   UNL     1       2.820   4.033  18.074  0.00  0.00    +0.000 A 
ATOM     19  C   UNL     1       2.343   2.740  17.830  0.00  0.00    +0.000 A 
ATOM     20  C   UNL     1       1.369   2.214  18.678  0.00  0.00    +0.000 A 
ATOM     21  C   UNL     1       0.908   2.946  19.773  0.00  0.00    +0.000 A 
ATOM     22  C   UNL     1       1.339   4.261  20.012  0.00  0.00    +0.000 A 
ATOM     23  C   UNL     1       2.269   4.796  19.112  0.00  0.00    +0.000 A 
ENDBRANCH  12  15
ENDBRANCH   2   9
BRANCH   6  24
ATOM     24  C   UNL     1      -2.677  13.728  22.830  0.00  0.00    +0.000 A 
ATOM     25  C   UNL     1      -3.811  12.948  23.105  0.00  0.00    +0.000 A 
ATOM     26  C   UNL     1      -4.982  13.507  23.631  0.00  0.00    +0.000 A 
ATOM     27  C   UNL     1      -5.034  14.871  23.882  0.00  0.00    +0.000 A 
ATOM     28  C   UNL     1      -3.936  15.670  23.622  0.00  0.00    +0.000 A 
ATOM     29  C   UNL     1      -2.783  15.111  23.090  0.00  0.00    +0.000 A 
BRANCH  27  30
ATOM     30  O   UNL     1      -6.152  15.458  24.400  0.00  0.00    +0.000 OA
ATOM     31  H   UNL     1      -6.057  16.424  24.327  0.00  0.00    +0.000 HD
ENDBRANCH  27  30
ENDBRANCH   6  24
TORSDOF 4
ENDMDL
MODEL 3
REMARK VINA RESULT:      -8.4      1.684      2.413
REMARK  Name = 
REMARK  4 active torsions:
REMARK  status: ('A' for Active; 'I' for Inactive)
REMARK    1  A    between atoms: C_2  and  C_3
REMARK    2  A    between atoms: C_6  and  N_7
REMARK    3  A    between atoms: N_21  and  C_22
REMARK    4  A    between atoms: C_25  and  O_26
REMARK                            x       y       z     vdW  Elec       q    Type
REMARK                         _______ _______ _______ _____ _____    ______ ____
ROOT
ATOM      1  O   UNL     1       1.828  11.411  18.170  0.00  0.00    +0.000 OA
ATOM      2  C   UNL     1       1.226  10.572  18.843  0.00  0.00    +0.000 C 
ATOM      3  N   UNL     1       0.177  10.916  19.691  0.00  0.00    +0.000 N 
ATOM      4  C   UNL     1      -0.347  12.292  19.638  0.00  0.00    +0.000 C 
ATOM      5  C   UNL     1      -0.578  12.889  21.039  0.00  0.00    +0.000 C 
ATOM      6  N   UNL     1      -1.382  11.971  21.861  0.00  0.00    +0.000 N 
ATOM      7  C   UNL     1      -0.814  10.625  21.989  0.00  0.00    +0.000 C 
ATOM      8  C   UNL     1      -0.556  10.018  20.597  0.00  0.00    +0.000 C 
ENDROOT
BRANCH   2   9
ATOM      9  C   UNL     1       1.737   9.175  18.792  0.00  0.00    +0.000 A 
ATOM     10  C   UNL     1       2.317   8.780  17.587  0.00  0.00    +0.000 A 
ATOM     11  C   UNL     1       2.972   7.561  17.503  0.00  0.00    +0.000 A 
ATOM     12  C   UNL     1       3.058   6.725  18.628  0.00  0.00    +0.000 A 
ATOM     13  C   UNL     1       2.364   7.034  19.796  0.00  0.00    +0.000 A 
ATOM     14  C   UNL     1       1.686   8.264  19.864  0.00  0.00    +0.000 A 
BRANCH  12  15
ATOM     15  N   UNL     1       3.941   5.630  18.516  0.00  0.00    +0.000 N 
ATOM     16  C   UNL     1       4.400   4.941  19.620  0.00  0.00    +0.000 A 
ATOM     17  N   UNL     1       5.588   4.428  19.434  0.00  0.00    +0.000 NA
ATOM     18  C   UNL     1       5.881   4.724  18.131  0.00  0.00    +0.000 A 
ATOM     19  C   UNL     1       7.089   4.525  17.453  0.00  0.00    +0.000 A 
ATOM     20  C   UNL     1       7.166   4.878  16.105  0.00  0.00    +0.000 A 
ATOM     21  C   UNL     1       6.047   5.378  15.436  0.00  0.00    +0.000 A 
ATOM     22  C   UNL     1       4.839   5.627  16.108  0.00  0.00    +0.000 A 
ATOM     23  C   UNL     1       4.802   5.329  17.475  0.00  0.00    +0.000 A 
ENDBRANCH  12  15
ENDBRANCH   2   9
BRANCH   6  24
ATOM     24  C   UNL     1      -2.584  12.315  22.446  0.00  0.00    +0.000 A 
ATOM     25  C   UNL     1      -2.845  12.083  23.806  0.00  0.00    +0.000 A 
ATOM     26  C   UNL     1      -4.054  12.464  24.400  0.00  0.00    +0.000 A 
ATOM     27  C   UNL     1      -5.030  13.080  23.630  0.00  0.00    +0.000 A 
ATOM     28  C   UNL     1      -4.808  13.321  22.287  0.00  0.00    +0.000 A 
ATOM     29  C   UNL     1      -3.612  12.933  21.701  0.00  0.00    +0.000 A 
BRANCH  27  30
ATOM     30  O   UNL     1      -6.221  13.472  24.169  0.00  0.00    +0.000 OA
ATOM     31  H   UNL     1      -6.503  12.803  24.817  0.00  0.00    +0.000 HD
ENDBRANCH  27  30
ENDBRANCH   6  24
TORSDOF 4
ENDMDL
MODEL 4
REMARK VINA RESULT:      -8.4      1.586      1.633
REMARK  Name = 
REMARK  4 active torsions:
REMARK  status: ('A' for Active; 'I' for Inactive)
REMARK    1  A    between atoms: C_2  and  C_3
REMARK    2  A    between atoms: C_6  and  N_7
REMARK    3  A    between atoms: N_21  and  C_22
REMARK    4  A    between atoms: C_25  and  O_26
REMARK                            x       y       z     vdW  Elec       q    Type
REMARK                         _______ _______ _______ _____ _____    ______ ____
ROOT
ATOM      1  O   UNL     1       2.170  11.683  18.176  0.00  0.00    +0.000 OA
ATOM      2  C   UNL     1       1.258  11.063  18.723  0.00  0.00    +0.000 C 
ATOM      3  N   UNL     1       0.087  11.686  19.148  0.00  0.00    +0.000 N 
ATOM      4  C   UNL     1      -0.141  13.090  18.760  0.00  0.00    +0.000 C 
ATOM      5  C   UNL     1      -0.657  13.948  19.930  0.00  0.00    +0.000 C 
ATOM      6  N   UNL     1      -1.818  13.303  20.566  0.00  0.00    +0.000 N 
ATOM      7  C   UNL     1      -1.564  11.937  21.033  0.00  0.00    +0.000 C 
ATOM      8  C   UNL     1      -1.028  11.068  19.881  0.00  0.00    +0.000 C 
ENDROOT
BRANCH   2   9
ATOM      9  C   UNL     1       1.500   9.623  19.012  0.00  0.00    +0.000 A 
ATOM     10  C   UNL     1       2.003   8.864  17.956  0.00  0.00    +0.000 A 
ATOM     11  C   UNL     1       2.420   7.561  18.179  0.00  0.00    +0.000 A 
ATOM     12  C   UNL     1       2.341   7.004  19.465  0.00  0.00    +0.000 A 
ATOM     13  C   UNL     1       1.710   7.691  20.499  0.00  0.00    +0.000 A 
ATOM     14  C   UNL     1       1.273   9.006  20.257  0.00  0.00    +0.000 A 
BRANCH  12  15
ATOM     15  N   UNL     1       3.006   5.771  19.644  0.00  0.00    +0.000 N 
ATOM     16  C   UNL     1       4.328   5.593  19.293  0.00  0.00    +0.000 A 
ATOM     17  N   UNL     1       4.594   4.361  18.945  0.00  0.00    +0.000 NA
ATOM     18  C   UNL     1       3.419   3.692  19.154  0.00  0.00    +0.000 A 
ATOM     19  C   UNL     1       3.106   2.371  18.815  0.00  0.00    +0.000 A 
ATOM     20  C   UNL     1       1.845   1.875  19.146  0.00  0.00    +0.000 A 
ATOM     21  C   UNL     1       0.929   2.668  19.839  0.00  0.00    +0.000 A 
ATOM     22  C   UNL     1       1.205   4.009  20.150  0.00  0.00    +0.000 A 
ATOM     23  C   UNL     1       2.451   4.509  19.751  0.00  0.00    +0.000 A 
ENDBRANCH  12  15
ENDBRANCH   2   9
BRANCH   6  24
ATOM     24  C   UNL     1      -3.055  13.901  20.693  0.00  0.00    +0.000 A 
ATOM     25  C   UNL     1      -3.203  15.210  21.178  0.00  0.00    +0.000 A 
ATOM     26  C   UNL     1      -4.458  15.824  21.275  0.00  0.00    +0.000 A 
ATOM     27  C   UNL     1      -5.593  15.122  20.892  0.00  0.00    +0.000 A 
ATOM     28  C   UNL     1      -5.484  13.831  20.412  0.00  0.00    +0.000 A 
ATOM     29  C   UNL     1      -4.239  13.225  20.328  0.00  0.00    +0.000 A 
BRANCH  27  30
ATOM     30  O   UNL     1      -6.835  15.683  20.965  0.00  0.00    +0.000 OA
ATOM     31  H   UNL     1      -6.865  16.270  21.741  0.00  0.00    +0.000 HD
ENDBRANCH  27  30
ENDBRANCH   6  24
TORSDOF 4
ENDMDL
MODEL 5
REMARK VINA RESULT:      -8.3      1.246      2.297
REMARK  Name = 
REMARK  4 active torsions:
REMARK  status: ('A' for Active; 'I' for Inactive)
REMARK    1  A    between atoms: C_2  and  C_3
REMARK    2  A    between atoms: C_6  and  N_7
REMARK    3  A    between atoms: N_21  and  C_22
REMARK    4  A    between atoms: C_25  and  O_26
REMARK                            x       y       z     vdW  Elec       q    Type
REMARK                         _______ _______ _______ _____ _____    ______ ____
ROOT
ATOM      1  O   UNL     1       1.746  12.019  18.666  0.00  0.00    +0.000 OA
ATOM      2  C   UNL     1       1.040  11.180  19.227  0.00  0.00    +0.000 C 
ATOM      3  N   UNL     1      -0.031  11.538  20.042  0.00  0.00    +0.000 N 
ATOM      4  C   UNL     1      -0.442  12.953  20.080  0.00  0.00    +0.000 C 
ATOM      5  C   UNL     1      -0.714  13.450  21.511  0.00  0.00    +0.000 C 
ATOM      6  N   UNL     1      -1.638  12.536  22.204  0.00  0.00    +0.000 N 
ATOM      7  C   UNL     1      -1.185  11.143  22.246  0.00  0.00    +0.000 C 
ATOM      8  C   UNL     1      -0.888  10.633  20.824  0.00  0.00    +0.000 C 
ENDROOT
BRANCH   2   9
ATOM      9  C   UNL     1       1.443   9.755  19.085  0.00  0.00    +0.000 A 
ATOM     10  C   UNL     1       1.826   9.353  17.805  0.00  0.00    +0.000 A 
ATOM     11  C   UNL     1       2.379   8.097  17.612  0.00  0.00    +0.000 A 
ATOM     12  C   UNL     1       2.559   7.229  18.700  0.00  0.00    +0.000 A 
ATOM     13  C   UNL     1       2.053   7.552  19.958  0.00  0.00    +0.000 A 
ATOM     14  C   UNL     1       1.476   8.822  20.138  0.00  0.00    +0.000 A 
BRANCH  12  15
ATOM     15  N   UNL     1       3.342   6.081  18.450  0.00  0.00    +0.000 N 
ATOM     16  C   UNL     1       3.089   4.872  19.064  0.00  0.00    +0.000 A 
ATOM     17  N   UNL     1       4.169   4.152  19.222  0.00  0.00    +0.000 NA
ATOM     18  C   UNL     1       5.152   4.884  18.615  0.00  0.00    +0.000 A 
ATOM     19  C   UNL     1       6.530   4.641  18.610  0.00  0.00    +0.000 A 
ATOM     20  C   UNL     1       7.360   5.508  17.900  0.00  0.00    +0.000 A 
ATOM     21  C   UNL     1       6.823   6.573  17.174  0.00  0.00    +0.000 A 
ATOM     22  C   UNL     1       5.449   6.862  17.202  0.00  0.00    +0.000 A 
ATOM     23  C   UNL     1       4.640   6.019  17.974  0.00  0.00    +0.000 A 
ENDBRANCH  12  15
ENDBRANCH   2   9
BRANCH   6  24
ATOM     24  C   UNL     1      -2.844  12.929  22.748  0.00  0.00    +0.000 A 
ATOM     25  C   UNL     1      -3.594  13.988  22.212  0.00  0.00    +0.000 A 
ATOM     26  C   UNL     1      -4.832  14.362  22.748  0.00  0.00    +0.000 A 
ATOM     27  C   UNL     1      -5.336  13.677  23.845  0.00  0.00    +0.000 A 
ATOM     28  C   UNL     1      -4.624  12.630  24.400  0.00  0.00    +0.000 A 
ATOM     29  C   UNL     1      -3.392  12.271  23.870  0.00  0.00    +0.000 A 
BRANCH  27  30
ATOM     30  O   UNL     1      -6.541  14.003  24.397  0.00  0.00    +0.000 OA
ATOM     31  H   UNL     1      -6.591  13.609  25.286  0.00  0.00    +0.000 HD
ENDBRANCH  27  30
ENDBRANCH   6  24
TORSDOF 4
ENDMDL
MODEL 6
REMARK VINA RESULT:      -8.3      1.129      1.591
REMARK  Name = 
REMARK  4 active torsions:
REMARK  status: ('A' for Active; 'I' for Inactive)
REMARK    1  A    between atoms: C_2  and  C_3
REMARK    2  A    between atoms: C_6  and  N_7
REMARK    3  A    between atoms: N_21  and  C_22
REMARK    4  A    between atoms: C_25  and  O_26
REMARK                            x       y       z     vdW  Elec       q    Type
REMARK                         _______ _______ _______ _____ _____    ______ ____
ROOT
ATOM      1  O   UNL     1       0.594  11.087  17.584  0.00  0.00    +0.000 OA
ATOM      2  C   UNL     1       0.420  10.436  18.615  0.00  0.00    +0.000 C 
ATOM      3  N   UNL     1      -0.523  10.801  19.572  0.00  0.00    +0.000 N 
ATOM      4  C   UNL     1      -1.464  11.889  19.251  0.00  0.00    +0.000 C 
ATOM      5  C   UNL     1      -1.633  12.884  20.414  0.00  0.00    +0.000 C 
ATOM      6  N   UNL     1      -1.944  12.167  21.662  0.00  0.00    +0.000 N 
ATOM      7  C   UNL     1      -0.959  11.146  22.029  0.00  0.00    +0.000 C 
ATOM      8  C   UNL     1      -0.761  10.151  20.870  0.00  0.00    +0.000 C 
ENDROOT
BRANCH   2   9
ATOM      9  C   UNL     1       1.338   9.288  18.851  0.00  0.00    +0.000 A 
ATOM     10  C   UNL     1       1.317   8.742  20.134  0.00  0.00    +0.000 A 
ATOM     11  C   UNL     1       2.006   7.569  20.396  0.00  0.00    +0.000 A 
ATOM     12  C   UNL     1       2.722   6.925  19.375  0.00  0.00    +0.000 A 
ATOM     13  C   UNL     1       2.875   7.527  18.128  0.00  0.00    +0.000 A 
ATOM     14  C   UNL     1       2.188   8.728  17.878  0.00  0.00    +0.000 A 
BRANCH  12  15
ATOM     15  N   UNL     1       3.186   5.626  19.672  0.00  0.00    +0.000 N 
ATOM     16  C   UNL     1       4.497   5.249  19.464  0.00  0.00    +0.000 A 
ATOM     17  N   UNL     1       4.618   3.975  19.197  0.00  0.00    +0.000 NA
ATOM     18  C   UNL     1       3.346   3.486  19.314  0.00  0.00    +0.000 A 
ATOM     19  C   UNL     1       2.883   2.202  19.000  0.00  0.00    +0.000 A 
ATOM     20  C   UNL     1       1.539   1.903  19.223  0.00  0.00    +0.000 A 
ATOM     21  C   UNL     1       0.682   2.850  19.787  0.00  0.00    +0.000 A 
ATOM     22  C   UNL     1       1.114   4.157  20.067  0.00  0.00    +0.000 A 
ATOM     23  C   UNL     1       2.450   4.458  19.775  0.00  0.00    +0.000 A 
ENDBRANCH  12  15
ENDBRANCH   2   9
BRANCH   6  24
ATOM     24  C   UNL     1      -3.074  12.399  22.419  0.00  0.00    +0.000 A 
ATOM     25  C   UNL     1      -3.094  12.202  23.809  0.00  0.00    +0.000 A 
ATOM     26  C   UNL     1      -4.233  12.469  24.576  0.00  0.00    +0.000 A 
ATOM     27  C   UNL     1      -5.383  12.934  23.953  0.00  0.00    +0.000 A 
ATOM     28  C   UNL     1      -5.401  13.138  22.586  0.00  0.00    +0.000 A 
ATOM     29  C   UNL     1      -4.271  12.861  21.829  0.00  0.00    +0.000 A 
BRANCH  27  30
ATOM     30  O   UNL     1      -6.516  13.213  24.662  0.00  0.00    +0.000 OA
ATOM     31  H   UNL     1      -7.058  12.406  24.710  0.00  0.00    +0.000 HD
ENDBRANCH  27  30
ENDBRANCH   6  24
TORSDOF 4
ENDMDL
MODEL 7
REMARK VINA RESULT:      -8.3      2.681      3.094
REMARK  Name = 
REMARK  4 active torsions:
REMARK  status: ('A' for Active; 'I' for Inactive)
REMARK    1  A    between atoms: C_2  and  C_3
REMARK    2  A    between atoms: C_6  and  N_7
REMARK    3  A    between atoms: N_21  and  C_22
REMARK    4  A    between atoms: C_25  and  O_26
REMARK                            x       y       z     vdW  Elec       q    Type
REMARK                         _______ _______ _______ _____ _____    ______ ____
ROOT
ATOM      1  O   UNL     1      -0.899  10.251  17.961  0.00  0.00    +0.000 OA
ATOM      2  C   UNL     1      -0.015  10.427  18.801  0.00  0.00    +0.000 C 
ATOM      3  N   UNL     1       0.112  11.621  19.505  0.00  0.00    +0.000 N 
ATOM      4  C   UNL     1      -0.954  12.630  19.375  0.00  0.00    +0.000 C 
ATOM      5  C   UNL     1      -0.400  14.054  19.183  0.00  0.00    +0.000 C 
ATOM      6  N   UNL     1       0.595  14.361  20.225  0.00  0.00    +0.000 N 
ATOM      7  C   UNL     1       1.705  13.406  20.294  0.00  0.00    +0.000 C 
ATOM      8  C   UNL     1       1.170  11.973  20.465  0.00  0.00    +0.000 C 
ENDROOT
BRANCH   2   9
ATOM      9  C   UNL     1       0.989   9.340  18.961  0.00  0.00    +0.000 A 
ATOM     10  C   UNL     1       1.074   8.769  20.231  0.00  0.00    +0.000 A 
ATOM     11  C   UNL     1       1.853   7.640  20.430  0.00  0.00    +0.000 A 
ATOM     12  C   UNL     1       2.553   7.065  19.358  0.00  0.00    +0.000 A 
ATOM     13  C   UNL     1       2.597   7.700  18.118  0.00  0.00    +0.000 A 
ATOM     14  C   UNL     1       1.819   8.857  17.932  0.00  0.00    +0.000 A 
BRANCH  12  15
ATOM     15  N   UNL     1       3.116   5.794  19.600  0.00  0.00    +0.000 N 
ATOM     16  C   UNL     1       4.439   5.514  19.324  0.00  0.00    +0.000 A 
ATOM     17  N   UNL     1       4.634   4.257  19.019  0.00  0.00    +0.000 NA
ATOM     18  C   UNL     1       3.405   3.679  19.179  0.00  0.00    +0.000 A 
ATOM     19  C   UNL     1       3.016   2.375  18.854  0.00  0.00    +0.000 A 
ATOM     20  C   UNL     1       1.707   1.978  19.128  0.00  0.00    +0.000 A 
ATOM     21  C   UNL     1       0.815   2.851  19.753  0.00  0.00    +0.000 A 
ATOM     22  C   UNL     1       1.170   4.177  20.048  0.00  0.00    +0.000 A 
ATOM     23  C   UNL     1       2.467   4.577  19.705  0.00  0.00    +0.000 A 
ENDBRANCH  12  15
ENDBRANCH   2   9
BRANCH   6  24
ATOM     24  C   UNL     1       0.496  15.430  21.090  0.00  0.00    +0.000 A 
ATOM     25  C   UNL     1       0.673  16.756  20.662  0.00  0.00    +0.000 A 
ATOM     26  C   UNL     1       0.539  17.839  21.539  0.00  0.00    +0.000 A 
ATOM     27  C   UNL     1       0.231  17.605  22.872  0.00  0.00    +0.000 A 
ATOM     28  C   UNL     1       0.051  16.313  23.329  0.00  0.00    +0.000 A 
ATOM     29  C   UNL     1       0.195  15.243  22.457  0.00  0.00    +0.000 A 
BRANCH  27  30
ATOM     30  O   UNL     1       0.086  18.631  23.760  0.00  0.00    +0.000 OA
ATOM     31  H   UNL     1       0.353  19.459  23.324  0.00  0.00    +0.000 HD
ENDBRANCH  27  30
ENDBRANCH   6  24
TORSDOF 4
ENDMDL
MODEL 8
REMARK VINA RESULT:      -8.2      3.497      5.161
REMARK  Name = 
REMARK  4 active torsions:
REMARK  status: ('A' for Active; 'I' for Inactive)
REMARK    1  A    between atoms: C_2  and  C_3
REMARK    2  A    between atoms: C_6  and  N_7
REMARK    3  A    between atoms: N_21  and  C_22
REMARK    4  A    between atoms: C_25  and  O_26
REMARK                            x       y       z     vdW  Elec       q    Type
REMARK                         _______ _______ _______ _____ _____    ______ ____
ROOT
ATOM      1  O   UNL     1       2.073   6.075  20.532  0.00  0.00    +0.000 OA
ATOM      2  C   UNL     1       2.310   6.810  19.571  0.00  0.00    +0.000 C 
ATOM      3  N   UNL     1       1.799   8.102  19.483  0.00  0.00    +0.000 N 
ATOM      4  C   UNL     1       1.114   8.668  20.659  0.00  0.00    +0.000 C 
ATOM      5  C   UNL     1      -0.194   9.392  20.288  0.00  0.00    +0.000 C 
ATOM      6  N   UNL     1       0.046  10.362  19.207  0.00  0.00    +0.000 N 
ATOM      7  C   UNL     1       0.645   9.781  18.001  0.00  0.00    +0.000 C 
ATOM      8  C   UNL     1       1.945   9.035  18.355  0.00  0.00    +0.000 C 
ENDROOT
BRANCH   2   9
ATOM      9  C   UNL     1       3.085   6.220  18.446  0.00  0.00    +0.000 A 
ATOM     10  C   UNL     1       3.892   7.105  17.730  0.00  0.00    +0.000 A 
ATOM     11  C   UNL     1       4.776   6.618  16.781  0.00  0.00    +0.000 A 
ATOM     12  C   UNL     1       4.867   5.238  16.540  0.00  0.00    +0.000 A 
ATOM     13  C   UNL     1       3.972   4.353  17.137  0.00  0.00    +0.000 A 
ATOM     14  C   UNL     1       3.064   4.860  18.085  0.00  0.00    +0.000 A 
BRANCH  12  15
ATOM     15  N   UNL     1       5.954   4.822  15.741  0.00  0.00    +0.000 N 
ATOM     16  C   UNL     1       7.229   5.317  15.921  0.00  0.00    +0.000 A 
ATOM     17  N   UNL     1       7.923   5.333  14.813  0.00  0.00    +0.000 NA
ATOM     18  C   UNL     1       7.097   4.752  13.891  0.00  0.00    +0.000 A 
ATOM     19  C   UNL     1       7.289   4.640  12.509  0.00  0.00    +0.000 A 
ATOM     20  C   UNL     1       6.324   3.978  11.750  0.00  0.00    +0.000 A 
ATOM     21  C   UNL     1       5.208   3.403  12.362  0.00  0.00    +0.000 A 
ATOM     22  C   UNL     1       4.973   3.542  13.740  0.00  0.00    +0.000 A 
ATOM     23  C   UNL     1       5.920   4.266  14.475  0.00  0.00    +0.000 A 
ENDBRANCH  12  15
ENDBRANCH   2   9
BRANCH   6  24
ATOM     24  C   UNL     1      -0.232  11.709  19.308  0.00  0.00    +0.000 A 
ATOM     25  C   UNL     1       0.564  12.684  18.685  0.00  0.00    +0.000 A 
ATOM     26  C   UNL     1       0.258  14.048  18.764  0.00  0.00    +0.000 A 
ATOM     27  C   UNL     1      -0.856  14.458  19.484  0.00  0.00    +0.000 A 
ATOM     28  C   UNL     1      -1.661  13.525  20.112  0.00  0.00    +0.000 A 
ATOM     29  C   UNL     1      -1.347  12.176  20.038  0.00  0.00    +0.000 A 
BRANCH  27  30
ATOM     30  O   UNL     1      -1.195  15.776  19.584  0.00  0.00    +0.000 OA
ATOM     31  H   UNL     1      -1.977  15.852  20.159  0.00  0.00    +0.000 HD
ENDBRANCH  27  30
ENDBRANCH   6  24
TORSDOF 4
ENDMDL
MODEL 9
REMARK VINA RESULT:      -8.1      3.063      3.345
REMARK  Name = 
REMARK  4 active torsions:
REMARK  status: ('A' for Active; 'I' for Inactive)
REMARK    1  A    between atoms: C_2  and  C_3
REMARK    2  A    between atoms: C_6  and  N_7
REMARK    3  A    between atoms: N_21  and  C_22
REMARK    4  A    between atoms: C_25  and  O_26
REMARK                            x       y       z     vdW  Elec       q    Type
REMARK                         _______ _______ _______ _____ _____    ______ ____
ROOT
ATOM      1  O   UNL     1      -0.576   9.818  17.629  0.00  0.00    +0.000 OA
ATOM      2  C   UNL     1       0.291  10.051  18.472  0.00  0.00    +0.000 C 
ATOM      3  N   UNL     1       0.390  11.283  19.113  0.00  0.00    +0.000 N 
ATOM      4  C   UNL     1      -0.689  12.267  18.912  0.00  0.00    +0.000 C 
ATOM      5  C   UNL     1      -0.152  13.687  18.653  0.00  0.00    +0.000 C 
ATOM      6  N   UNL     1       0.821  14.064  19.692  0.00  0.00    +0.000 N 
ATOM      7  C   UNL     1       1.943  13.131  19.830  0.00  0.00    +0.000 C 
ATOM      8  C   UNL     1       1.426  11.702  20.070  0.00  0.00    +0.000 C 
ENDROOT
BRANCH   2   9
ATOM      9  C   UNL     1       1.307   8.989  18.707  0.00  0.00    +0.000 A 
ATOM     10  C   UNL     1       1.290   8.395  19.968  0.00  0.00    +0.000 A 
ATOM     11  C   UNL     1       2.080   7.284  20.219  0.00  0.00    +0.000 A 
ATOM     12  C   UNL     1       2.894   6.752  19.207  0.00  0.00    +0.000 A 
ATOM     13  C   UNL     1       3.036   7.413  17.989  0.00  0.00    +0.000 A 
ATOM     14  C   UNL     1       2.244   8.551  17.751  0.00  0.00    +0.000 A 
BRANCH  12  15
ATOM     15  N   UNL     1       3.470   5.492  19.478  0.00  0.00    +0.000 N 
ATOM     16  C   UNL     1       4.821   5.254  19.322  0.00  0.00    +0.000 A 
ATOM     17  N   UNL     1       5.079   4.010  19.014  0.00  0.00    +0.000 NA
ATOM     18  C   UNL     1       3.858   3.395  19.050  0.00  0.00    +0.000 A 
ATOM     19  C   UNL     1       3.539   2.087  18.667  0.00  0.00    +0.000 A 
ATOM     20  C   UNL     1       2.223   1.648  18.812  0.00  0.00    +0.000 A 
ATOM     21  C   UNL     1       1.252   2.484  19.367  0.00  0.00    +0.000 A 
ATOM     22  C   UNL     1       1.539   3.813  19.717  0.00  0.00    +0.000 A 
ATOM     23  C   UNL     1       2.850   4.256  19.502  0.00  0.00    +0.000 A 
ENDBRANCH  12  15
ENDBRANCH   2   9
BRANCH   6  24
ATOM     24  C   UNL     1       0.692  15.177  20.497  0.00  0.00    +0.000 A 
ATOM     25  C   UNL     1       1.193  15.211  21.808  0.00  0.00    +0.000 A 
ATOM     26  C   UNL     1       1.088  16.354  22.609  0.00  0.00    +0.000 A 
ATOM     27  C   UNL     1       0.464  17.487  22.105  0.00  0.00    +0.000 A 
ATOM     28  C   UNL     1      -0.043  17.488  20.819  0.00  0.00    +0.000 A 
ATOM     29  C   UNL     1       0.055  16.349  20.034  0.00  0.00    +0.000 A 
BRANCH  27  30
ATOM     30  O   UNL     1       0.343  18.625  22.849  0.00  0.00    +0.000 OA
ATOM     31  H   UNL     1       0.947  18.563  23.610  0.00  0.00    +0.000 HD
ENDBRANCH  27  30
ENDBRANCH   6  24
TORSDOF 4
ENDMDL
