MODEL 1
REMARK VINA RESULT:      -8.6      0.000      0.000
REMARK  Name = 
REMARK  5 active torsions:
REMARK  status: ('A' for Active; 'I' for Inactive)
REMARK    1  A    between atoms: C_1  and  C_2
REMARK    2  A    between atoms: C_7  and  C_8
REMARK    3  A    between atoms: C_12  and  C_13
REMARK    4  A    between atoms: C_18  and  C_19
REMARK    5  A    between atoms: N_21  and  C_22
REMARK                            x       y       z     vdW  Elec       q    Type
REMARK                         _______ _______ _______ _____ _____    ______ ____
ROOT
ATOM      1  C   UNL     1       2.242   6.738  19.933  0.00  0.00    +0.000 C 
ATOM      2  O   UNL     1       2.270   6.186  21.030  0.00  0.00    +0.000 OA
ATOM      3  N   UNL     1       1.581   7.958  19.722  0.00  0.00    +0.000 N 
ATOM      4  C   UNL     1       1.033   8.640  20.897  0.00  0.00    +0.000 C 
ATOM      5  C   UNL     1      -0.242   9.420  20.567  0.00  0.00    +0.000 C 
ATOM      6  C   UNL     1      -0.079  10.337  19.347  0.00  0.00    +0.000 C 
ATOM      7  C   UNL     1       0.473   9.505  18.173  0.00  0.00    +0.000 C 
ATOM      8  C   UNL     1       1.793   8.836  18.569  0.00  0.00    +0.000 C 
ENDROOT
BRANCH   1  17
ATOM      9  C   UNL     1       0.538   3.721  19.700  0.00  0.00    +0.000 C 
ATOM     10  C   UNL     1       1.637   3.745  18.704  0.00  0.00    +0.000 A 
ATOM     11  N   UNL     1       1.821   2.668  17.927  0.00  0.00    +0.000 NA
ATOM     12  O   UNL     1       2.903   2.964  17.120  0.00  0.00    +0.000 OA
ATOM     13  C   UNL     1       3.363   4.211  17.406  0.00  0.00    +0.000 A 
ATOM     14  N   UNL     1       4.430   4.755  16.795  0.00  0.00    +0.000 NA
ATOM     15  C   UNL     1       4.724   6.017  17.167  0.00  0.00    +0.000 A 
ATOM     16  C   UNL     1       3.954   6.713  18.098  0.00  0.00    +0.000 A 
ATOM     17  C   UNL     1       2.934   6.065  18.811  0.00  0.00    +0.000 A 
ATOM     18  C   UNL     1       2.582   4.770  18.406  0.00  0.00    +0.000 A 
BRANCH  15  19
ATOM     19  C   UNL     1       5.952   6.657  16.554  0.00  0.00    +0.000 C 
ATOM     20  C   UNL     1       7.316   6.121  16.937  0.00  0.00    +0.000 C 
ATOM     21  C   UNL     1       6.913   7.496  17.370  0.00  0.00    +0.000 C 
ENDBRANCH  15  19
ENDBRANCH   1  17
BRANCH   6  22
ATOM     22  C   UNL     1       0.846  11.539  19.552  0.00  0.00    +0.000 C 
ATOM     23  O   UNL     1       1.373  11.720  20.649  0.00  0.00    +0.000 OA
ATOM     24  N   UNL     1       1.047  12.346  18.450  0.00  0.00    +0.000 N 
ATOM     25  H   UNL     1       0.492  12.183  17.621  0.00  0.00    +0.000 HD
BRANCH  24  26
ATOM     26  C   UNL     1       1.847  13.514  18.462  0.00  0.00    +0.000 A 
ATOM     27  C   UNL     1       1.338  14.788  18.729  0.00  0.00    +0.000 A 
ATOM     28  C   UNL     1       2.139  15.924  18.628  0.00  0.00    +0.000 A 
ATOM     29  C   UNL     1       3.477  15.797  18.271  0.00  0.00    +0.000 A 
ATOM     30  C   UNL     1       4.011  14.530  18.058  0.00  0.00    +0.000 A 
ATOM     31  C   UNL     1       3.207  13.392  18.164  0.00  0.00    +0.000 A 
ENDBRANCH  24  26
ENDBRANCH   6  22
TORSDOF 4
ENDMDL
MODEL 2
REMARK VINA RESULT:      -8.0      1.189      1.318
REMARK  Name = 
REMARK  5 active torsions:
REMARK  status: ('A' for Active; 'I' for Inactive)
REMARK    1  A    between atoms: C_1  and  C_2
REMARK    2  A    between atoms: C_7  and  C_8
REMARK    3  A    between atoms: C_12  and  C_13
REMARK    4  A    between atoms: C_18  and  C_19
REMARK    5  A    between atoms: N_21  and  C_22
REMARK                            x       y       z     vdW  Elec       q    Type
REMARK                         _______ _______ _______ _____ _____    ______ ____
ROOT
ATOM      1  C   UNL     1       2.476   6.523  19.701  0.00  0.00    +0.000 C 
ATOM      2  O   UNL     1       2.543   6.115  20.857  0.00  0.00    +0.000 OA
ATOM      3  N   UNL     1       1.905   7.762  19.372  0.00  0.00    +0.000 N 
ATOM      4  C   UNL     1       1.508   8.636  20.478  0.00  0.00    +0.000 C 
ATOM      5  C   UNL     1       0.282   9.483  20.131  0.00  0.00    +0.000 C 
ATOM      6  C   UNL     1       0.426  10.216  18.791  0.00  0.00    +0.000 C 
ATOM      7  C   UNL     1       0.813   9.193  17.705  0.00  0.00    +0.000 C 
ATOM      8  C   UNL     1       2.100   8.461  18.100  0.00  0.00    +0.000 C 
ENDROOT
BRANCH   1  17
ATOM      9  C   UNL     1       0.571   3.639  20.044  0.00  0.00    +0.000 C 
ATOM     10  C   UNL     1       1.576   3.441  18.970  0.00  0.00    +0.000 A 
ATOM     11  N   UNL     1       1.620   2.256  18.346  0.00  0.00    +0.000 NA
ATOM     12  O   UNL     1       2.642   2.355  17.420  0.00  0.00    +0.000 OA
ATOM     13  C   UNL     1       3.204   3.591  17.484  0.00  0.00    +0.000 A 
ATOM     14  N   UNL     1       4.243   3.963  16.718  0.00  0.00    +0.000 NA
ATOM     15  C   UNL     1       4.648   5.239  16.877  0.00  0.00    +0.000 A 
ATOM     16  C   UNL     1       4.010   6.114  17.757  0.00  0.00    +0.000 A 
ATOM     17  C   UNL     1       3.021   5.650  18.636  0.00  0.00    +0.000 A 
ATOM     18  C   UNL     1       2.552   4.341  18.452  0.00  0.00    +0.000 A 
BRANCH  15  19
ATOM     19  C   UNL     1       5.854   5.694  16.082  0.00  0.00    +0.000 C 
ATOM     20  C   UNL     1       7.121   4.867  16.151  0.00  0.00    +0.000 C 
ATOM     21  C   UNL     1       7.098   6.239  16.750  0.00  0.00    +0.000 C 
ENDBRANCH  15  19
ENDBRANCH   1  17
BRANCH   6  22
ATOM     22  C   UNL     1       1.461  11.343  18.772  0.00  0.00    +0.000 C 
ATOM     23  O   UNL     1       2.418  11.277  18.002  0.00  0.00    +0.000 OA
ATOM     24  N   UNL     1       1.226  12.399  19.631  0.00  0.00    +0.000 N 
ATOM     25  H   UNL     1       0.474  12.321  20.302  0.00  0.00    +0.000 HD
BRANCH  24  26
ATOM     26  C   UNL     1       2.089  13.513  19.767  0.00  0.00    +0.000 A 
ATOM     27  C   UNL     1       2.971  13.671  20.840  0.00  0.00    +0.000 A 
ATOM     28  C   UNL     1       3.727  14.833  20.990  0.00  0.00    +0.000 A 
ATOM     29  C   UNL     1       3.622  15.853  20.051  0.00  0.00    +0.000 A 
ATOM     30  C   UNL     1       2.791  15.685  18.948  0.00  0.00    +0.000 A 
ATOM     31  C   UNL     1       2.037  14.518  18.797  0.00  0.00    +0.000 A 
ENDBRANCH  24  26
ENDBRANCH   6  22
TORSDOF 4
ENDMDL
MODEL 3
REMARK VINA RESULT:      -7.9      2.638      5.066
REMARK  Name = 
REMARK  5 active torsions:
REMARK  status: ('A' for Active; 'I' for Inactive)
REMARK    1  A    between atoms: C_1  and  C_2
REMARK    2  A    between atoms: C_7  and  C_8
REMARK    3  A    between atoms: C_12  and  C_13
REMARK    4  A    between atoms: C_18  and  C_19
REMARK    5  A    between atoms: N_21  and  C_22
REMARK                            x       y       z     vdW  Elec       q    Type
REMARK                         _______ _______ _______ _____ _____    ______ ____
ROOT
ATOM      1  C   UNL     1       3.377   7.475  17.525  0.00  0.00    +0.000 C 
ATOM      2  O   UNL     1       3.885   7.698  16.429  0.00  0.00    +0.000 OA
ATOM      3  N   UNL     1       2.577   8.417  18.189  0.00  0.00    +0.000 N 
ATOM      4  C   UNL     1       2.239   9.645  17.465  0.00  0.00    +0.000 C 
ATOM      5  C   UNL     1       2.102  10.846  18.404  0.00  0.00    +0.000 C 
ATOM      6  C   UNL     1       1.181  10.566  19.598  0.00  0.00    +0.000 C 
ATOM      7  C   UNL     1       1.651   9.273  20.294  0.00  0.00    +0.000 C 
ATOM      8  C   UNL     1       1.669   8.110  19.297  0.00  0.00    +0.000 C 
ENDROOT
BRANCH   1  17
ATOM      9  C   UNL     1       6.847   7.319  17.496  0.00  0.00    +0.000 C 
ATOM     10  C   UNL     1       6.300   6.056  18.053  0.00  0.00    +0.000 A 
ATOM     11  N   UNL     1       7.159   5.093  18.418  0.00  0.00    +0.000 NA
ATOM     12  O   UNL     1       6.381   4.049  18.880  0.00  0.00    +0.000 OA
ATOM     13  C   UNL     1       5.066   4.383  18.798  0.00  0.00    +0.000 A 
ATOM     14  N   UNL     1       4.075   3.546  19.152  0.00  0.00    +0.000 NA
ATOM     15  C   UNL     1       2.830   4.053  19.050  0.00  0.00    +0.000 A 
ATOM     16  C   UNL     1       2.596   5.364  18.634  0.00  0.00    +0.000 A 
ATOM     17  C   UNL     1       3.644   6.158  18.145  0.00  0.00    +0.000 A 
ATOM     18  C   UNL     1       4.950   5.667  18.288  0.00  0.00    +0.000 A 
BRANCH  15  19
ATOM     19  C   UNL     1       1.672   3.134  19.378  0.00  0.00    +0.000 C 
ATOM     20  C   UNL     1       0.689   3.562  20.449  0.00  0.00    +0.000 C 
ATOM     21  C   UNL     1       1.586   2.388  20.693  0.00  0.00    +0.000 C 
ENDBRANCH  15  19
ENDBRANCH   1  17
BRANCH   6  22
ATOM     22  C   UNL     1      -0.302  10.408  19.256  0.00  0.00    +0.000 C 
ATOM     23  O   UNL     1      -1.015   9.690  19.956  0.00  0.00    +0.000 OA
ATOM     24  N   UNL     1      -0.754  11.123  18.164  0.00  0.00    +0.000 N 
ATOM     25  H   UNL     1      -0.078  11.602  17.584  0.00  0.00    +0.000 HD
BRANCH  24  26
ATOM     26  C   UNL     1      -2.085  11.077  17.686  0.00  0.00    +0.000 A 
ATOM     27  C   UNL     1      -2.435  10.537  16.444  0.00  0.00    +0.000 A 
ATOM     28  C   UNL     1      -3.743  10.607  15.967  0.00  0.00    +0.000 A 
ATOM     29  C   UNL     1      -4.730  11.207  16.740  0.00  0.00    +0.000 A 
ATOM     30  C   UNL     1      -4.408  11.697  18.002  0.00  0.00    +0.000 A 
ATOM     31  C   UNL     1      -3.097  11.623  18.480  0.00  0.00    +0.000 A 
ENDBRANCH  24  26
ENDBRANCH   6  22
TORSDOF 4
ENDMDL
MODEL 4
REMARK VINA RESULT:      -7.8      4.148      8.667
REMARK  Name = 
REMARK  5 active torsions:
REMARK  status: ('A' for Active; 'I' for Inactive)
REMARK    1  A    between atoms: C_1  and  C_2
REMARK    2  A    between atoms: C_7  and  C_8
REMARK    3  A    between atoms: C_12  and  C_13
REMARK    4  A    between atoms: C_18  and  C_19
REMARK    5  A    between atoms: N_21  and  C_22
REMARK                            x       y       z     vdW  Elec       q    Type
REMARK                         _______ _______ _______ _____ _____    ______ ____
ROOT
ATOM      1  C   UNL     1       5.111   5.064  19.367  0.00  0.00    +0.000 C 
ATOM      2  O   UNL     1       5.926   4.793  20.245  0.00  0.00    +0.000 OA
ATOM      3  N   UNL     1       5.479   5.215  18.021  0.00  0.00    +0.000 N 
ATOM      4  C   UNL     1       6.863   4.897  17.660  0.00  0.00    +0.000 C 
ATOM      5  C   UNL     1       7.373   5.771  16.513  0.00  0.00    +0.000 C 
ATOM      6  C   UNL     1       6.418   5.796  15.313  0.00  0.00    +0.000 C 
ATOM      7  C   UNL     1       5.008   6.170  15.810  0.00  0.00    +0.000 C 
ATOM      8  C   UNL     1       4.548   5.186  16.891  0.00  0.00    +0.000 C 
ENDROOT
BRANCH   1  17
ATOM      9  C   UNL     1       3.912   1.805  19.334  0.00  0.00    +0.000 C 
ATOM     10  C   UNL     1       2.808   2.734  19.683  0.00  0.00    +0.000 A 
ATOM     11  N   UNL     1       1.587   2.224  19.898  0.00  0.00    +0.000 NA
ATOM     12  O   UNL     1       0.773   3.303  20.187  0.00  0.00    +0.000 OA
ATOM     13  C   UNL     1       1.500   4.452  20.151  0.00  0.00    +0.000 A 
ATOM     14  N   UNL     1       0.962   5.665  20.364  0.00  0.00    +0.000 NA
ATOM     15  C   UNL     1       1.833   6.693  20.335  0.00  0.00    +0.000 A 
ATOM     16  C   UNL     1       3.199   6.501  20.128  0.00  0.00    +0.000 A 
ATOM     17  C   UNL     1       3.700   5.239  19.775  0.00  0.00    +0.000 A 
ATOM     18  C   UNL     1       2.819   4.149  19.847  0.00  0.00    +0.000 A 
BRANCH  15  19
ATOM     19  C   UNL     1       1.273   8.089  20.509  0.00  0.00    +0.000 C 
ATOM     20  C   UNL     1       1.376   8.746  21.871  0.00  0.00    +0.000 C 
ATOM     21  C   UNL     1       0.033   8.360  21.335  0.00  0.00    +0.000 C 
ENDBRANCH  15  19
ENDBRANCH   1  17
BRANCH   6  22
ATOM     22  C   UNL     1       6.313   4.483  14.534  0.00  0.00    +0.000 C 
ATOM     23  O   UNL     1       6.199   3.421  15.145  0.00  0.00    +0.000 OA
ATOM     24  N   UNL     1       6.332   4.589  13.158  0.00  0.00    +0.000 N 
ATOM     25  H   UNL     1       6.536   5.488  12.742  0.00  0.00    +0.000 HD
BRANCH  24  26
ATOM     26  C   UNL     1       6.273   3.480  12.279  0.00  0.00    +0.000 A 
ATOM     27  C   UNL     1       5.074   2.890  11.871  0.00  0.00    +0.000 A 
ATOM     28  C   UNL     1       5.064   1.736  11.089  0.00  0.00    +0.000 A 
ATOM     29  C   UNL     1       6.266   1.162  10.688  0.00  0.00    +0.000 A 
ATOM     30  C   UNL     1       7.466   1.771  11.039  0.00  0.00    +0.000 A 
ATOM     31  C   UNL     1       7.473   2.930  11.820  0.00  0.00    +0.000 A 
ENDBRANCH  24  26
ENDBRANCH   6  22
TORSDOF 4
ENDMDL
MODEL 5
REMARK VINA RESULT:      -7.8      2.688      5.005
REMARK  Name = 
REMARK  5 active torsions:
REMARK  status: ('A' for Active; 'I' for Inactive)
REMARK    1  A    between atoms: C_1  and  C_2
REMARK    2  A    between atoms: C_7  and  C_8
REMARK    3  A    between atoms: C_12  and  C_13
REMARK    4  A    between atoms: C_18  and  C_19
REMARK    5  A    between atoms: N_21  and  C_22
REMARK                            x       y       z     vdW  Elec       q    Type
REMARK                         _______ _______ _______ _____ _____    ______ ____
ROOT
ATOM      1  C   UNL     1       3.131   7.547  17.830  0.00  0.00    +0.000 C 
ATOM      2  O   UNL     1       3.633   7.654  16.714  0.00  0.00    +0.000 OA
ATOM      3  N   UNL     1       2.372   8.573  18.415  0.00  0.00    +0.000 N 
ATOM      4  C   UNL     1       2.070   9.743  17.587  0.00  0.00    +0.000 C 
ATOM      5  C   UNL     1       1.987  11.028  18.416  0.00  0.00    +0.000 C 
ATOM      6  C   UNL     1       1.071  10.889  19.638  0.00  0.00    +0.000 C 
ATOM      7  C   UNL     1       1.503   9.647  20.442  0.00  0.00    +0.000 C 
ATOM      8  C   UNL     1       1.468   8.399  19.553  0.00  0.00    +0.000 C 
ENDROOT
BRANCH   1  17
ATOM      9  C   UNL     1       6.533   7.016  17.378  0.00  0.00    +0.000 C 
ATOM     10  C   UNL     1       5.955   5.886  18.146  0.00  0.00    +0.000 A 
ATOM     11  N   UNL     1       6.763   4.879  18.509  0.00  0.00    +0.000 NA
ATOM     12  O   UNL     1       5.964   3.979  19.188  0.00  0.00    +0.000 OA
ATOM     13  C   UNL     1       4.686   4.443  19.235  0.00  0.00    +0.000 A 
ATOM     14  N   UNL     1       3.681   3.759  19.809  0.00  0.00    +0.000 NA
ATOM     15  C   UNL     1       2.486   4.384  19.808  0.00  0.00    +0.000 A 
ATOM     16  C   UNL     1       2.319   5.661  19.273  0.00  0.00    +0.000 A 
ATOM     17  C   UNL     1       3.358   6.282  18.563  0.00  0.00    +0.000 A 
ATOM     18  C   UNL     1       4.620   5.671  18.595  0.00  0.00    +0.000 A 
BRANCH  15  19
ATOM     19  C   UNL     1       1.305   3.634  20.388  0.00  0.00    +0.000 C 
ATOM     20  C   UNL     1       1.552   2.660  21.522  0.00  0.00    +0.000 C 
ATOM     21  C   UNL     1       1.119   2.146  20.184  0.00  0.00    +0.000 C 
ENDBRANCH  15  19
ENDBRANCH   1  17
BRANCH   6  22
ATOM     22  C   UNL     1      -0.421  10.755  19.324  0.00  0.00    +0.000 C 
ATOM     23  O   UNL     1      -1.127  10.031  20.025  0.00  0.00    +0.000 OA
ATOM     24  N   UNL     1      -0.887  11.497  18.257  0.00  0.00    +0.000 N 
ATOM     25  H   UNL     1      -0.218  11.981  17.673  0.00  0.00    +0.000 HD
BRANCH  24  26
ATOM     26  C   UNL     1      -2.228  11.477  17.806  0.00  0.00    +0.000 A 
ATOM     27  C   UNL     1      -3.308  11.885  18.596  0.00  0.00    +0.000 A 
ATOM     28  C   UNL     1      -4.622  11.750  18.151  0.00  0.00    +0.000 A 
ATOM     29  C   UNL     1      -4.875  11.216  16.892  0.00  0.00    +0.000 A 
ATOM     30  C   UNL     1      -3.808  10.858  16.074  0.00  0.00    +0.000 A 
ATOM     31  C   UNL     1      -2.491  10.997  16.520  0.00  0.00    +0.000 A 
ENDBRANCH  24  26
ENDBRANCH   6  22
TORSDOF 4
ENDMDL
MODEL 6
REMARK VINA RESULT:      -7.6      1.130      1.154
REMARK  Name = 
REMARK  5 active torsions:
REMARK  status: ('A' for Active; 'I' for Inactive)
REMARK    1  A    between atoms: C_1  and  C_2
REMARK    2  A    between atoms: C_7  and  C_8
REMARK    3  A    between atoms: C_12  and  C_13
REMARK    4  A    between atoms: C_18  and  C_19
REMARK    5  A    between atoms: N_21  and  C_22
REMARK                            x       y       z     vdW  Elec       q    Type
REMARK                         _______ _______ _______ _____ _____    ______ ____
ROOT
ATOM      1  C   UNL     1       2.395   6.642  19.776  0.00  0.00    +0.000 C 
ATOM      2  O   UNL     1       2.316   6.181  20.912  0.00  0.00    +0.000 OA
ATOM      3  N   UNL     1       1.803   7.862  19.417  0.00  0.00    +0.000 N 
ATOM      4  C   UNL     1       1.195   8.657  20.486  0.00  0.00    +0.000 C 
ATOM      5  C   UNL     1      -0.017   9.452  19.994  0.00  0.00    +0.000 C 
ATOM      6  C   UNL     1       0.277  10.258  18.723  0.00  0.00    +0.000 C 
ATOM      7  C   UNL     1       0.882   9.314  17.666  0.00  0.00    +0.000 C 
ATOM      8  C   UNL     1       2.139   8.634  18.218  0.00  0.00    +0.000 C 
ENDROOT
BRANCH   1  17
ATOM      9  C   UNL     1       0.533   3.717  19.573  0.00  0.00    +0.000 C 
ATOM     10  C   UNL     1       1.718   3.610  18.687  0.00  0.00    +0.000 A 
ATOM     11  N   UNL     1       1.904   2.473  18.001  0.00  0.00    +0.000 NA
ATOM     12  O   UNL     1       3.071   2.651  17.283  0.00  0.00    +0.000 OA
ATOM     13  C   UNL     1       3.581   3.886  17.532  0.00  0.00    +0.000 A 
ATOM     14  N   UNL     1       4.731   4.326  16.992  0.00  0.00    +0.000 NA
ATOM     15  C   UNL     1       5.069   5.591  17.309  0.00  0.00    +0.000 A 
ATOM     16  C   UNL     1       4.262   6.393  18.117  0.00  0.00    +0.000 A 
ATOM     17  C   UNL     1       3.143   5.855  18.770  0.00  0.00    +0.000 A 
ATOM     18  C   UNL     1       2.749   4.556  18.416  0.00  0.00    +0.000 A 
BRANCH  15  19
ATOM     19  C   UNL     1       6.386   6.118  16.777  0.00  0.00    +0.000 C 
ATOM     20  C   UNL     1       7.569   6.195  17.720  0.00  0.00    +0.000 C 
ATOM     21  C   UNL     1       6.948   7.457  17.205  0.00  0.00    +0.000 C 
ENDBRANCH  15  19
ENDBRANCH   1  17
BRANCH   6  22
ATOM     22  C   UNL     1       1.232  11.440  18.905  0.00  0.00    +0.000 C 
ATOM     23  O   UNL     1       2.317  11.440  18.326  0.00  0.00    +0.000 OA
ATOM     24  N   UNL     1       0.783  12.465  19.714  0.00  0.00    +0.000 N 
ATOM     25  H   UNL     1      -0.075  12.335  20.233  0.00  0.00    +0.000 HD
BRANCH  24  26
ATOM     26  C   UNL     1       1.541  13.622  20.017  0.00  0.00    +0.000 A 
ATOM     27  C   UNL     1       1.254  14.885  19.490  0.00  0.00    +0.000 A 
ATOM     28  C   UNL     1       2.088  15.976  19.731  0.00  0.00    +0.000 A 
ATOM     29  C   UNL     1       3.220  15.820  20.523  0.00  0.00    +0.000 A 
ATOM     30  C   UNL     1       3.486  14.582  21.100  0.00  0.00    +0.000 A 
ATOM     31  C   UNL     1       2.647  13.490  20.860  0.00  0.00    +0.000 A 
ENDBRANCH  24  26
ENDBRANCH   6  22
TORSDOF 4
ENDMDL
MODEL 7
REMARK VINA RESULT:      -7.3      5.260     10.315
REMARK  Name = 
REMARK  5 active torsions:
REMARK  status: ('A' for Active; 'I' for Inactive)
REMARK    1  A    between atoms: C_1  and  C_2
REMARK    2  A    between atoms: C_7  and  C_8
REMARK    3  A    between atoms: C_12  and  C_13
REMARK    4  A    between atoms: C_18  and  C_19
REMARK    5  A    between atoms: N_21  and  C_22
REMARK                            x       y       z     vdW  Elec       q    Type
REMARK                         _______ _______ _______ _____ _____    ______ ____
ROOT
ATOM      1  C   UNL     1      -2.280  14.374  21.236  0.00  0.00    +0.000 C 
ATOM      2  O   UNL     1      -1.446  15.186  21.629  0.00  0.00    +0.000 OA
ATOM      3  N   UNL     1      -2.034  13.503  20.164  0.00  0.00    +0.000 N 
ATOM      4  C   UNL     1      -0.680  13.487  19.605  0.00  0.00    +0.000 C 
ATOM      5  C   UNL     1      -0.682  13.195  18.102  0.00  0.00    +0.000 C 
ATOM      6  C   UNL     1      -1.510  11.956  17.738  0.00  0.00    +0.000 C 
ATOM      7  C   UNL     1      -2.915  12.101  18.353  0.00  0.00    +0.000 C 
ATOM      8  C   UNL     1      -2.813  12.298  19.869  0.00  0.00    +0.000 C 
ENDROOT
BRANCH   1  17
ATOM      9  C   UNL     1      -1.882  11.734  23.457  0.00  0.00    +0.000 C 
ATOM     10  C   UNL     1      -3.256  12.279  23.580  0.00  0.00    +0.000 A 
ATOM     11  N   UNL     1      -4.097  11.703  24.451  0.00  0.00    +0.000 NA
ATOM     12  O   UNL     1      -5.286  12.400  24.344  0.00  0.00    +0.000 OA
ATOM     13  C   UNL     1      -5.159  13.389  23.420  0.00  0.00    +0.000 A 
ATOM     14  N   UNL     1      -6.168  14.211  23.085  0.00  0.00    +0.000 NA
ATOM     15  C   UNL     1      -5.859  15.165  22.185  0.00  0.00    +0.000 A 
ATOM     16  C   UNL     1      -4.572  15.302  21.664  0.00  0.00    +0.000 A 
ATOM     17  C   UNL     1      -3.584  14.343  21.934  0.00  0.00    +0.000 A 
ATOM     18  C   UNL     1      -3.872  13.372  22.905  0.00  0.00    +0.000 A 
BRANCH  15  19
ATOM     19  C   UNL     1      -6.974  16.082  21.726  0.00  0.00    +0.000 C 
ATOM     20  C   UNL     1      -7.597  15.840  20.367  0.00  0.00    +0.000 C 
ATOM     21  C   UNL     1      -6.785  17.076  20.599  0.00  0.00    +0.000 C 
ENDBRANCH  15  19
ENDBRANCH   1  17
BRANCH   6  22
ATOM     22  C   UNL     1      -0.924  10.621  18.201  0.00  0.00    +0.000 C 
ATOM     23  O   UNL     1      -1.677   9.681  18.452  0.00  0.00    +0.000 OA
ATOM     24  N   UNL     1       0.453  10.557  18.285  0.00  0.00    +0.000 N 
ATOM     25  H   UNL     1       0.987  11.407  18.163  0.00  0.00    +0.000 HD
BRANCH  24  26
ATOM     26  C   UNL     1       1.165   9.414  18.721  0.00  0.00    +0.000 A 
ATOM     27  C   UNL     1       1.935   8.619  17.866  0.00  0.00    +0.000 A 
ATOM     28  C   UNL     1       2.535   7.444  18.314  0.00  0.00    +0.000 A 
ATOM     29  C   UNL     1       2.386   7.053  19.641  0.00  0.00    +0.000 A 
ATOM     30  C   UNL     1       1.671   7.864  20.516  0.00  0.00    +0.000 A 
ATOM     31  C   UNL     1       1.073   9.044  20.066  0.00  0.00    +0.000 A 
ENDBRANCH  24  26
ENDBRANCH   6  22
TORSDOF 4
ENDMDL
MODEL 8
REMARK VINA RESULT:      -7.2      5.562      9.266
REMARK  Name = 
REMARK  5 active torsions:
REMARK  status: ('A' for Active; 'I' for Inactive)
REMARK    1  A    between atoms: C_1  and  C_2
REMARK    2  A    between atoms: C_7  and  C_8
REMARK    3  A    between atoms: C_12  and  C_13
REMARK    4  A    between atoms: C_18  and  C_19
REMARK    5  A    between atoms: N_21  and  C_22
REMARK                            x       y       z     vdW  Elec       q    Type
REMARK                         _______ _______ _______ _____ _____    ______ ____
ROOT
ATOM      1  C   UNL     1       3.187  14.285  20.933  0.00  0.00    +0.000 C 
ATOM      2  O   UNL     1       3.209  14.115  22.150  0.00  0.00    +0.000 OA
ATOM      3  N   UNL     1       4.308  14.727  20.215  0.00  0.00    +0.000 N 
ATOM      4  C   UNL     1       5.572  14.848  20.945  0.00  0.00    +0.000 C 
ATOM      5  C   UNL     1       6.440  15.987  20.406  0.00  0.00    +0.000 C 
ATOM      6  C   UNL     1       6.616  15.932  18.883  0.00  0.00    +0.000 C 
ATOM      7  C   UNL     1       5.224  15.836  18.227  0.00  0.00    +0.000 C 
ATOM      8  C   UNL     1       4.468  14.616  18.763  0.00  0.00    +0.000 C 
ENDROOT
BRANCH   1  17
ATOM      9  C   UNL     1       2.158  17.462  19.980  0.00  0.00    +0.000 C 
ATOM     10  C   UNL     1       1.137  16.469  19.567  0.00  0.00    +0.000 A 
ATOM     11  N   UNL     1       0.030  16.907  18.950  0.00  0.00    +0.000 NA
ATOM     12  O   UNL     1      -0.733  15.782  18.699  0.00  0.00    +0.000 OA
ATOM     13  C   UNL     1      -0.088  14.676  19.157  0.00  0.00    +0.000 A 
ATOM     14  N   UNL     1      -0.608  13.440  19.074  0.00  0.00    +0.000 NA
ATOM     15  C   UNL     1       0.183  12.451  19.536  0.00  0.00    +0.000 A 
ATOM     16  C   UNL     1       1.463  12.698  20.034  0.00  0.00    +0.000 A 
ATOM     17  C   UNL     1       1.914  14.012  20.230  0.00  0.00    +0.000 A 
ATOM     18  C   UNL     1       1.126  15.051  19.712  0.00  0.00    +0.000 A 
BRANCH  15  19
ATOM     19  C   UNL     1      -0.376  11.044  19.523  0.00  0.00    +0.000 C 
ATOM     20  C   UNL     1      -0.030  10.138  18.359  0.00  0.00    +0.000 C 
ATOM     21  C   UNL     1      -1.439  10.611  18.536  0.00  0.00    +0.000 C 
ENDBRANCH  15  19
ENDBRANCH   1  17
BRANCH   6  22
ATOM     22  C   UNL     1       7.465  14.769  18.365  0.00  0.00    +0.000 C 
ATOM     23  O   UNL     1       7.061  14.094  17.419  0.00  0.00    +0.000 OA
ATOM     24  N   UNL     1       8.673  14.567  19.002  0.00  0.00    +0.000 N 
ATOM     25  H   UNL     1       8.877  15.101  19.837  0.00  0.00    +0.000 HD
BRANCH  24  26
ATOM     26  C   UNL     1       9.574  13.525  18.677  0.00  0.00    +0.000 A 
ATOM     27  C   UNL     1       9.615  12.306  19.361  0.00  0.00    +0.000 A 
ATOM     28  C   UNL     1      10.587  11.348  19.076  0.00  0.00    +0.000 A 
ATOM     29  C   UNL     1      11.529  11.592  18.083  0.00  0.00    +0.000 A 
ATOM     30  C   UNL     1      11.465  12.776  17.356  0.00  0.00    +0.000 A 
ATOM     31  C   UNL     1      10.488  13.734  17.640  0.00  0.00    +0.000 A 
ENDBRANCH  24  26
ENDBRANCH   6  22
TORSDOF 4
ENDMDL
MODEL 9
REMARK VINA RESULT:      -7.2      3.680      6.745
REMARK  Name = 
REMARK  5 active torsions:
REMARK  status: ('A' for Active; 'I' for Inactive)
REMARK    1  A    between atoms: C_1  and  C_2
REMARK    2  A    between atoms: C_7  and  C_8
REMARK    3  A    between atoms: C_12  and  C_13
REMARK    4  A    between atoms: C_18  and  C_19
REMARK    5  A    between atoms: N_21  and  C_22
REMARK                            x       y       z     vdW  Elec       q    Type
REMARK                         _______ _______ _______ _____ _____    ______ ____
ROOT
ATOM      1  C   UNL     1       1.244  12.596  20.437  0.00  0.00    +0.000 C 
ATOM      2  O   UNL     1       0.891  12.533  21.612  0.00  0.00    +0.000 OA
ATOM      3  N   UNL     1       2.181  13.537  19.983  0.00  0.00    +0.000 N 
ATOM      4  C   UNL     1       2.847  14.366  20.991  0.00  0.00    +0.000 C 
ATOM      5  C   UNL     1       3.177  15.763  20.459  0.00  0.00    +0.000 C 
ATOM      6  C   UNL     1       3.910  15.729  19.112  0.00  0.00    +0.000 C 
ATOM      7  C   UNL     1       3.103  14.856  18.131  0.00  0.00    +0.000 C 
ATOM      8  C   UNL     1       2.902  13.452  18.711  0.00  0.00    +0.000 C 
ENDROOT
BRANCH   1  17
ATOM      9  C   UNL     1      -2.064  13.648  20.324  0.00  0.00    +0.000 C 
ATOM     10  C   UNL     1      -1.900  12.442  19.474  0.00  0.00    +0.000 A 
ATOM     11  N   UNL     1      -2.978  11.950  18.847  0.00  0.00    +0.000 NA
ATOM     12  O   UNL     1      -2.537  10.840  18.152  0.00  0.00    +0.000 OA
ATOM     13  C   UNL     1      -1.203  10.669  18.356  0.00  0.00    +0.000 A 
ATOM     14  N   UNL     1      -0.506   9.649  17.826  0.00  0.00    +0.000 NA
ATOM     15  C   UNL     1       0.815   9.655  18.092  0.00  0.00    +0.000 A 
ATOM     16  C   UNL     1       1.415  10.668  18.840  0.00  0.00    +0.000 A 
ATOM     17  C   UNL     1       0.635  11.637  19.489  0.00  0.00    +0.000 A 
ATOM     18  C   UNL     1      -0.734  11.676  19.186  0.00  0.00    +0.000 A 
BRANCH  15  19
ATOM     19  C   UNL     1       1.638   8.496  17.570  0.00  0.00    +0.000 C 
ATOM     20  C   UNL     1       2.174   7.484  18.561  0.00  0.00    +0.000 C 
ATOM     21  C   UNL     1       3.125   8.383  17.834  0.00  0.00    +0.000 C 
ENDBRANCH  15  19
ENDBRANCH   1  17
BRANCH   6  22
ATOM     22  C   UNL     1       5.341  15.189  19.160  0.00  0.00    +0.000 C 
ATOM     23  O   UNL     1       5.867  14.957  20.248  0.00  0.00    +0.000 OA
ATOM     24  N   UNL     1       5.950  14.972  17.940  0.00  0.00    +0.000 N 
ATOM     25  H   UNL     1       5.484  15.289  17.101  0.00  0.00    +0.000 HD
BRANCH  24  26
ATOM     26  C   UNL     1       7.278  14.502  17.793  0.00  0.00    +0.000 A 
ATOM     27  C   UNL     1       7.592  13.165  17.534  0.00  0.00    +0.000 A 
ATOM     28  C   UNL     1       8.915  12.725  17.500  0.00  0.00    +0.000 A 
ATOM     29  C   UNL     1       9.950  13.630  17.711  0.00  0.00    +0.000 A 
ATOM     30  C   UNL     1       9.653  14.974  17.913  0.00  0.00    +0.000 A 
ATOM     31  C   UNL     1       8.327  15.413  17.943  0.00  0.00    +0.000 A 
ENDBRANCH  24  26
ENDBRANCH   6  22
TORSDOF 4
ENDMDL
