MODEL 1
REMARK VINA RESULT:      -8.8      0.000      0.000
REMARK  Name = 
REMARK  4 active torsions:
REMARK  status: ('A' for Active; 'I' for Inactive)
REMARK    1  A    between atoms: C_2  and  C_3
REMARK    2  A    between atoms: C_3  and  C_4
REMARK    3  A    between atoms: C_4  and  C_5
REMARK    4  A    between atoms: C_22  and  C_23
REMARK                            x       y       z     vdW  Elec       q    Type
REMARK                         _______ _______ _______ _____ _____    ______ ____
ROOT
ATOM      1  O   UNL     1       2.724   9.334  18.175  0.00  0.00    +0.000 OA
ATOM      2  C   UNL     1       2.016   8.552  18.812  0.00  0.00    +0.000 C 
ATOM      3  N   UNL     1       2.256   7.184  18.808  0.00  0.00    +0.000 N 
ATOM      4  C   UNL     1       1.484   6.211  19.574  0.00  0.00    +0.000 C 
ATOM      5  C   UNL     1       2.251   4.969  19.948  0.00  0.00    +0.000 A 
ATOM      6  C   UNL     1       1.966   4.306  21.151  0.00  0.00    +0.000 A 
ATOM      7  C   UNL     1       2.611   3.114  21.470  0.00  0.00    +0.000 A 
ATOM      8  C   UNL     1       3.519   2.556  20.575  0.00  0.00    +0.000 A 
ATOM      9  C   UNL     1       3.799   3.197  19.369  0.00  0.00    +0.000 A 
ATOM     10  C   UNL     1       3.197   4.425  19.056  0.00  0.00    +0.000 A 
ATOM     11  C   UNL     1       3.469   5.187  17.766  0.00  0.00    +0.000 C 
ATOM     12  C   UNL     1       3.401   6.712  18.027  0.00  0.00    +0.000 C 
ENDROOT
BRANCH  11  13
ATOM     13  C   UNL     1       4.793   4.870  17.077  0.00  0.00    +0.000 A 
ATOM     14  C   UNL     1       4.807   4.193  15.847  0.00  0.00    +0.000 A 
ATOM     15  C   UNL     1       6.013   3.964  15.180  0.00  0.00    +0.000 A 
ATOM     16  C   UNL     1       7.215   4.404  15.732  0.00  0.00    +0.000 A 
ATOM     17  C   UNL     1       7.218   5.056  16.961  0.00  0.00    +0.000 A 
ATOM     18  C   UNL     1       6.018   5.284  17.631  0.00  0.00    +0.000 A 
ENDBRANCH  11  13
BRANCH   2  19
ATOM     19  C   UNL     1       0.882   9.063  19.679  0.00  0.00    +0.000 C 
BRANCH  19  20
ATOM     20  C   UNL     1       0.844  10.589  19.690  0.00  0.00    +0.000 C 
BRANCH  20  21
ATOM     21  C   UNL     1      -0.550  11.105  19.536  0.00  0.00    +0.000 A 
ATOM     22  C   UNL     1      -1.208  11.972  20.387  0.00  0.00    +0.000 A 
ATOM     23  N   UNL     1      -2.464  12.193  19.889  0.00  0.00    +0.000 N 
ATOM     24  C   UNL     1      -2.643  11.491  18.721  0.00  0.00    +0.000 A 
ATOM     25  C   UNL     1      -3.754  11.415  17.874  0.00  0.00    +0.000 A 
ATOM     26  C   UNL     1      -3.649  10.606  16.739  0.00  0.00    +0.000 A 
ATOM     27  C   UNL     1      -2.480   9.903  16.460  0.00  0.00    +0.000 A 
ATOM     28  C   UNL     1      -1.376   9.991  17.320  0.00  0.00    +0.000 A 
ATOM     29  C   UNL     1      -1.459  10.796  18.474  0.00  0.00    +0.000 A 
ATOM     30  H   UNL     1      -3.165  12.783  20.316  0.00  0.00    +0.000 HD
ENDBRANCH  20  21
ENDBRANCH  19  20
ENDBRANCH   2  19
TORSDOF 4
ENDMDL
MODEL 2
REMARK VINA RESULT:      -8.6      2.389      9.554
REMARK  Name = 
REMARK  4 active torsions:
REMARK  status: ('A' for Active; 'I' for Inactive)
REMARK    1  A    between atoms: C_2  and  C_3
REMARK    2  A    between atoms: C_3  and  C_4
REMARK    3  A    between atoms: C_4  and  C_5
REMARK    4  A    between atoms: C_22  and  C_23
REMARK                            x       y       z     vdW  Elec       q    Type
REMARK                         _______ _______ _______ _____ _____    ______ ____
ROOT
ATOM      1  O   UNL     1       1.416   7.447  20.182  0.00  0.00    +0.000 OA
ATOM      2  C   UNL     1       1.825   8.169  19.271  0.00  0.00    +0.000 C 
ATOM      3  N   UNL     1       1.371   9.472  19.115  0.00  0.00    +0.000 N 
ATOM      4  C   UNL     1       1.847  10.392  18.086  0.00  0.00    +0.000 C 
ATOM      5  C   UNL     1       1.748  11.847  18.464  0.00  0.00    +0.000 A 
ATOM      6  C   UNL     1       2.699  12.760  17.983  0.00  0.00    +0.000 A 
ATOM      7  C   UNL     1       2.574  14.120  18.259  0.00  0.00    +0.000 A 
ATOM      8  C   UNL     1       1.482  14.582  18.987  0.00  0.00    +0.000 A 
ATOM      9  C   UNL     1       0.522  13.686  19.458  0.00  0.00    +0.000 A 
ATOM     10  C   UNL     1       0.661  12.308  19.233  0.00  0.00    +0.000 A 
ATOM     11  C   UNL     1      -0.339  11.273  19.731  0.00  0.00    +0.000 C 
ATOM     12  C   UNL     1       0.395   9.958  20.092  0.00  0.00    +0.000 C 
ENDROOT
BRANCH  11  13
ATOM     13  C   UNL     1      -1.193  11.697  20.922  0.00  0.00    +0.000 A 
ATOM     14  C   UNL     1      -2.401  12.382  20.720  0.00  0.00    +0.000 A 
ATOM     15  C   UNL     1      -3.218  12.709  21.804  0.00  0.00    +0.000 A 
ATOM     16  C   UNL     1      -2.839  12.360  23.099  0.00  0.00    +0.000 A 
ATOM     17  C   UNL     1      -1.634  11.701  23.316  0.00  0.00    +0.000 A 
ATOM     18  C   UNL     1      -0.814  11.376  22.238  0.00  0.00    +0.000 A 
ENDBRANCH  11  13
BRANCH   2  19
ATOM     19  C   UNL     1       2.893   7.679  18.313  0.00  0.00    +0.000 C 
BRANCH  19  20
ATOM     20  C   UNL     1       2.873   6.156  18.200  0.00  0.00    +0.000 C 
BRANCH  20  21
ATOM     21  C   UNL     1       4.250   5.582  18.266  0.00  0.00    +0.000 A 
ATOM     22  C   UNL     1       4.914   5.159  19.401  0.00  0.00    +0.000 A 
ATOM     23  N   UNL     1       6.150   4.701  19.030  0.00  0.00    +0.000 N 
ATOM     24  C   UNL     1       6.310   4.809  17.669  0.00  0.00    +0.000 A 
ATOM     25  C   UNL     1       7.396   4.468  16.857  0.00  0.00    +0.000 A 
ATOM     26  C   UNL     1       7.275   4.696  15.483  0.00  0.00    +0.000 A 
ATOM     27  C   UNL     1       6.113   5.241  14.943  0.00  0.00    +0.000 A 
ATOM     28  C   UNL     1       5.033   5.577  15.772  0.00  0.00    +0.000 A 
ATOM     29  C   UNL     1       5.133   5.361  17.161  0.00  0.00    +0.000 A 
ATOM     30  H   UNL     1       6.850   4.337  19.661  0.00  0.00    +0.000 HD
ENDBRANCH  20  21
ENDBRANCH  19  20
ENDBRANCH   2  19
TORSDOF 4
ENDMDL
MODEL 3
REMARK VINA RESULT:      -8.4      1.296      2.228
REMARK  Name = 
REMARK  4 active torsions:
REMARK  status: ('A' for Active; 'I' for Inactive)
REMARK    1  A    between atoms: C_2  and  C_3
REMARK    2  A    between atoms: C_3  and  C_4
REMARK    3  A    between atoms: C_4  and  C_5
REMARK    4  A    between atoms: C_22  and  C_23
REMARK                            x       y       z     vdW  Elec       q    Type
REMARK                         _______ _______ _______ _____ _____    ______ ____
ROOT
ATOM      1  O   UNL     1       2.595   9.443  18.198  0.00  0.00    +0.000 OA
ATOM      2  C   UNL     1       1.932   8.626  18.838  0.00  0.00    +0.000 C 
ATOM      3  N   UNL     1       2.212   7.266  18.796  0.00  0.00    +0.000 N 
ATOM      4  C   UNL     1       1.493   6.253  19.563  0.00  0.00    +0.000 C 
ATOM      5  C   UNL     1       2.308   5.027  19.884  0.00  0.00    +0.000 A 
ATOM      6  C   UNL     1       2.081   4.330  21.080  0.00  0.00    +0.000 A 
ATOM      7  C   UNL     1       2.771   3.151  21.351  0.00  0.00    +0.000 A 
ATOM      8  C   UNL     1       3.666   2.640  20.416  0.00  0.00    +0.000 A 
ATOM      9  C   UNL     1       3.888   3.316  19.216  0.00  0.00    +0.000 A 
ATOM     10  C   UNL     1       3.240   4.532  18.950  0.00  0.00    +0.000 A 
ATOM     11  C   UNL     1       3.449   5.330  17.671  0.00  0.00    +0.000 C 
ATOM     12  C   UNL     1       3.344   6.845  17.969  0.00  0.00    +0.000 C 
ENDROOT
BRANCH  11  13
ATOM     13  C   UNL     1       4.758   5.067  16.933  0.00  0.00    +0.000 A 
ATOM     14  C   UNL     1       4.794   4.176  15.849  0.00  0.00    +0.000 A 
ATOM     15  C   UNL     1       5.976   3.988  15.128  0.00  0.00    +0.000 A 
ATOM     16  C   UNL     1       7.132   4.683  15.481  0.00  0.00    +0.000 A 
ATOM     17  C   UNL     1       7.116   5.553  16.566  0.00  0.00    +0.000 A 
ATOM     18  C   UNL     1       5.941   5.740  17.291  0.00  0.00    +0.000 A 
ENDBRANCH  11  13
BRANCH   2  19
ATOM     19  C   UNL     1       0.811   9.083  19.752  0.00  0.00    +0.000 C 
BRANCH  19  20
ATOM     20  C   UNL     1       0.980  10.552  20.135  0.00  0.00    +0.000 C 
BRANCH  20  21
ATOM     21  C   UNL     1      -0.294  11.314  19.963  0.00  0.00    +0.000 A 
ATOM     22  C   UNL     1      -0.814  11.795  18.777  0.00  0.00    +0.000 A 
ATOM     23  N   UNL     1      -1.993  12.435  19.053  0.00  0.00    +0.000 N 
ATOM     24  C   UNL     1      -2.262  12.377  20.399  0.00  0.00    +0.000 A 
ATOM     25  C   UNL     1      -3.341  12.887  21.128  0.00  0.00    +0.000 A 
ATOM     26  C   UNL     1      -3.349  12.677  22.510  0.00  0.00    +0.000 A 
ATOM     27  C   UNL     1      -2.319  11.982  23.138  0.00  0.00    +0.000 A 
ATOM     28  C   UNL     1      -1.244  11.477  22.393  0.00  0.00    +0.000 A 
ATOM     29  C   UNL     1      -1.212  11.681  20.998  0.00  0.00    +0.000 A 
ATOM     30  H   UNL     1      -2.583  12.888  18.370  0.00  0.00    +0.000 HD
ENDBRANCH  20  21
ENDBRANCH  19  20
ENDBRANCH   2  19
TORSDOF 4
ENDMDL
MODEL 4
REMARK VINA RESULT:      -8.4      1.072      1.953
REMARK  Name = 
REMARK  4 active torsions:
REMARK  status: ('A' for Active; 'I' for Inactive)
REMARK    1  A    between atoms: C_2  and  C_3
REMARK    2  A    between atoms: C_3  and  C_4
REMARK    3  A    between atoms: C_4  and  C_5
REMARK    4  A    between atoms: C_22  and  C_23
REMARK                            x       y       z     vdW  Elec       q    Type
REMARK                         _______ _______ _______ _____ _____    ______ ____
ROOT
ATOM      1  O   UNL     1       2.606   9.808  17.774  0.00  0.00    +0.000 OA
ATOM      2  C   UNL     1       1.906   9.036  18.430  0.00  0.00    +0.000 C 
ATOM      3  N   UNL     1       2.170   7.672  18.475  0.00  0.00    +0.000 N 
ATOM      4  C   UNL     1       1.407   6.712  19.267  0.00  0.00    +0.000 C 
ATOM      5  C   UNL     1       2.192   5.497  19.689  0.00  0.00    +0.000 A 
ATOM      6  C   UNL     1       1.907   4.871  20.912  0.00  0.00    +0.000 A 
ATOM      7  C   UNL     1       2.570   3.702  21.277  0.00  0.00    +0.000 A 
ATOM      8  C   UNL     1       3.496   3.130  20.410  0.00  0.00    +0.000 A 
ATOM      9  C   UNL     1       3.776   3.735  19.184  0.00  0.00    +0.000 A 
ATOM     10  C   UNL     1       3.155   4.941  18.825  0.00  0.00    +0.000 A 
ATOM     11  C   UNL     1       3.427   5.663  17.512  0.00  0.00    +0.000 C 
ATOM     12  C   UNL     1       3.329   7.194  17.721  0.00  0.00    +0.000 C 
ENDROOT
BRANCH  11  13
ATOM     13  C   UNL     1       4.762   5.346  16.846  0.00  0.00    +0.000 A 
ATOM     14  C   UNL     1       5.920   6.050  17.210  0.00  0.00    +0.000 A 
ATOM     15  C   UNL     1       7.156   5.713  16.652  0.00  0.00    +0.000 A 
ATOM     16  C   UNL     1       7.250   4.675  15.726  0.00  0.00    +0.000 A 
ATOM     17  C   UNL     1       6.106   3.984  15.340  0.00  0.00    +0.000 A 
ATOM     18  C   UNL     1       4.871   4.319  15.890  0.00  0.00    +0.000 A 
ENDBRANCH  11  13
BRANCH   2  19
ATOM     19  C   UNL     1       0.755   9.555  19.269  0.00  0.00    +0.000 C 
BRANCH  19  20
ATOM     20  C   UNL     1       0.207  10.862  18.701  0.00  0.00    +0.000 C 
BRANCH  20  21
ATOM     21  C   UNL     1      -1.203  10.710  18.232  0.00  0.00    +0.000 A 
ATOM     22  C   UNL     1      -1.648   9.900  17.206  0.00  0.00    +0.000 A 
ATOM     23  N   UNL     1      -3.005  10.050  17.096  0.00  0.00    +0.000 N 
ATOM     24  C   UNL     1      -3.462  10.942  18.037  0.00  0.00    +0.000 A 
ATOM     25  C   UNL     1      -4.759  11.398  18.296  0.00  0.00    +0.000 A 
ATOM     26  C   UNL     1      -4.928  12.322  19.330  0.00  0.00    +0.000 A 
ATOM     27  C   UNL     1      -3.843  12.771  20.079  0.00  0.00    +0.000 A 
ATOM     28  C   UNL     1      -2.549  12.304  19.807  0.00  0.00    +0.000 A 
ATOM     29  C   UNL     1      -2.353  11.375  18.765  0.00  0.00    +0.000 A 
ATOM     30  H   UNL     1      -3.591   9.580  16.422  0.00  0.00    +0.000 HD
ENDBRANCH  20  21
ENDBRANCH  19  20
ENDBRANCH   2  19
TORSDOF 4
ENDMDL
MODEL 5
REMARK VINA RESULT:      -8.4      2.366      9.337
REMARK  Name = 
REMARK  4 active torsions:
REMARK  status: ('A' for Active; 'I' for Inactive)
REMARK    1  A    between atoms: C_2  and  C_3
REMARK    2  A    between atoms: C_3  and  C_4
REMARK    3  A    between atoms: C_4  and  C_5
REMARK    4  A    between atoms: C_22  and  C_23
REMARK                            x       y       z     vdW  Elec       q    Type
REMARK                         _______ _______ _______ _____ _____    ______ ____
ROOT
ATOM      1  O   UNL     1       1.371   7.519  20.326  0.00  0.00    +0.000 OA
ATOM      2  C   UNL     1       1.792   8.217  19.403  0.00  0.00    +0.000 C 
ATOM      3  N   UNL     1       1.338   9.515  19.205  0.00  0.00    +0.000 N 
ATOM      4  C   UNL     1       1.827  10.408  18.159  0.00  0.00    +0.000 C 
ATOM      5  C   UNL     1       1.720  11.873  18.496  0.00  0.00    +0.000 A 
ATOM      6  C   UNL     1       2.676  12.774  18.005  0.00  0.00    +0.000 A 
ATOM      7  C   UNL     1       2.544  14.141  18.243  0.00  0.00    +0.000 A 
ATOM      8  C   UNL     1       1.440  14.620  18.942  0.00  0.00    +0.000 A 
ATOM      9  C   UNL     1       0.475  13.734  19.422  0.00  0.00    +0.000 A 
ATOM     10  C   UNL     1       0.620  12.351  19.236  0.00  0.00    +0.000 A 
ATOM     11  C   UNL     1      -0.385  11.327  19.747  0.00  0.00    +0.000 C 
ATOM     12  C   UNL     1       0.347  10.025  20.154  0.00  0.00    +0.000 C 
ENDROOT
BRANCH  11  13
ATOM     13  C   UNL     1      -1.257  11.781  20.914  0.00  0.00    +0.000 A 
ATOM     14  C   UNL     1      -2.465  12.454  20.675  0.00  0.00    +0.000 A 
ATOM     15  C   UNL     1      -3.299  12.808  21.738  0.00  0.00    +0.000 A 
ATOM     16  C   UNL     1      -2.937  12.498  23.048  0.00  0.00    +0.000 A 
ATOM     17  C   UNL     1      -1.731  11.851  23.300  0.00  0.00    +0.000 A 
ATOM     18  C   UNL     1      -0.895  11.500  22.243  0.00  0.00    +0.000 A 
ENDBRANCH  11  13
BRANCH   2  19
ATOM     19  C   UNL     1       2.876   7.704  18.474  0.00  0.00    +0.000 C 
BRANCH  19  20
ATOM     20  C   UNL     1       2.485   6.360  17.865  0.00  0.00    +0.000 C 
BRANCH  20  21
ATOM     21  C   UNL     1       3.205   5.228  18.524  0.00  0.00    +0.000 A 
ATOM     22  C   UNL     1       4.512   4.841  18.304  0.00  0.00    +0.000 A 
ATOM     23  N   UNL     1       4.783   3.764  19.105  0.00  0.00    +0.000 N 
ATOM     24  C   UNL     1       3.677   3.438  19.854  0.00  0.00    +0.000 A 
ATOM     25  C   UNL     1       3.492   2.423  20.797  0.00  0.00    +0.000 A 
ATOM     26  C   UNL     1       2.240   2.326  21.410  0.00  0.00    +0.000 A 
ATOM     27  C   UNL     1       1.213   3.212  21.093  0.00  0.00    +0.000 A 
ATOM     28  C   UNL     1       1.415   4.225  20.145  0.00  0.00    +0.000 A 
ATOM     29  C   UNL     1       2.669   4.339  19.510  0.00  0.00    +0.000 A 
ATOM     30  H   UNL     1       5.664   3.272  19.142  0.00  0.00    +0.000 HD
ENDBRANCH  20  21
ENDBRANCH  19  20
ENDBRANCH   2  19
TORSDOF 4
ENDMDL
MODEL 6
REMARK VINA RESULT:      -8.3      1.298      2.429
REMARK  Name = 
REMARK  4 active torsions:
REMARK  status: ('A' for Active; 'I' for Inactive)
REMARK    1  A    between atoms: C_2  and  C_3
REMARK    2  A    between atoms: C_3  and  C_4
REMARK    3  A    between atoms: C_4  and  C_5
REMARK    4  A    between atoms: C_22  and  C_23
REMARK                            x       y       z     vdW  Elec       q    Type
REMARK                         _______ _______ _______ _____ _____    ______ ____
ROOT
ATOM      1  O   UNL     1       2.664   9.748  17.745  0.00  0.00    +0.000 OA
ATOM      2  C   UNL     1       1.957   8.994  18.415  0.00  0.00    +0.000 C 
ATOM      3  N   UNL     1       2.203   7.628  18.478  0.00  0.00    +0.000 N 
ATOM      4  C   UNL     1       1.431   6.689  19.285  0.00  0.00    +0.000 C 
ATOM      5  C   UNL     1       2.202   5.470  19.722  0.00  0.00    +0.000 A 
ATOM      6  C   UNL     1       1.912   4.865  20.954  0.00  0.00    +0.000 A 
ATOM      7  C   UNL     1       2.562   3.692  21.334  0.00  0.00    +0.000 A 
ATOM      8  C   UNL     1       3.478   3.097  20.472  0.00  0.00    +0.000 A 
ATOM      9  C   UNL     1       3.762   3.681  19.238  0.00  0.00    +0.000 A 
ATOM     10  C   UNL     1       3.156   4.890  18.863  0.00  0.00    +0.000 A 
ATOM     11  C   UNL     1       3.432   5.590  17.540  0.00  0.00    +0.000 C 
ATOM     12  C   UNL     1       3.355   7.125  17.727  0.00  0.00    +0.000 C 
ENDROOT
BRANCH  11  13
ATOM     13  C   UNL     1       4.762   5.247  16.874  0.00  0.00    +0.000 A 
ATOM     14  C   UNL     1       5.935   5.921  17.246  0.00  0.00    +0.000 A 
ATOM     15  C   UNL     1       7.164   5.560  16.689  0.00  0.00    +0.000 A 
ATOM     16  C   UNL     1       7.236   4.527  15.756  0.00  0.00    +0.000 A 
ATOM     17  C   UNL     1       6.077   3.865  15.362  0.00  0.00    +0.000 A 
ATOM     18  C   UNL     1       4.849   4.224  15.912  0.00  0.00    +0.000 A 
ENDBRANCH  11  13
BRANCH   2  19
ATOM     19  C   UNL     1       0.815   9.540  19.249  0.00  0.00    +0.000 C 
BRANCH  19  20
ATOM     20  C   UNL     1       0.906  11.058  19.379  0.00  0.00    +0.000 C 
BRANCH  20  21
ATOM     21  C   UNL     1      -0.442  11.677  19.557  0.00  0.00    +0.000 A 
ATOM     22  C   UNL     1      -1.233  12.231  18.570  0.00  0.00    +0.000 A 
ATOM     23  N   UNL     1      -2.388  12.687  19.148  0.00  0.00    +0.000 N 
ATOM     24  C   UNL     1      -2.373  12.437  20.500  0.00  0.00    +0.000 A 
ATOM     25  C   UNL     1      -3.327  12.722  21.482  0.00  0.00    +0.000 A 
ATOM     26  C   UNL     1      -3.037  12.349  22.797  0.00  0.00    +0.000 A 
ATOM     27  C   UNL     1      -1.841  11.712  23.117  0.00  0.00    +0.000 A 
ATOM     28  C   UNL     1      -0.895  11.433  22.121  0.00  0.00    +0.000 A 
ATOM     29  C   UNL     1      -1.163  11.805  20.788  0.00  0.00    +0.000 A 
ATOM     30  H   UNL     1      -3.143  13.145  18.659  0.00  0.00    +0.000 HD
ENDBRANCH  20  21
ENDBRANCH  19  20
ENDBRANCH   2  19
TORSDOF 4
ENDMDL
MODEL 7
REMARK VINA RESULT:      -8.3      2.003      2.766
REMARK  Name = 
REMARK  4 active torsions:
REMARK  status: ('A' for Active; 'I' for Inactive)
REMARK    1  A    between atoms: C_2  and  C_3
REMARK    2  A    between atoms: C_3  and  C_4
REMARK    3  A    between atoms: C_4  and  C_5
REMARK    4  A    between atoms: C_22  and  C_23
REMARK                            x       y       z     vdW  Elec       q    Type
REMARK                         _______ _______ _______ _____ _____    ______ ____
ROOT
ATOM      1  O   UNL     1       2.631   9.463  18.012  0.00  0.00    +0.000 OA
ATOM      2  C   UNL     1       1.916   8.670  18.627  0.00  0.00    +0.000 C 
ATOM      3  N   UNL     1       2.186   7.307  18.644  0.00  0.00    +0.000 N 
ATOM      4  C   UNL     1       1.405   6.322  19.386  0.00  0.00    +0.000 C 
ATOM      5  C   UNL     1       2.184   5.100  19.800  0.00  0.00    +0.000 A 
ATOM      6  C   UNL     1       1.865   4.441  20.996  0.00  0.00    +0.000 A 
ATOM      7  C   UNL     1       2.523   3.265  21.350  0.00  0.00    +0.000 A 
ATOM      8  C   UNL     1       3.478   2.721  20.497  0.00  0.00    +0.000 A 
ATOM      9  C   UNL     1       3.792   3.360  19.297  0.00  0.00    +0.000 A 
ATOM     10  C   UNL     1       3.176   4.572  18.951  0.00  0.00    +0.000 A 
ATOM     11  C   UNL     1       3.483   5.331  17.667  0.00  0.00    +0.000 C 
ATOM     12  C   UNL     1       3.370   6.855  17.913  0.00  0.00    +0.000 C 
ENDROOT
BRANCH  11  13
ATOM     13  C   UNL     1       4.839   5.038  17.033  0.00  0.00    +0.000 A 
ATOM     14  C   UNL     1       6.018   5.510  17.631  0.00  0.00    +0.000 A 
ATOM     15  C   UNL     1       7.264   5.183  17.092  0.00  0.00    +0.000 A 
ATOM     16  C   UNL     1       7.349   4.387  15.951  0.00  0.00    +0.000 A 
ATOM     17  C   UNL     1       6.188   3.930  15.335  0.00  0.00    +0.000 A 
ATOM     18  C   UNL     1       4.943   4.256  15.867  0.00  0.00    +0.000 A 
ENDBRANCH  11  13
BRANCH   2  19
ATOM     19  C   UNL     1       0.737   9.161  19.444  0.00  0.00    +0.000 C 
BRANCH  19  20
ATOM     20  C   UNL     1       1.161  10.262  20.413  0.00  0.00    +0.000 C 
BRANCH  20  21
ATOM     21  C   UNL     1       0.214  10.378  21.563  0.00  0.00    +0.000 A 
ATOM     22  C   UNL     1       0.161   9.559  22.674  0.00  0.00    +0.000 A 
ATOM     23  N   UNL     1      -0.846  10.002  23.488  0.00  0.00    +0.000 N 
ATOM     24  C   UNL     1      -1.454  11.104  22.935  0.00  0.00    +0.000 A 
ATOM     25  C   UNL     1      -2.516  11.882  23.407  0.00  0.00    +0.000 A 
ATOM     26  C   UNL     1      -2.933  12.958  22.619  0.00  0.00    +0.000 A 
ATOM     27  C   UNL     1      -2.310  13.247  21.408  0.00  0.00    +0.000 A 
ATOM     28  C   UNL     1      -1.246  12.457  20.949  0.00  0.00    +0.000 A 
ATOM     29  C   UNL     1      -0.811  11.363  21.724  0.00  0.00    +0.000 A 
ATOM     30  H   UNL     1      -1.112   9.583  24.368  0.00  0.00    +0.000 HD
ENDBRANCH  20  21
ENDBRANCH  19  20
ENDBRANCH   2  19
TORSDOF 4
ENDMDL
MODEL 8
REMARK VINA RESULT:      -8.2      1.925      2.234
REMARK  Name = 
REMARK  4 active torsions:
REMARK  status: ('A' for Active; 'I' for Inactive)
REMARK    1  A    between atoms: C_2  and  C_3
REMARK    2  A    between atoms: C_3  and  C_4
REMARK    3  A    between atoms: C_4  and  C_5
REMARK    4  A    between atoms: C_22  and  C_23
REMARK                            x       y       z     vdW  Elec       q    Type
REMARK                         _______ _______ _______ _____ _____    ______ ____
ROOT
ATOM      1  O   UNL     1       2.256   8.960  19.178  0.00  0.00    +0.000 OA
ATOM      2  C   UNL     1       1.726   8.006  19.749  0.00  0.00    +0.000 C 
ATOM      3  N   UNL     1       2.118   6.697  19.499  0.00  0.00    +0.000 N 
ATOM      4  C   UNL     1       1.563   5.527  20.173  0.00  0.00    +0.000 C 
ATOM      5  C   UNL     1       2.507   4.356  20.257  0.00  0.00    +0.000 A 
ATOM      6  C   UNL     1       2.450   3.491  21.360  0.00  0.00    +0.000 A 
ATOM      7  C   UNL     1       3.262   2.360  21.412  0.00  0.00    +0.000 A 
ATOM      8  C   UNL     1       4.110   2.066  20.349  0.00  0.00    +0.000 A 
ATOM      9  C   UNL     1       4.164   2.910  19.240  0.00  0.00    +0.000 A 
ATOM     10  C   UNL     1       3.391   4.081  19.195  0.00  0.00    +0.000 A 
ATOM     11  C   UNL     1       3.413   5.054  18.025  0.00  0.00    +0.000 C 
ATOM     12  C   UNL     1       3.204   6.501  18.536  0.00  0.00    +0.000 C 
ENDROOT
BRANCH  11  13
ATOM     13  C   UNL     1       4.669   5.020  17.159  0.00  0.00    +0.000 A 
ATOM     14  C   UNL     1       4.724   4.196  16.024  0.00  0.00    +0.000 A 
ATOM     15  C   UNL     1       5.845   4.216  15.190  0.00  0.00    +0.000 A 
ATOM     16  C   UNL     1       6.921   5.054  15.480  0.00  0.00    +0.000 A 
ATOM     17  C   UNL     1       6.888   5.860  16.614  0.00  0.00    +0.000 A 
ATOM     18  C   UNL     1       5.774   5.840  17.450  0.00  0.00    +0.000 A 
ENDBRANCH  11  13
BRANCH   2  19
ATOM     19  C   UNL     1       0.657   8.228  20.802  0.00  0.00    +0.000 C 
BRANCH  19  20
ATOM     20  C   UNL     1       1.089   9.292  21.807  0.00  0.00    +0.000 C 
BRANCH  20  21
ATOM     21  C   UNL     1      -0.022  10.244  22.111  0.00  0.00    +0.000 A 
ATOM     22  C   UNL     1      -0.806  10.260  23.248  0.00  0.00    +0.000 A 
ATOM     23  N   UNL     1      -1.707  11.286  23.135  0.00  0.00    +0.000 N 
ATOM     24  C   UNL     1      -1.525  11.950  21.945  0.00  0.00    +0.000 A 
ATOM     25  C   UNL     1      -2.205  13.048  21.410  0.00  0.00    +0.000 A 
ATOM     26  C   UNL     1      -1.798  13.516  20.158  0.00  0.00    +0.000 A 
ATOM     27  C   UNL     1      -0.750  12.911  19.469  0.00  0.00    +0.000 A 
ATOM     28  C   UNL     1      -0.079  11.810  20.019  0.00  0.00    +0.000 A 
ATOM     29  C   UNL     1      -0.474  11.317  21.279  0.00  0.00    +0.000 A 
ATOM     30  H   UNL     1      -2.408  11.524  23.821  0.00  0.00    +0.000 HD
ENDBRANCH  20  21
ENDBRANCH  19  20
ENDBRANCH   2  19
TORSDOF 4
ENDMDL
MODEL 9
REMARK VINA RESULT:      -8.2      2.340      9.179
REMARK  Name = 
REMARK  4 active torsions:
REMARK  status: ('A' for Active; 'I' for Inactive)
REMARK    1  A    between atoms: C_2  and  C_3
REMARK    2  A    between atoms: C_3  and  C_4
REMARK    3  A    between atoms: C_4  and  C_5
REMARK    4  A    between atoms: C_22  and  C_23
REMARK                            x       y       z     vdW  Elec       q    Type
REMARK                         _______ _______ _______ _____ _____    ______ ____
ROOT
ATOM      1  O   UNL     1       1.467   7.498  19.831  0.00  0.00    +0.000 OA
ATOM      2  C   UNL     1       1.884   8.279  18.974  0.00  0.00    +0.000 C 
ATOM      3  N   UNL     1       1.444   9.596  18.912  0.00  0.00    +0.000 N 
ATOM      4  C   UNL     1       1.930  10.582  17.951  0.00  0.00    +0.000 C 
ATOM      5  C   UNL     1       1.847  12.007  18.433  0.00  0.00    +0.000 A 
ATOM      6  C   UNL     1       2.807  12.942  18.017  0.00  0.00    +0.000 A 
ATOM      7  C   UNL     1       2.696  14.279  18.391  0.00  0.00    +0.000 A 
ATOM      8  C   UNL     1       1.609  14.700  19.151  0.00  0.00    +0.000 A 
ATOM      9  C   UNL     1       0.640  13.782  19.556  0.00  0.00    +0.000 A 
ATOM     10  C   UNL     1       0.764  12.423  19.233  0.00  0.00    +0.000 A 
ATOM     11  C   UNL     1      -0.247  11.365  19.656  0.00  0.00    +0.000 C 
ATOM     12  C   UNL     1       0.473  10.021  19.922  0.00  0.00    +0.000 C 
ENDROOT
BRANCH  11  13
ATOM     13  C   UNL     1      -1.096  11.713  20.876  0.00  0.00    +0.000 A 
ATOM     14  C   UNL     1      -2.304  12.410  20.722  0.00  0.00    +0.000 A 
ATOM     15  C   UNL     1      -3.118  12.667  21.828  0.00  0.00    +0.000 A 
ATOM     16  C   UNL     1      -2.734  12.234  23.097  0.00  0.00    +0.000 A 
ATOM     17  C   UNL     1      -1.529  11.561  23.267  0.00  0.00    +0.000 A 
ATOM     18  C   UNL     1      -0.713  11.306  22.167  0.00  0.00    +0.000 A 
ENDBRANCH  11  13
BRANCH   2  19
ATOM     19  C   UNL     1       2.947   7.848  17.983  0.00  0.00    +0.000 C 
BRANCH  19  20
ATOM     20  C   UNL     1       3.913   6.848  18.614  0.00  0.00    +0.000 C 
BRANCH  20  21
ATOM     21  C   UNL     1       3.755   5.484  18.024  0.00  0.00    +0.000 A 
ATOM     22  C   UNL     1       4.473   4.952  16.972  0.00  0.00    +0.000 A 
ATOM     23  N   UNL     1       4.021   3.680  16.741  0.00  0.00    +0.000 N 
ATOM     24  C   UNL     1       3.020   3.363  17.629  0.00  0.00    +0.000 A 
ATOM     25  C   UNL     1       2.274   2.188  17.767  0.00  0.00    +0.000 A 
ATOM     26  C   UNL     1       1.304   2.151  18.773  0.00  0.00    +0.000 A 
ATOM     27  C   UNL     1       1.091   3.244  19.609  0.00  0.00    +0.000 A 
ATOM     28  C   UNL     1       1.848   4.414  19.457  0.00  0.00    +0.000 A 
ATOM     29  C   UNL     1       2.829   4.477  18.446  0.00  0.00    +0.000 A 
ATOM     30  H   UNL     1       4.366   3.060  16.023  0.00  0.00    +0.000 HD
ENDBRANCH  20  21
ENDBRANCH  19  20
ENDBRANCH   2  19
TORSDOF 4
ENDMDL
