MODEL 1
REMARK VINA RESULT:      -7.9      0.000      0.000
REMARK  Name = 
REMARK  5 active torsions:
REMARK  status: ('A' for Active; 'I' for Inactive)
REMARK    1  A    between atoms: C_2  and  C_3
REMARK    2  A    between atoms: C_3  and  N_4
REMARK    3  A    between atoms: C_9  and  C_10
REMARK    4  A    between atoms: N_20  and  C_21
REMARK    5  A    between atoms: C_21  and  C_22
REMARK                            x       y       z     vdW  Elec       q    Type
REMARK                         _______ _______ _______ _____ _____    ______ ____
ROOT
ATOM      1  N   UNL     1      -0.073  11.971  21.374  0.00  0.00    +0.000 N 
ATOM      2  C   UNL     1       0.196  12.269  20.050  0.00  0.00    +0.000 A 
ATOM      3  N   UNL     1       0.718  11.459  19.189  0.00  0.00    +0.000 NA
ATOM      4  C   UNL     1       0.989  10.223  19.679  0.00  0.00    +0.000 A 
ATOM      5  S   UNL     1       1.698   9.018  18.715  0.00  0.00    +0.000 S 
ATOM      6  C   UNL     1       1.680   7.859  19.991  0.00  0.00    +0.000 A 
ATOM      7  C   UNL     1       1.149   8.421  21.142  0.00  0.00    +0.000 A 
ATOM      8  C   UNL     1       0.760   9.780  20.959  0.00  0.00    +0.000 A 
ATOM      9  C   UNL     1       0.181  10.709  21.914  0.00  0.00    +0.000 A 
ATOM     10  O   UNL     1      -0.029  10.403  23.079  0.00  0.00    +0.000 OA
ENDROOT
BRANCH   6  11
ATOM     11  C   UNL     1       2.222   6.504  19.778  0.00  0.00    +0.000 A 
ATOM     12  C   UNL     1       1.871   5.457  20.646  0.00  0.00    +0.000 A 
ATOM     13  C   UNL     1       2.398   4.173  20.476  0.00  0.00    +0.000 A 
ATOM     14  C   UNL     1       3.282   3.913  19.433  0.00  0.00    +0.000 A 
ATOM     15  C   UNL     1       3.632   4.932  18.552  0.00  0.00    +0.000 A 
ATOM     16  C   UNL     1       3.100   6.215  18.720  0.00  0.00    +0.000 A 
ENDBRANCH   6  11
BRANCH   1  17
ATOM     17  C   UNL     1      -0.639  12.998  22.241  0.00  0.00    +0.000 C 
BRANCH  17  19
ATOM     18  O   UNL     1      -2.142  14.798  21.682  0.00  0.00    +0.000 OA
ATOM     19  C   UNL     1      -1.963  13.582  21.728  0.00  0.00    +0.000 C 
ATOM     20  N   UNL     1      -2.936  12.673  21.387  0.00  0.00    +0.000 N 
ATOM     21  H   UNL     1      -2.675  11.701  21.303  0.00  0.00    +0.000 HD
BRANCH  20  22
ATOM     22  C   UNL     1      -4.174  13.056  20.734  0.00  0.00    +0.000 C 
BRANCH  22  23
ATOM     23  C   UNL     1      -4.292  12.279  19.447  0.00  0.00    +0.000 A 
ATOM     24  C   UNL     1      -5.490  12.320  18.697  0.00  0.00    +0.000 A 
ATOM     25  C   UNL     1      -5.542  11.804  17.397  0.00  0.00    +0.000 A 
ATOM     26  C   UNL     1      -4.376  11.297  16.869  0.00  0.00    +0.000 A 
ATOM     27  C   UNL     1      -3.218  11.216  17.609  0.00  0.00    +0.000 A 
ATOM     28  C   UNL     1      -3.149  11.667  18.906  0.00  0.00    +0.000 A 
ATOM     29  O   UNL     1      -2.172  10.739  16.881  0.00  0.00    +0.000 OA
ATOM     30  C   UNL     1      -2.748  10.794  15.560  0.00  0.00    +0.000 C 
ATOM     31  O   UNL     1      -4.187  10.889  15.583  0.00  0.00    +0.000 OA
ENDBRANCH  22  23
ENDBRANCH  20  22
ENDBRANCH  17  19
ENDBRANCH   1  17
TORSDOF 5
ENDMDL
MODEL 2
REMARK VINA RESULT:      -7.8      2.005      2.719
REMARK  Name = 
REMARK  5 active torsions:
REMARK  status: ('A' for Active; 'I' for Inactive)
REMARK    1  A    between atoms: C_2  and  C_3
REMARK    2  A    between atoms: C_3  and  N_4
REMARK    3  A    between atoms: C_9  and  C_10
REMARK    4  A    between atoms: N_20  and  C_21
REMARK    5  A    between atoms: C_21  and  C_22
REMARK                            x       y       z     vdW  Elec       q    Type
REMARK                         _______ _______ _______ _____ _____    ______ ____
ROOT
ATOM      1  N   UNL     1      -0.632  12.149  21.777  0.00  0.00    +0.000 N 
ATOM      2  C   UNL     1      -0.601  12.602  20.470  0.00  0.00    +0.000 A 
ATOM      3  N   UNL     1      -0.084  11.968  19.468  0.00  0.00    +0.000 NA
ATOM      4  C   UNL     1       0.443  10.759  19.785  0.00  0.00    +0.000 A 
ATOM      5  S   UNL     1       1.190   9.778  18.617  0.00  0.00    +0.000 S 
ATOM      6  C   UNL     1       1.533   8.529  19.753  0.00  0.00    +0.000 A 
ATOM      7  C   UNL     1       1.087   8.892  21.015  0.00  0.00    +0.000 A 
ATOM      8  C   UNL     1       0.468  10.175  21.029  0.00  0.00    +0.000 A 
ATOM      9  C   UNL     1      -0.111  10.908  22.142  0.00  0.00    +0.000 A 
ATOM     10  O   UNL     1      -0.105  10.472  23.285  0.00  0.00    +0.000 OA
ENDROOT
BRANCH   6  11
ATOM     11  C   UNL     1       2.245   7.308  19.331  0.00  0.00    +0.000 A 
ATOM     12  C   UNL     1       2.968   7.292  18.126  0.00  0.00    +0.000 A 
ATOM     13  C   UNL     1       3.626   6.135  17.696  0.00  0.00    +0.000 A 
ATOM     14  C   UNL     1       3.575   4.976  18.465  0.00  0.00    +0.000 A 
ATOM     15  C   UNL     1       2.878   4.975  19.669  0.00  0.00    +0.000 A 
ATOM     16  C   UNL     1       2.224   6.133  20.101  0.00  0.00    +0.000 A 
ENDBRANCH   6  11
BRANCH   1  17
ATOM     17  C   UNL     1      -1.224  12.988  22.813  0.00  0.00    +0.000 C 
BRANCH  17  19
ATOM     18  O   UNL     1      -3.336  12.000  23.427  0.00  0.00    +0.000 OA
ATOM     19  C   UNL     1      -2.758  12.925  22.860  0.00  0.00    +0.000 C 
ATOM     20  N   UNL     1      -3.427  13.921  22.189  0.00  0.00    +0.000 N 
ATOM     21  H   UNL     1      -2.901  14.726  21.877  0.00  0.00    +0.000 HD
BRANCH  20  22
ATOM     22  C   UNL     1      -4.865  14.097  22.275  0.00  0.00    +0.000 C 
BRANCH  22  23
ATOM     23  C   UNL     1      -5.513  13.231  21.223  0.00  0.00    +0.000 A 
ATOM     24  C   UNL     1      -5.061  13.278  19.884  0.00  0.00    +0.000 A 
ATOM     25  C   UNL     1      -5.481  12.324  18.950  0.00  0.00    +0.000 A 
ATOM     26  C   UNL     1      -6.313  11.323  19.398  0.00  0.00    +0.000 A 
ATOM     27  C   UNL     1      -6.789  11.296  20.689  0.00  0.00    +0.000 A 
ATOM     28  C   UNL     1      -6.436  12.248  21.615  0.00  0.00    +0.000 A 
ATOM     29  O   UNL     1      -7.547  10.193  20.937  0.00  0.00    +0.000 OA
ATOM     30  C   UNL     1      -7.259   9.426  19.750  0.00  0.00    +0.000 C 
ATOM     31  O   UNL     1      -6.708  10.230  18.686  0.00  0.00    +0.000 OA
ENDBRANCH  22  23
ENDBRANCH  20  22
ENDBRANCH  17  19
ENDBRANCH   1  17
TORSDOF 5
ENDMDL
MODEL 3
REMARK VINA RESULT:      -7.8      6.297      9.245
REMARK  Name = 
REMARK  5 active torsions:
REMARK  status: ('A' for Active; 'I' for Inactive)
REMARK    1  A    between atoms: C_2  and  C_3
REMARK    2  A    between atoms: C_3  and  N_4
REMARK    3  A    between atoms: C_9  and  C_10
REMARK    4  A    between atoms: N_20  and  C_21
REMARK    5  A    between atoms: C_21  and  C_22
REMARK                            x       y       z     vdW  Elec       q    Type
REMARK                         _______ _______ _______ _____ _____    ______ ____
ROOT
ATOM      1  N   UNL     1       6.743   5.620  17.876  0.00  0.00    +0.000 N 
ATOM      2  C   UNL     1       6.193   6.413  16.884  0.00  0.00    +0.000 A 
ATOM      3  N   UNL     1       6.470   7.660  16.679  0.00  0.00    +0.000 NA
ATOM      4  C   UNL     1       7.397   8.171  17.528  0.00  0.00    +0.000 A 
ATOM      5  S   UNL     1       7.885   9.796  17.441  0.00  0.00    +0.000 S 
ATOM      6  C   UNL     1       9.000   9.625  18.744  0.00  0.00    +0.000 A 
ATOM      7  C   UNL     1       8.966   8.330  19.239  0.00  0.00    +0.000 A 
ATOM      8  C   UNL     1       8.040   7.502  18.542  0.00  0.00    +0.000 A 
ATOM      9  C   UNL     1       7.706   6.105  18.761  0.00  0.00    +0.000 A 
ATOM     10  O   UNL     1       8.212   5.445  19.659  0.00  0.00    +0.000 OA
ENDROOT
BRANCH   6  11
ATOM     11  C   UNL     1       9.792  10.781  19.206  0.00  0.00    +0.000 A 
ATOM     12  C   UNL     1      10.726  11.386  18.349  0.00  0.00    +0.000 A 
ATOM     13  C   UNL     1      11.506  12.464  18.780  0.00  0.00    +0.000 A 
ATOM     14  C   UNL     1      11.362  12.957  20.074  0.00  0.00    +0.000 A 
ATOM     15  C   UNL     1      10.432  12.383  20.934  0.00  0.00    +0.000 A 
ATOM     16  C   UNL     1       9.649  11.308  20.500  0.00  0.00    +0.000 A 
ENDBRANCH   6  11
BRANCH   1  17
ATOM     17  C   UNL     1       6.311   4.233  18.007  0.00  0.00    +0.000 C 
BRANCH  17  19
ATOM     18  O   UNL     1       4.129   3.227  17.816  0.00  0.00    +0.000 OA
ATOM     19  C   UNL     1       4.826   4.078  18.366  0.00  0.00    +0.000 C 
ATOM     20  N   UNL     1       4.325   4.973  19.281  0.00  0.00    +0.000 N 
ATOM     21  H   UNL     1       4.979   5.540  19.803  0.00  0.00    +0.000 HD
BRANCH  20  22
ATOM     22  C   UNL     1       2.994   4.856  19.846  0.00  0.00    +0.000 C 
BRANCH  22  23
ATOM     23  C   UNL     1       2.291   6.181  19.681  0.00  0.00    +0.000 A 
ATOM     24  C   UNL     1       1.653   6.792  20.786  0.00  0.00    +0.000 A 
ATOM     25  C   UNL     1       1.205   8.115  20.715  0.00  0.00    +0.000 A 
ATOM     26  C   UNL     1       1.446   8.804  19.547  0.00  0.00    +0.000 A 
ATOM     27  C   UNL     1       2.028   8.203  18.455  0.00  0.00    +0.000 A 
ATOM     28  C   UNL     1       2.432   6.888  18.476  0.00  0.00    +0.000 A 
ATOM     29  O   UNL     1       2.227   9.075  17.430  0.00  0.00    +0.000 OA
ATOM     30  C   UNL     1       1.954  10.317  18.109  0.00  0.00    +0.000 C 
ATOM     31  O   UNL     1       1.222  10.132  19.338  0.00  0.00    +0.000 OA
ENDBRANCH  22  23
ENDBRANCH  20  22
ENDBRANCH  17  19
ENDBRANCH   1  17
TORSDOF 5
ENDMDL
MODEL 4
REMARK VINA RESULT:      -7.8      2.511      3.869
REMARK  Name = 
REMARK  5 active torsions:
REMARK  status: ('A' for Active; 'I' for Inactive)
REMARK    1  A    between atoms: C_2  and  C_3
REMARK    2  A    between atoms: C_3  and  N_4
REMARK    3  A    between atoms: C_9  and  C_10
REMARK    4  A    between atoms: N_20  and  C_21
REMARK    5  A    between atoms: C_21  and  C_22
REMARK                            x       y       z     vdW  Elec       q    Type
REMARK                         _______ _______ _______ _____ _____    ______ ____
ROOT
ATOM      1  N   UNL     1       0.709  10.490  19.867  0.00  0.00    +0.000 N 
ATOM      2  C   UNL     1       0.479   9.551  20.857  0.00  0.00    +0.000 A 
ATOM      3  N   UNL     1       0.934   8.341  20.865  0.00  0.00    +0.000 NA
ATOM      4  C   UNL     1       1.707   8.029  19.794  0.00  0.00    +0.000 A 
ATOM      5  S   UNL     1       2.384   6.483  19.603  0.00  0.00    +0.000 S 
ATOM      6  C   UNL     1       3.165   6.908  18.127  0.00  0.00    +0.000 A 
ATOM      7  C   UNL     1       2.878   8.223  17.793  0.00  0.00    +0.000 A 
ATOM      8  C   UNL     1       2.036   8.860  18.750  0.00  0.00    +0.000 A 
ATOM      9  C   UNL     1       1.506  10.213  18.756  0.00  0.00    +0.000 A 
ATOM     10  O   UNL     1       1.728  11.006  17.852  0.00  0.00    +0.000 OA
ENDROOT
BRANCH   6  11
ATOM     11  C   UNL     1       3.965   5.911  17.390  0.00  0.00    +0.000 A 
ATOM     12  C   UNL     1       4.899   6.327  16.427  0.00  0.00    +0.000 A 
ATOM     13  C   UNL     1       5.646   5.394  15.699  0.00  0.00    +0.000 A 
ATOM     14  C   UNL     1       5.473   4.031  15.925  0.00  0.00    +0.000 A 
ATOM     15  C   UNL     1       4.564   3.599  16.886  0.00  0.00    +0.000 A 
ATOM     16  C   UNL     1       3.821   4.533  17.616  0.00  0.00    +0.000 A 
ENDBRANCH   6  11
BRANCH   1  17
ATOM     17  C   UNL     1       0.103  11.812  19.977  0.00  0.00    +0.000 C 
BRANCH  17  19
ATOM     18  O   UNL     1      -0.780  13.045  18.104  0.00  0.00    +0.000 OA
ATOM     19  C   UNL     1      -0.937  12.112  18.888  0.00  0.00    +0.000 C 
ATOM     20  N   UNL     1      -2.060  11.319  18.887  0.00  0.00    +0.000 N 
ATOM     21  H   UNL     1      -2.057  10.483  19.454  0.00  0.00    +0.000 HD
BRANCH  20  22
ATOM     22  C   UNL     1      -3.053  11.365  17.829  0.00  0.00    +0.000 C 
BRANCH  22  23
ATOM     23  C   UNL     1      -4.405  11.597  18.457  0.00  0.00    +0.000 A 
ATOM     24  C   UNL     1      -5.533  10.875  18.005  0.00  0.00    +0.000 A 
ATOM     25  C   UNL     1      -6.735  10.899  18.722  0.00  0.00    +0.000 A 
ATOM     26  C   UNL     1      -6.759  11.616  19.896  0.00  0.00    +0.000 A 
ATOM     27  C   UNL     1      -5.677  12.355  20.319  0.00  0.00    +0.000 A 
ATOM     28  C   UNL     1      -4.499  12.393  19.611  0.00  0.00    +0.000 A 
ATOM     29  O   UNL     1      -5.891  12.938  21.530  0.00  0.00    +0.000 OA
ATOM     30  C   UNL     1      -7.104  12.261  21.917  0.00  0.00    +0.000 C 
ATOM     31  O   UNL     1      -7.777  11.641  20.801  0.00  0.00    +0.000 OA
ENDBRANCH  22  23
ENDBRANCH  20  22
ENDBRANCH  17  19
ENDBRANCH   1  17
TORSDOF 5
ENDMDL
MODEL 5
REMARK VINA RESULT:      -7.8      3.690      5.919
REMARK  Name = 
REMARK  5 active torsions:
REMARK  status: ('A' for Active; 'I' for Inactive)
REMARK    1  A    between atoms: C_2  and  C_3
REMARK    2  A    between atoms: C_3  and  N_4
REMARK    3  A    between atoms: C_9  and  C_10
REMARK    4  A    between atoms: N_20  and  C_21
REMARK    5  A    between atoms: C_21  and  C_22
REMARK                            x       y       z     vdW  Elec       q    Type
REMARK                         _______ _______ _______ _____ _____    ______ ____
ROOT
ATOM      1  N   UNL     1       0.924   9.421  19.500  0.00  0.00    +0.000 N 
ATOM      2  C   UNL     1       0.912   8.490  20.524  0.00  0.00    +0.000 A 
ATOM      3  N   UNL     1       1.627   7.413  20.569  0.00  0.00    +0.000 NA
ATOM      4  C   UNL     1       2.449   7.245  19.503  0.00  0.00    +0.000 A 
ATOM      5  S   UNL     1       3.455   5.885  19.359  0.00  0.00    +0.000 S 
ATOM      6  C   UNL     1       4.119   6.421  17.862  0.00  0.00    +0.000 A 
ATOM      7  C   UNL     1       3.543   7.626  17.485  0.00  0.00    +0.000 A 
ATOM      8  C   UNL     1       2.582   8.091  18.428  0.00  0.00    +0.000 A 
ATOM      9  C   UNL     1       1.762   9.290  18.392  0.00  0.00    +0.000 A 
ATOM     10  O   UNL     1       1.799  10.080  17.459  0.00  0.00    +0.000 OA
ENDROOT
BRANCH   6  11
ATOM     11  C   UNL     1       5.121   5.603  17.152  0.00  0.00    +0.000 A 
ATOM     12  C   UNL     1       6.322   5.249  17.788  0.00  0.00    +0.000 A 
ATOM     13  C   UNL     1       7.296   4.498  17.120  0.00  0.00    +0.000 A 
ATOM     14  C   UNL     1       7.082   4.087  15.808  0.00  0.00    +0.000 A 
ATOM     15  C   UNL     1       5.893   4.414  15.165  0.00  0.00    +0.000 A 
ATOM     16  C   UNL     1       4.918   5.160  15.835  0.00  0.00    +0.000 A 
ENDBRANCH   6  11
BRANCH   1  17
ATOM     17  C   UNL     1       0.038  10.577  19.571  0.00  0.00    +0.000 C 
BRANCH  17  19
ATOM     18  O   UNL     1       0.075  12.029  21.495  0.00  0.00    +0.000 OA
ATOM     19  C   UNL     1       0.591  11.732  20.419  0.00  0.00    +0.000 C 
ATOM     20  N   UNL     1       1.642  12.433  19.878  0.00  0.00    +0.000 N 
ATOM     21  H   UNL     1       2.111  12.046  19.071  0.00  0.00    +0.000 HD
BRANCH  20  22
ATOM     22  C   UNL     1       2.379  13.439  20.620  0.00  0.00    +0.000 C 
BRANCH  22  23
ATOM     23  C   UNL     1       2.645  14.606  19.701  0.00  0.00    +0.000 A 
ATOM     24  C   UNL     1       3.584  14.486  18.651  0.00  0.00    +0.000 A 
ATOM     25  C   UNL     1       3.674  15.462  17.653  0.00  0.00    +0.000 A 
ATOM     26  C   UNL     1       2.789  16.515  17.715  0.00  0.00    +0.000 A 
ATOM     27  C   UNL     1       1.902  16.659  18.758  0.00  0.00    +0.000 A 
ATOM     28  C   UNL     1       1.826  15.744  19.781  0.00  0.00    +0.000 A 
ATOM     29  O   UNL     1       1.083  17.734  18.595  0.00  0.00    +0.000 OA
ATOM     30  C   UNL     1       1.384  18.065  17.224  0.00  0.00    +0.000 C 
ATOM     31  O   UNL     1       2.621  17.479  16.767  0.00  0.00    +0.000 OA
ENDBRANCH  22  23
ENDBRANCH  20  22
ENDBRANCH  17  19
ENDBRANCH   1  17
TORSDOF 5
ENDMDL
MODEL 6
REMARK VINA RESULT:      -7.7      0.830      1.219
REMARK  Name = 
REMARK  5 active torsions:
REMARK  status: ('A' for Active; 'I' for Inactive)
REMARK    1  A    between atoms: C_2  and  C_3
REMARK    2  A    between atoms: C_3  and  N_4
REMARK    3  A    between atoms: C_9  and  C_10
REMARK    4  A    between atoms: N_20  and  C_21
REMARK    5  A    between atoms: C_21  and  C_22
REMARK                            x       y       z     vdW  Elec       q    Type
REMARK                         _______ _______ _______ _____ _____    ______ ____
ROOT
ATOM      1  N   UNL     1       0.609  11.550  20.664  0.00  0.00    +0.000 N 
ATOM      2  C   UNL     1       0.850  11.699  19.309  0.00  0.00    +0.000 A 
ATOM      3  N   UNL     1       1.267  10.769  18.514  0.00  0.00    +0.000 NA
ATOM      4  C   UNL     1       1.449   9.565  19.112  0.00  0.00    +0.000 A 
ATOM      5  S   UNL     1       2.013   8.216  18.247  0.00  0.00    +0.000 S 
ATOM      6  C   UNL     1       1.944   7.188  19.628  0.00  0.00    +0.000 A 
ATOM      7  C   UNL     1       1.509   7.900  20.736  0.00  0.00    +0.000 A 
ATOM      8  C   UNL     1       1.232   9.265  20.436  0.00  0.00    +0.000 A 
ATOM      9  C   UNL     1       0.773  10.327  21.314  0.00  0.00    +0.000 A 
ATOM     10  O   UNL     1       0.584  10.151  22.509  0.00  0.00    +0.000 OA
ENDROOT
BRANCH   6  11
ATOM     11  C   UNL     1       2.359   5.775  19.530  0.00  0.00    +0.000 A 
ATOM     12  C   UNL     1       3.303   5.381  18.569  0.00  0.00    +0.000 A 
ATOM     13  C   UNL     1       3.686   4.041  18.443  0.00  0.00    +0.000 A 
ATOM     14  C   UNL     1       3.134   3.075  19.279  0.00  0.00    +0.000 A 
ATOM     15  C   UNL     1       2.208   3.447  20.249  0.00  0.00    +0.000 A 
ATOM     16  C   UNL     1       1.829   4.787  20.377  0.00  0.00    +0.000 A 
ENDBRANCH   6  11
BRANCH   1  17
ATOM     17  C   UNL     1       0.168  12.701  21.445  0.00  0.00    +0.000 C 
BRANCH  17  19
ATOM     18  O   UNL     1      -1.175  14.475  20.519  0.00  0.00    +0.000 OA
ATOM     19  C   UNL     1      -1.145  13.323  20.947  0.00  0.00    +0.000 C 
ATOM     20  N   UNL     1      -2.269  12.542  21.063  0.00  0.00    +0.000 N 
ATOM     21  H   UNL     1      -2.151  11.562  21.277  0.00  0.00    +0.000 HD
BRANCH  20  22
ATOM     22  C   UNL     1      -3.549  12.917  20.491  0.00  0.00    +0.000 C 
BRANCH  22  23
ATOM     23  C   UNL     1      -3.791  12.065  19.270  0.00  0.00    +0.000 A 
ATOM     24  C   UNL     1      -5.082  11.992  18.696  0.00  0.00    +0.000 A 
ATOM     25  C   UNL     1      -5.277  11.405  17.442  0.00  0.00    +0.000 A 
ATOM     26  C   UNL     1      -4.164  10.942  16.777  0.00  0.00    +0.000 A 
ATOM     27  C   UNL     1      -2.912  10.973  17.348  0.00  0.00    +0.000 A 
ATOM     28  C   UNL     1      -2.695  11.496  18.601  0.00  0.00    +0.000 A 
ATOM     29  O   UNL     1      -1.947  10.522  16.501  0.00  0.00    +0.000 OA
ATOM     30  C   UNL     1      -2.703  10.469  15.274  0.00  0.00    +0.000 C 
ATOM     31  O   UNL     1      -4.128  10.477  15.497  0.00  0.00    +0.000 OA
ENDBRANCH  22  23
ENDBRANCH  20  22
ENDBRANCH  17  19
ENDBRANCH   1  17
TORSDOF 5
ENDMDL
MODEL 7
REMARK VINA RESULT:      -7.7      6.174      9.248
REMARK  Name = 
REMARK  5 active torsions:
REMARK  status: ('A' for Active; 'I' for Inactive)
REMARK    1  A    between atoms: C_2  and  C_3
REMARK    2  A    between atoms: C_3  and  N_4
REMARK    3  A    between atoms: C_9  and  C_10
REMARK    4  A    between atoms: N_20  and  C_21
REMARK    5  A    between atoms: C_21  and  C_22
REMARK                            x       y       z     vdW  Elec       q    Type
REMARK                         _______ _______ _______ _____ _____    ______ ____
ROOT
ATOM      1  N   UNL     1       6.747   5.523  17.816  0.00  0.00    +0.000 N 
ATOM      2  C   UNL     1       6.264   6.301  16.779  0.00  0.00    +0.000 A 
ATOM      3  N   UNL     1       6.559   7.543  16.572  0.00  0.00    +0.000 NA
ATOM      4  C   UNL     1       7.431   8.066  17.469  0.00  0.00    +0.000 A 
ATOM      5  S   UNL     1       7.930   9.688  17.387  0.00  0.00    +0.000 S 
ATOM      6  C   UNL     1       8.959   9.536  18.761  0.00  0.00    +0.000 A 
ATOM      7  C   UNL     1       8.888   8.249  19.274  0.00  0.00    +0.000 A 
ATOM      8  C   UNL     1       8.006   7.412  18.533  0.00  0.00    +0.000 A 
ATOM      9  C   UNL     1       7.653   6.020  18.753  0.00  0.00    +0.000 A 
ATOM     10  O   UNL     1       8.098   5.374  19.692  0.00  0.00    +0.000 OA
ENDROOT
BRANCH   6  11
ATOM     11  C   UNL     1       9.725  10.696  19.253  0.00  0.00    +0.000 A 
ATOM     12  C   UNL     1       9.567  11.137  20.577  0.00  0.00    +0.000 A 
ATOM     13  C   UNL     1      10.264  12.253  21.053  0.00  0.00    +0.000 A 
ATOM     14  C   UNL     1      11.132  12.944  20.213  0.00  0.00    +0.000 A 
ATOM     15  C   UNL     1      11.315  12.515  18.902  0.00  0.00    +0.000 A 
ATOM     16  C   UNL     1      10.622  11.396  18.429  0.00  0.00    +0.000 A 
ENDBRANCH   6  11
BRANCH   1  17
ATOM     17  C   UNL     1       6.302   4.140  17.943  0.00  0.00    +0.000 C 
BRANCH  17  19
ATOM     18  O   UNL     1       4.916   3.133  19.639  0.00  0.00    +0.000 OA
ATOM     19  C   UNL     1       5.004   3.977  18.749  0.00  0.00    +0.000 C 
ATOM     20  N   UNL     1       3.953   4.780  18.376  0.00  0.00    +0.000 N 
ATOM     21  H   UNL     1       4.137   5.548  17.747  0.00  0.00    +0.000 HD
BRANCH  20  22
ATOM     22  C   UNL     1       2.721   4.864  19.138  0.00  0.00    +0.000 C 
BRANCH  22  23
ATOM     23  C   UNL     1       2.413   6.321  19.382  0.00  0.00    +0.000 A 
ATOM     24  C   UNL     1       2.484   7.251  18.320  0.00  0.00    +0.000 A 
ATOM     25  C   UNL     1       1.980   8.548  18.466  0.00  0.00    +0.000 A 
ATOM     26  C   UNL     1       1.380   8.864  19.665  0.00  0.00    +0.000 A 
ATOM     27  C   UNL     1       1.345   7.976  20.716  0.00  0.00    +0.000 A 
ATOM     28  C   UNL     1       1.878   6.712  20.621  0.00  0.00    +0.000 A 
ATOM     29  O   UNL     1       0.657   8.466  21.783  0.00  0.00    +0.000 OA
ATOM     30  C   UNL     1       0.053   9.625  21.173  0.00  0.00    +0.000 C 
ATOM     31  O   UNL     1       0.705  10.013  19.946  0.00  0.00    +0.000 OA
ENDBRANCH  22  23
ENDBRANCH  20  22
ENDBRANCH  17  19
ENDBRANCH   1  17
TORSDOF 5
ENDMDL
MODEL 8
REMARK VINA RESULT:      -7.6      2.408      3.158
REMARK  Name = 
REMARK  5 active torsions:
REMARK  status: ('A' for Active; 'I' for Inactive)
REMARK    1  A    between atoms: C_2  and  C_3
REMARK    2  A    between atoms: C_3  and  N_4
REMARK    3  A    between atoms: C_9  and  C_10
REMARK    4  A    between atoms: N_20  and  C_21
REMARK    5  A    between atoms: C_21  and  C_22
REMARK                            x       y       z     vdW  Elec       q    Type
REMARK                         _______ _______ _______ _____ _____    ______ ____
ROOT
ATOM      1  N   UNL     1      -0.667  11.976  20.728  0.00  0.00    +0.000 N 
ATOM      2  C   UNL     1      -0.645  11.254  21.909  0.00  0.00    +0.000 A 
ATOM      3  N   UNL     1      -0.083  10.101  22.073  0.00  0.00    +0.000 NA
ATOM      4  C   UNL     1       0.533   9.617  20.965  0.00  0.00    +0.000 A 
ATOM      5  S   UNL     1       1.311   8.108  20.965  0.00  0.00    +0.000 S 
ATOM      6  C   UNL     1       1.799   8.258  19.319  0.00  0.00    +0.000 A 
ATOM      7  C   UNL     1       1.340   9.454  18.789  0.00  0.00    +0.000 A 
ATOM      8  C   UNL     1       0.609  10.228  19.736  0.00  0.00    +0.000 A 
ATOM      9  C   UNL     1      -0.037  11.519  19.570  0.00  0.00    +0.000 A 
ATOM     10  O   UNL     1      -0.041  12.115  18.502  0.00  0.00    +0.000 OA
ENDROOT
BRANCH   6  11
ATOM     11  C   UNL     1       2.559   7.177  18.663  0.00  0.00    +0.000 A 
ATOM     12  C   UNL     1       2.364   5.841  19.049  0.00  0.00    +0.000 A 
ATOM     13  C   UNL     1       3.097   4.806  18.458  0.00  0.00    +0.000 A 
ATOM     14  C   UNL     1       4.033   5.091  17.468  0.00  0.00    +0.000 A 
ATOM     15  C   UNL     1       4.231   6.406  17.060  0.00  0.00    +0.000 A 
ATOM     16  C   UNL     1       3.494   7.439  17.649  0.00  0.00    +0.000 A 
ENDBRANCH   6  11
BRANCH   1  17
ATOM     17  C   UNL     1      -1.367  13.254  20.682  0.00  0.00    +0.000 C 
BRANCH  17  19
ATOM     18  O   UNL     1      -3.197  12.611  22.113  0.00  0.00    +0.000 OA
ATOM     19  C   UNL     1      -2.851  13.164  21.071  0.00  0.00    +0.000 C 
ATOM     20  N   UNL     1      -3.748  13.681  20.168  0.00  0.00    +0.000 N 
ATOM     21  H   UNL     1      -3.393  14.251  19.413  0.00  0.00    +0.000 HD
BRANCH  20  22
ATOM     22  C   UNL     1      -5.163  13.822  20.459  0.00  0.00    +0.000 C 
BRANCH  22  23
ATOM     23  C   UNL     1      -5.869  12.571  19.996  0.00  0.00    +0.000 A 
ATOM     24  C   UNL     1      -5.499  11.954  18.779  0.00  0.00    +0.000 A 
ATOM     25  C   UNL     1      -5.970  10.678  18.449  0.00  0.00    +0.000 A 
ATOM     26  C   UNL     1      -6.769  10.039  19.371  0.00  0.00    +0.000 A 
ATOM     27  C   UNL     1      -7.166  10.652  20.538  0.00  0.00    +0.000 A 
ATOM     28  C   UNL     1      -6.762  11.925  20.866  0.00  0.00    +0.000 A 
ATOM     29  O   UNL     1      -7.902   9.827  21.330  0.00  0.00    +0.000 OA
ATOM     30  C   UNL     1      -7.683   8.574  20.650  0.00  0.00    +0.000 C 
ATOM     31  O   UNL     1      -7.202   8.749  19.301  0.00  0.00    +0.000 OA
ENDBRANCH  22  23
ENDBRANCH  20  22
ENDBRANCH  17  19
ENDBRANCH   1  17
TORSDOF 5
ENDMDL
MODEL 9
REMARK VINA RESULT:      -7.6      2.708      4.751
REMARK  Name = 
REMARK  5 active torsions:
REMARK  status: ('A' for Active; 'I' for Inactive)
REMARK    1  A    between atoms: C_2  and  C_3
REMARK    2  A    between atoms: C_3  and  N_4
REMARK    3  A    between atoms: C_9  and  C_10
REMARK    4  A    between atoms: N_20  and  C_21
REMARK    5  A    between atoms: C_21  and  C_22
REMARK                            x       y       z     vdW  Elec       q    Type
REMARK                         _______ _______ _______ _____ _____    ______ ____
ROOT
ATOM      1  N   UNL     1       1.035   9.585  20.048  0.00  0.00    +0.000 N 
ATOM      2  C   UNL     1       0.972   8.546  20.960  0.00  0.00    +0.000 A 
ATOM      3  N   UNL     1       1.529   7.388  20.819  0.00  0.00    +0.000 NA
ATOM      4  C   UNL     1       2.232   7.244  19.667  0.00  0.00    +0.000 A 
ATOM      5  S   UNL     1       3.021   5.791  19.280  0.00  0.00    +0.000 S 
ATOM      6  C   UNL     1       3.633   6.413  17.794  0.00  0.00    +0.000 A 
ATOM      7  C   UNL     1       3.206   7.720  17.609  0.00  0.00    +0.000 A 
ATOM      8  C   UNL     1       2.398   8.189  18.684  0.00  0.00    +0.000 A 
ATOM      9  C   UNL     1       1.756   9.481  18.858  0.00  0.00    +0.000 A 
ATOM     10  O   UNL     1       1.830  10.367  18.018  0.00  0.00    +0.000 OA
ENDROOT
BRANCH   6  11
ATOM     11  C   UNL     1       4.450   5.563  16.908  0.00  0.00    +0.000 A 
ATOM     12  C   UNL     1       5.203   6.140  15.871  0.00  0.00    +0.000 A 
ATOM     13  C   UNL     1       5.961   5.347  15.004  0.00  0.00    +0.000 A 
ATOM     14  C   UNL     1       5.981   3.964  15.160  0.00  0.00    +0.000 A 
ATOM     15  C   UNL     1       5.256   3.373  16.190  0.00  0.00    +0.000 A 
ATOM     16  C   UNL     1       4.502   4.168  17.060  0.00  0.00    +0.000 A 
ENDBRANCH   6  11
BRANCH   1  17
ATOM     17  C   UNL     1       0.330  10.830  20.329  0.00  0.00    +0.000 C 
BRANCH  17  19
ATOM     18  O   UNL     1      -1.500   9.993  19.002  0.00  0.00    +0.000 OA
ATOM     19  C   UNL     1      -1.043  10.934  19.647  0.00  0.00    +0.000 C 
ATOM     20  N   UNL     1      -1.683  12.145  19.754  0.00  0.00    +0.000 N 
ATOM     21  H   UNL     1      -1.327  12.819  20.418  0.00  0.00    +0.000 HD
BRANCH  20  22
ATOM     22  C   UNL     1      -3.050  12.353  19.310  0.00  0.00    +0.000 C 
BRANCH  22  23
ATOM     23  C   UNL     1      -3.903  12.642  20.520  0.00  0.00    +0.000 A 
ATOM     24  C   UNL     1      -5.313  12.587  20.428  0.00  0.00    +0.000 A 
ATOM     25  C   UNL     1      -6.110  12.619  21.577  0.00  0.00    +0.000 A 
ATOM     26  C   UNL     1      -5.466  12.664  22.793  0.00  0.00    +0.000 A 
ATOM     27  C   UNL     1      -4.097  12.760  22.888  0.00  0.00    +0.000 A 
ATOM     28  C   UNL     1      -3.289  12.784  21.776  0.00  0.00    +0.000 A 
ATOM     29  O   UNL     1      -3.665  12.732  24.179  0.00  0.00    +0.000 OA
ATOM     30  C   UNL     1      -4.887  12.341  24.837  0.00  0.00    +0.000 C 
ATOM     31  O   UNL     1      -6.055  12.553  24.017  0.00  0.00    +0.000 OA
ENDBRANCH  22  23
ENDBRANCH  20  22
ENDBRANCH  17  19
ENDBRANCH   1  17
TORSDOF 5
ENDMDL
