MODEL 1
REMARK VINA RESULT:      -8.5      0.000      0.000
REMARK  Name = 
REMARK  4 active torsions:
REMARK  status: ('A' for Active; 'I' for Inactive)
REMARK    1  A    between atoms: N_3  and  C_4
REMARK    2  A    between atoms: C_5  and  C_6
REMARK    3  A    between atoms: C_22  and  C_23
REMARK    4  A    between atoms: C_23  and  O_24
REMARK                            x       y       z     vdW  Elec       q    Type
REMARK                         _______ _______ _______ _____ _____    ______ ____
ROOT
ATOM      1  C   UNL     1       3.119   5.686  19.085  0.00  0.00    +0.000 A 
ATOM      2  C   UNL     1       2.294   6.579  19.751  0.00  0.00    +0.000 A 
ATOM      3  N   UNL     1       1.758   5.869  20.808  0.00  0.00    +0.000 N 
ATOM      4  C   UNL     1       2.242   4.579  20.855  0.00  0.00    +0.000 A 
ATOM      5  C   UNL     1       1.998   3.555  21.768  0.00  0.00    +0.000 A 
ATOM      6  C   UNL     1       2.679   2.345  21.584  0.00  0.00    +0.000 A 
ATOM      7  C   UNL     1       3.547   2.170  20.509  0.00  0.00    +0.000 A 
ATOM      8  C   UNL     1       3.759   3.200  19.586  0.00  0.00    +0.000 A 
ATOM      9  C   UNL     1       3.099   4.435  19.765  0.00  0.00    +0.000 A 
ATOM     10  H   UNL     1       1.089   6.244  21.464  0.00  0.00    +0.000 HD
ENDROOT
BRANCH   1  13
ATOM     11  O   UNL     1       5.824   5.252  18.870  0.00  0.00    +0.000 OA
ATOM     12  C   UNL     1       5.185   5.677  17.910  0.00  0.00    +0.000 C 
ATOM     13  N   UNL     1       3.829   5.974  17.925  0.00  0.00    +0.000 N 
ATOM     14  N   UNL     1       5.770   5.848  16.672  0.00  0.00    +0.000 N 
ATOM     15  C   UNL     1       5.171   6.409  15.463  0.00  0.00    +0.000 C 
ATOM     16  C   UNL     1       5.898   5.688  14.367  0.00  0.00    +0.000 C 
ATOM     17  C   UNL     1       5.985   4.171  14.391  0.00  0.00    +0.000 C 
ATOM     18  C   UNL     1       7.095   5.029  14.969  0.00  0.00    +0.000 C 
ATOM     19  C   UNL     1       7.118   5.351  16.432  0.00  0.00    +0.000 C 
ATOM     20  H   UNL     1       3.404   5.528  17.126  0.00  0.00    +0.000 HD
BRANCH  17  21
ATOM     21  C   UNL     1       6.218   3.365  13.165  0.00  0.00    +0.000 C 
BRANCH  21  22
ATOM     22  O   UNL     1       5.046   3.384  12.365  0.00  0.00    +0.000 OA
ATOM     23  H   UNL     1       4.323   3.025  12.904  0.00  0.00    +0.000 HD
ENDBRANCH  21  22
ENDBRANCH  17  21
ENDBRANCH   1  13
BRANCH   2  24
ATOM     24  C   UNL     1       1.918   7.971  19.475  0.00  0.00    +0.000 A 
ATOM     25  C   UNL     1       2.184   8.557  18.227  0.00  0.00    +0.000 A 
ATOM     26  C   UNL     1       1.794   9.869  17.947  0.00  0.00    +0.000 A 
ATOM     27  C   UNL     1       1.122  10.611  18.914  0.00  0.00    +0.000 A 
ATOM     28  C   UNL     1       0.862  10.051  20.162  0.00  0.00    +0.000 A 
ATOM     29  C   UNL     1       1.266   8.745  20.445  0.00  0.00    +0.000 A 
ENDBRANCH   2  24
TORSDOF 4
ENDMDL
MODEL 2
REMARK VINA RESULT:      -8.4      3.086      7.208
REMARK  Name = 
REMARK  4 active torsions:
REMARK  status: ('A' for Active; 'I' for Inactive)
REMARK    1  A    between atoms: N_3  and  C_4
REMARK    2  A    between atoms: C_5  and  C_6
REMARK    3  A    between atoms: C_22  and  C_23
REMARK    4  A    between atoms: C_23  and  O_24
REMARK                            x       y       z     vdW  Elec       q    Type
REMARK                         _______ _______ _______ _____ _____    ______ ____
ROOT
ATOM      1  C   UNL     1       5.538   4.658  15.284  0.00  0.00    +0.000 A 
ATOM      2  C   UNL     1       6.747   5.188  15.708  0.00  0.00    +0.000 A 
ATOM      3  N   UNL     1       7.620   5.005  14.653  0.00  0.00    +0.000 N 
ATOM      4  C   UNL     1       6.999   4.418  13.572  0.00  0.00    +0.000 A 
ATOM      5  C   UNL     1       7.495   4.100  12.308  0.00  0.00    +0.000 A 
ATOM      6  C   UNL     1       6.602   3.544  11.383  0.00  0.00    +0.000 A 
ATOM      7  C   UNL     1       5.276   3.297  11.728  0.00  0.00    +0.000 A 
ATOM      8  C   UNL     1       4.803   3.598  13.010  0.00  0.00    +0.000 A 
ATOM      9  C   UNL     1       5.680   4.178  13.951  0.00  0.00    +0.000 A 
ATOM     10  H   UNL     1       8.596   5.263  14.670  0.00  0.00    +0.000 HD
ENDROOT
BRANCH   1  13
ATOM     11  O   UNL     1       4.658   2.315  16.419  0.00  0.00    +0.000 OA
ATOM     12  C   UNL     1       4.054   3.367  16.617  0.00  0.00    +0.000 C 
ATOM     13  N   UNL     1       4.385   4.594  16.058  0.00  0.00    +0.000 N 
ATOM     14  N   UNL     1       2.989   3.434  17.493  0.00  0.00    +0.000 N 
ATOM     15  C   UNL     1       2.129   4.580  17.778  0.00  0.00    +0.000 C 
ATOM     16  C   UNL     1       1.729   4.348  19.206  0.00  0.00    +0.000 C 
ATOM     17  C   UNL     1       2.796   4.075  20.252  0.00  0.00    +0.000 C 
ATOM     18  C   UNL     1       2.075   2.937  19.553  0.00  0.00    +0.000 C 
ATOM     19  C   UNL     1       2.676   2.292  18.342  0.00  0.00    +0.000 C 
ATOM     20  H   UNL     1       4.413   5.278  16.800  0.00  0.00    +0.000 HD
BRANCH  17  21
ATOM     21  C   UNL     1       2.578   4.327  21.700  0.00  0.00    +0.000 C 
BRANCH  21  22
ATOM     22  O   UNL     1       2.343   3.093  22.359  0.00  0.00    +0.000 OA
ATOM     23  H   UNL     1       3.205   2.745  22.636  0.00  0.00    +0.000 HD
ENDBRANCH  21  22
ENDBRANCH  17  21
ENDBRANCH   1  13
BRANCH   2  24
ATOM     24  C   UNL     1       7.176   5.775  16.984  0.00  0.00    +0.000 A 
ATOM     25  C   UNL     1       7.275   4.988  18.143  0.00  0.00    +0.000 A 
ATOM     26  C   UNL     1       7.719   5.534  19.351  0.00  0.00    +0.000 A 
ATOM     27  C   UNL     1       8.079   6.878  19.410  0.00  0.00    +0.000 A 
ATOM     28  C   UNL     1       7.973   7.676  18.274  0.00  0.00    +0.000 A 
ATOM     29  C   UNL     1       7.515   7.131  17.073  0.00  0.00    +0.000 A 
ENDBRANCH   2  24
TORSDOF 4
ENDMDL
MODEL 3
REMARK VINA RESULT:      -8.3      3.832      6.864
REMARK  Name = 
REMARK  4 active torsions:
REMARK  status: ('A' for Active; 'I' for Inactive)
REMARK    1  A    between atoms: N_3  and  C_4
REMARK    2  A    between atoms: C_5  and  C_6
REMARK    3  A    between atoms: C_22  and  C_23
REMARK    4  A    between atoms: C_23  and  O_24
REMARK                            x       y       z     vdW  Elec       q    Type
REMARK                         _______ _______ _______ _____ _____    ______ ____
ROOT
ATOM      1  C   UNL     1      -0.129  10.884  18.355  0.00  0.00    +0.000 A 
ATOM      2  C   UNL     1       0.038  12.200  18.760  0.00  0.00    +0.000 A 
ATOM      3  N   UNL     1      -1.216  12.775  18.674  0.00  0.00    +0.000 N 
ATOM      4  C   UNL     1      -2.169  11.865  18.269  0.00  0.00    +0.000 A 
ATOM      5  C   UNL     1      -3.544  12.013  18.096  0.00  0.00    +0.000 A 
ATOM      6  C   UNL     1      -4.275  10.880  17.715  0.00  0.00    +0.000 A 
ATOM      7  C   UNL     1      -3.641   9.661  17.494  0.00  0.00    +0.000 A 
ATOM      8  C   UNL     1      -2.256   9.538  17.646  0.00  0.00    +0.000 A 
ATOM      9  C   UNL     1      -1.502  10.660  18.049  0.00  0.00    +0.000 A 
ATOM     10  H   UNL     1      -1.413  13.743  18.877  0.00  0.00    +0.000 HD
ENDROOT
BRANCH   1  13
ATOM     11  O   UNL     1       0.643   9.300  20.464  0.00  0.00    +0.000 OA
ATOM     12  C   UNL     1       1.176   9.173  19.363  0.00  0.00    +0.000 C 
ATOM     13  N   UNL     1       0.894   9.950  18.248  0.00  0.00    +0.000 N 
ATOM     14  N   UNL     1       2.093   8.172  19.117  0.00  0.00    +0.000 N 
ATOM     15  C   UNL     1       2.862   7.937  17.898  0.00  0.00    +0.000 C 
ATOM     16  C   UNL     1       3.048   6.448  17.903  0.00  0.00    +0.000 C 
ATOM     17  C   UNL     1       1.844   5.539  18.083  0.00  0.00    +0.000 C 
ATOM     18  C   UNL     1       2.699   5.950  19.267  0.00  0.00    +0.000 C 
ATOM     19  C   UNL     1       2.310   7.127  20.108  0.00  0.00    +0.000 C 
ATOM     20  H   UNL     1       0.732   9.330  17.469  0.00  0.00    +0.000 HD
BRANCH  17  21
ATOM     21  C   UNL     1       1.832   4.129  17.616  0.00  0.00    +0.000 C 
BRANCH  21  22
ATOM     22  O   UNL     1       1.101   3.339  18.540  0.00  0.00    +0.000 OA
ATOM     23  H   UNL     1       1.039   2.444  18.169  0.00  0.00    +0.000 HD
ENDBRANCH  21  22
ENDBRANCH  17  21
ENDBRANCH   1  13
BRANCH   2  24
ATOM     24  C   UNL     1       1.225  12.971  19.149  0.00  0.00    +0.000 A 
ATOM     25  C   UNL     1       2.153  13.401  18.188  0.00  0.00    +0.000 A 
ATOM     26  C   UNL     1       3.265  14.167  18.548  0.00  0.00    +0.000 A 
ATOM     27  C   UNL     1       3.457  14.520  19.881  0.00  0.00    +0.000 A 
ATOM     28  C   UNL     1       2.554  14.091  20.851  0.00  0.00    +0.000 A 
ATOM     29  C   UNL     1       1.452  13.313  20.489  0.00  0.00    +0.000 A 
ENDBRANCH   2  24
TORSDOF 4
ENDMDL
MODEL 4
REMARK VINA RESULT:      -8.1      8.290     10.674
REMARK  Name = 
REMARK  4 active torsions:
REMARK  status: ('A' for Active; 'I' for Inactive)
REMARK    1  A    between atoms: N_3  and  C_4
REMARK    2  A    between atoms: C_5  and  C_6
REMARK    3  A    between atoms: C_22  and  C_23
REMARK    4  A    between atoms: C_23  and  O_24
REMARK                            x       y       z     vdW  Elec       q    Type
REMARK                         _______ _______ _______ _____ _____    ______ ____
ROOT
ATOM      1  C   UNL     1      -4.371  12.764  20.033  0.00  0.00    +0.000 A 
ATOM      2  C   UNL     1      -4.697  11.791  19.100  0.00  0.00    +0.000 A 
ATOM      3  N   UNL     1      -5.925  11.296  19.496  0.00  0.00    +0.000 N 
ATOM      4  C   UNL     1      -6.400  11.944  20.616  0.00  0.00    +0.000 A 
ATOM      5  C   UNL     1      -7.599  11.789  21.310  0.00  0.00    +0.000 A 
ATOM      6  C   UNL     1      -7.831  12.635  22.402  0.00  0.00    +0.000 A 
ATOM      7  C   UNL     1      -6.882  13.577  22.791  0.00  0.00    +0.000 A 
ATOM      8  C   UNL     1      -5.672  13.700  22.099  0.00  0.00    +0.000 A 
ATOM      9  C   UNL     1      -5.427  12.872  20.983  0.00  0.00    +0.000 A 
ATOM     10  H   UNL     1      -6.414  10.548  19.029  0.00  0.00    +0.000 HD
ENDROOT
BRANCH   1  13
ATOM     11  O   UNL     1      -2.260  12.126  21.673  0.00  0.00    +0.000 OA
ATOM     12  C   UNL     1      -2.170  13.059  20.878  0.00  0.00    +0.000 C 
ATOM     13  N   UNL     1      -3.188  13.493  20.039  0.00  0.00    +0.000 N 
ATOM     14  N   UNL     1      -0.985  13.744  20.701  0.00  0.00    +0.000 N 
ATOM     15  C   UNL     1      -0.737  14.912  19.859  0.00  0.00    +0.000 C 
ATOM     16  C   UNL     1       0.703  14.744  19.473  0.00  0.00    +0.000 C 
ATOM     17  C   UNL     1       1.178  13.425  18.890  0.00  0.00    +0.000 C 
ATOM     18  C   UNL     1       1.300  13.714  20.374  0.00  0.00    +0.000 C 
ATOM     19  C   UNL     1       0.237  13.253  21.324  0.00  0.00    +0.000 C 
ATOM     20  H   UNL     1      -2.811  13.571  19.106  0.00  0.00    +0.000 HD
BRANCH  17  21
ATOM     21  C   UNL     1       2.393  13.318  18.042  0.00  0.00    +0.000 C 
BRANCH  21  22
ATOM     22  O   UNL     1       2.457  12.017  17.479  0.00  0.00    +0.000 OA
ATOM     23  H   UNL     1       3.192  11.552  17.909  0.00  0.00    +0.000 HD
ENDBRANCH  21  22
ENDBRANCH  17  21
ENDBRANCH   1  13
BRANCH   2  24
ATOM     24  C   UNL     1      -3.973  11.248  17.944  0.00  0.00    +0.000 A 
ATOM     25  C   UNL     1      -4.455  11.432  16.638  0.00  0.00    +0.000 A 
ATOM     26  C   UNL     1      -3.750  10.949  15.533  0.00  0.00    +0.000 A 
ATOM     27  C   UNL     1      -2.544  10.281  15.721  0.00  0.00    +0.000 A 
ATOM     28  C   UNL     1      -2.057  10.077  17.010  0.00  0.00    +0.000 A 
ATOM     29  C   UNL     1      -2.772  10.547  18.114  0.00  0.00    +0.000 A 
ENDBRANCH   2  24
TORSDOF 4
ENDMDL
MODEL 5
REMARK VINA RESULT:      -8.0      2.894      6.682
REMARK  Name = 
REMARK  4 active torsions:
REMARK  status: ('A' for Active; 'I' for Inactive)
REMARK    1  A    between atoms: N_3  and  C_4
REMARK    2  A    between atoms: C_5  and  C_6
REMARK    3  A    between atoms: C_22  and  C_23
REMARK    4  A    between atoms: C_23  and  O_24
REMARK                            x       y       z     vdW  Elec       q    Type
REMARK                         _______ _______ _______ _____ _____    ______ ____
ROOT
ATOM      1  C   UNL     1       3.841   6.109  18.293  0.00  0.00    +0.000 A 
ATOM      2  C   UNL     1       3.704   4.805  18.744  0.00  0.00    +0.000 A 
ATOM      3  N   UNL     1       4.966   4.250  18.658  0.00  0.00    +0.000 N 
ATOM      4  C   UNL     1       5.897   5.163  18.210  0.00  0.00    +0.000 A 
ATOM      5  C   UNL     1       7.272   5.033  18.022  0.00  0.00    +0.000 A 
ATOM      6  C   UNL     1       7.977   6.165  17.593  0.00  0.00    +0.000 A 
ATOM      7  C   UNL     1       7.318   7.366  17.341  0.00  0.00    +0.000 A 
ATOM      8  C   UNL     1       5.932   7.469  17.509  0.00  0.00    +0.000 A 
ATOM      9  C   UNL     1       5.205   6.347  17.960  0.00  0.00    +0.000 A 
ATOM     10  H   UNL     1       5.184   3.292  18.890  0.00  0.00    +0.000 HD
ENDROOT
BRANCH   1  13
ATOM     11  O   UNL     1       2.592   7.218  20.475  0.00  0.00    +0.000 OA
ATOM     12  C   UNL     1       2.266   7.550  19.337  0.00  0.00    +0.000 C 
ATOM     13  N   UNL     1       2.799   7.021  18.170  0.00  0.00    +0.000 N 
ATOM     14  N   UNL     1       1.351   8.559  19.114  0.00  0.00    +0.000 N 
ATOM     15  C   UNL     1       0.809   9.015  17.837  0.00  0.00    +0.000 C 
ATOM     16  C   UNL     1       0.533  10.467  18.093  0.00  0.00    +0.000 C 
ATOM     17  C   UNL     1       1.623  11.350  18.675  0.00  0.00    +0.000 C 
ATOM     18  C   UNL     1       0.590  10.690  19.568  0.00  0.00    +0.000 C 
ATOM     19  C   UNL     1       0.888   9.377  20.227  0.00  0.00    +0.000 C 
ATOM     20  H   UNL     1       3.065   7.789  17.572  0.00  0.00    +0.000 HD
BRANCH  17  21
ATOM     21  C   UNL     1       1.634  12.826  18.501  0.00  0.00    +0.000 C 
BRANCH  21  22
ATOM     22  O   UNL     1       2.457  13.159  17.395  0.00  0.00    +0.000 OA
ATOM     23  H   UNL     1       3.361  12.883  17.615  0.00  0.00    +0.000 HD
ENDBRANCH  21  22
ENDBRANCH  17  21
ENDBRANCH   1  13
BRANCH   2  24
ATOM     24  C   UNL     1       2.536   4.026  19.175  0.00  0.00    +0.000 A 
ATOM     25  C   UNL     1       1.698   3.403  18.238  0.00  0.00    +0.000 A 
ATOM     26  C   UNL     1       0.607   2.630  18.645  0.00  0.00    +0.000 A 
ATOM     27  C   UNL     1       0.347   2.464  20.002  0.00  0.00    +0.000 A 
ATOM     28  C   UNL     1       1.159   3.087  20.947  0.00  0.00    +0.000 A 
ATOM     29  C   UNL     1       2.239   3.871  20.536  0.00  0.00    +0.000 A 
ENDBRANCH   2  24
TORSDOF 4
ENDMDL
MODEL 6
REMARK VINA RESULT:      -7.8      2.802      6.182
REMARK  Name = 
REMARK  4 active torsions:
REMARK  status: ('A' for Active; 'I' for Inactive)
REMARK    1  A    between atoms: N_3  and  C_4
REMARK    2  A    between atoms: C_5  and  C_6
REMARK    3  A    between atoms: C_22  and  C_23
REMARK    4  A    between atoms: C_23  and  O_24
REMARK                            x       y       z     vdW  Elec       q    Type
REMARK                         _______ _______ _______ _____ _____    ______ ____
ROOT
ATOM      1  C   UNL     1       3.328   5.294  18.902  0.00  0.00    +0.000 A 
ATOM      2  C   UNL     1       4.620   4.955  18.527  0.00  0.00    +0.000 A 
ATOM      3  N   UNL     1       4.591   3.592  18.299  0.00  0.00    +0.000 N 
ATOM      4  C   UNL     1       3.329   3.070  18.478  0.00  0.00    +0.000 A 
ATOM      5  C   UNL     1       2.857   1.769  18.312  0.00  0.00    +0.000 A 
ATOM      6  C   UNL     1       1.491   1.542  18.525  0.00  0.00    +0.000 A 
ATOM      7  C   UNL     1       0.646   2.578  18.914  0.00  0.00    +0.000 A 
ATOM      8  C   UNL     1       1.143   3.872  19.102  0.00  0.00    +0.000 A 
ATOM      9  C   UNL     1       2.511   4.128  18.872  0.00  0.00    +0.000 A 
ATOM     10  H   UNL     1       5.396   3.043  18.038  0.00  0.00    +0.000 HD
ENDROOT
BRANCH   1  13
ATOM     11  O   UNL     1       3.160   7.360  17.098  0.00  0.00    +0.000 OA
ATOM     12  C   UNL     1       2.829   7.530  18.269  0.00  0.00    +0.000 C 
ATOM     13  N   UNL     1       2.917   6.571  19.269  0.00  0.00    +0.000 N 
ATOM     14  N   UNL     1       2.264   8.715  18.695  0.00  0.00    +0.000 N 
ATOM     15  C   UNL     1       1.890   9.096  20.055  0.00  0.00    +0.000 C 
ATOM     16  C   UNL     1       0.733  10.025  19.833  0.00  0.00    +0.000 C 
ATOM     17  C   UNL     1      -0.424   9.590  18.950  0.00  0.00    +0.000 C 
ATOM     18  C   UNL     1       0.725  10.406  18.389  0.00  0.00    +0.000 C 
ATOM     19  C   UNL     1       1.880   9.726  17.720  0.00  0.00    +0.000 C 
ATOM     20  H   UNL     1       2.030   6.536  19.748  0.00  0.00    +0.000 HD
BRANCH  17  21
ATOM     21  C   UNL     1      -1.783  10.181  19.065  0.00  0.00    +0.000 C 
BRANCH  21  22
ATOM     22  O   UNL     1      -2.537   9.844  17.913  0.00  0.00    +0.000 OA
ATOM     23  H   UNL     1      -2.509  10.608  17.315  0.00  0.00    +0.000 HD
ENDBRANCH  21  22
ENDBRANCH  17  21
ENDBRANCH   1  13
BRANCH   2  24
ATOM     24  C   UNL     1       5.856   5.739  18.422  0.00  0.00    +0.000 A 
ATOM     25  C   UNL     1       6.017   6.701  17.412  0.00  0.00    +0.000 A 
ATOM     26  C   UNL     1       7.178   7.476  17.330  0.00  0.00    +0.000 A 
ATOM     27  C   UNL     1       8.191   7.301  18.268  0.00  0.00    +0.000 A 
ATOM     28  C   UNL     1       8.055   6.342  19.268  0.00  0.00    +0.000 A 
ATOM     29  C   UNL     1       6.901   5.559  19.338  0.00  0.00    +0.000 A 
ENDBRANCH   2  24
TORSDOF 4
ENDMDL
MODEL 7
REMARK VINA RESULT:      -7.8      2.795      7.195
REMARK  Name = 
REMARK  4 active torsions:
REMARK  status: ('A' for Active; 'I' for Inactive)
REMARK    1  A    between atoms: N_3  and  C_4
REMARK    2  A    between atoms: C_5  and  C_6
REMARK    3  A    between atoms: C_22  and  C_23
REMARK    4  A    between atoms: C_23  and  O_24
REMARK                            x       y       z     vdW  Elec       q    Type
REMARK                         _______ _______ _______ _____ _____    ______ ____
ROOT
ATOM      1  C   UNL     1       5.490   4.506  15.037  0.00  0.00    +0.000 A 
ATOM      2  C   UNL     1       6.690   5.076  15.436  0.00  0.00    +0.000 A 
ATOM      3  N   UNL     1       7.556   4.891  14.376  0.00  0.00    +0.000 N 
ATOM      4  C   UNL     1       6.940   4.263  13.315  0.00  0.00    +0.000 A 
ATOM      5  C   UNL     1       7.430   3.927  12.054  0.00  0.00    +0.000 A 
ATOM      6  C   UNL     1       6.543   3.327  11.152  0.00  0.00    +0.000 A 
ATOM      7  C   UNL     1       5.227   3.054  11.517  0.00  0.00    +0.000 A 
ATOM      8  C   UNL     1       4.760   3.373  12.797  0.00  0.00    +0.000 A 
ATOM      9  C   UNL     1       5.631   3.998  13.714  0.00  0.00    +0.000 A 
ATOM     10  H   UNL     1       8.525   5.174  14.377  0.00  0.00    +0.000 HD
ENDROOT
BRANCH   1  13
ATOM     11  O   UNL     1       5.193   2.630  17.023  0.00  0.00    +0.000 OA
ATOM     12  C   UNL     1       4.318   3.470  16.827  0.00  0.00    +0.000 C 
ATOM     13  N   UNL     1       4.346   4.430  15.825  0.00  0.00    +0.000 N 
ATOM     14  N   UNL     1       3.218   3.573  17.654  0.00  0.00    +0.000 N 
ATOM     15  C   UNL     1       2.066   4.460  17.512  0.00  0.00    +0.000 C 
ATOM     16  C   UNL     1       1.648   4.691  18.934  0.00  0.00    +0.000 C 
ATOM     17  C   UNL     1       2.676   5.140  19.959  0.00  0.00    +0.000 C 
ATOM     18  C   UNL     1       2.334   3.672  19.783  0.00  0.00    +0.000 C 
ATOM     19  C   UNL     1       3.165   2.804  18.889  0.00  0.00    +0.000 C 
ATOM     20  H   UNL     1       4.141   5.325  16.244  0.00  0.00    +0.000 HD
BRANCH  17  21
ATOM     21  C   UNL     1       2.302   5.856  21.205  0.00  0.00    +0.000 C 
BRANCH  21  22
ATOM     22  O   UNL     1       2.133   7.235  20.918  0.00  0.00    +0.000 OA
ATOM     23  H   UNL     1       1.182   7.393  20.810  0.00  0.00    +0.000 HD
ENDBRANCH  21  22
ENDBRANCH  17  21
ENDBRANCH   1  13
BRANCH   2  24
ATOM     24  C   UNL     1       7.116   5.704  16.692  0.00  0.00    +0.000 A 
ATOM     25  C   UNL     1       7.428   4.926  17.819  0.00  0.00    +0.000 A 
ATOM     26  C   UNL     1       7.871   5.516  19.005  0.00  0.00    +0.000 A 
ATOM     27  C   UNL     1       8.014   6.899  19.076  0.00  0.00    +0.000 A 
ATOM     28  C   UNL     1       7.696   7.688  17.974  0.00  0.00    +0.000 A 
ATOM     29  C   UNL     1       7.239   7.096  16.795  0.00  0.00    +0.000 A 
ENDBRANCH   2  24
TORSDOF 4
ENDMDL
MODEL 8
REMARK VINA RESULT:      -7.7      4.093      7.122
REMARK  Name = 
REMARK  4 active torsions:
REMARK  status: ('A' for Active; 'I' for Inactive)
REMARK    1  A    between atoms: N_3  and  C_4
REMARK    2  A    between atoms: C_5  and  C_6
REMARK    3  A    between atoms: C_22  and  C_23
REMARK    4  A    between atoms: C_23  and  O_24
REMARK                            x       y       z     vdW  Elec       q    Type
REMARK                         _______ _______ _______ _____ _____    ______ ____
ROOT
ATOM      1  C   UNL     1      -0.783  10.866  18.068  0.00  0.00    +0.000 A 
ATOM      2  C   UNL     1      -0.999  12.018  18.810  0.00  0.00    +0.000 A 
ATOM      3  N   UNL     1      -2.252  12.467  18.438  0.00  0.00    +0.000 N 
ATOM      4  C   UNL     1      -2.846  11.625  17.523  0.00  0.00    +0.000 A 
ATOM      5  C   UNL     1      -4.105  11.681  16.927  0.00  0.00    +0.000 A 
ATOM      6  C   UNL     1      -4.458  10.642  16.057  0.00  0.00    +0.000 A 
ATOM      7  C   UNL     1      -3.568   9.607  15.780  0.00  0.00    +0.000 A 
ATOM      8  C   UNL     1      -2.298   9.582  16.367  0.00  0.00    +0.000 A 
ATOM      9  C   UNL     1      -1.930  10.608  17.263  0.00  0.00    +0.000 A 
ATOM     10  H   UNL     1      -2.681  13.311  18.788  0.00  0.00    +0.000 HD
ENDROOT
BRANCH   1  13
ATOM     11  O   UNL     1       0.018   9.490  20.307  0.00  0.00    +0.000 OA
ATOM     12  C   UNL     1       0.671   9.421  19.269  0.00  0.00    +0.000 C 
ATOM     13  N   UNL     1       0.382  10.109  18.098  0.00  0.00    +0.000 N 
ATOM     14  N   UNL     1       1.756   8.575  19.154  0.00  0.00    +0.000 N 
ATOM     15  C   UNL     1       2.670   8.434  18.023  0.00  0.00    +0.000 C 
ATOM     16  C   UNL     1       3.089   6.996  18.113  0.00  0.00    +0.000 C 
ATOM     17  C   UNL     1       2.034   5.909  18.219  0.00  0.00    +0.000 C 
ATOM     18  C   UNL     1       2.690   6.487  19.459  0.00  0.00    +0.000 C 
ATOM     19  C   UNL     1       2.037   7.609  20.207  0.00  0.00    +0.000 C 
ATOM     20  H   UNL     1       0.398   9.448  17.336  0.00  0.00    +0.000 HD
BRANCH  17  21
ATOM     21  C   UNL     1       2.293   4.502  17.817  0.00  0.00    +0.000 C 
BRANCH  21  22
ATOM     22  O   UNL     1       1.150   3.989  17.152  0.00  0.00    +0.000 OA
ATOM     23  H   UNL     1       1.399   3.833  16.227  0.00  0.00    +0.000 HD
ENDBRANCH  21  22
ENDBRANCH  17  21
ENDBRANCH   1  13
BRANCH   2  24
ATOM     24  C   UNL     1      -0.156  12.755  19.758  0.00  0.00    +0.000 A 
ATOM     25  C   UNL     1       1.124  13.201  19.390  0.00  0.00    +0.000 A 
ATOM     26  C   UNL     1       1.916  13.936  20.277  0.00  0.00    +0.000 A 
ATOM     27  C   UNL     1       1.431  14.241  21.545  0.00  0.00    +0.000 A 
ATOM     28  C   UNL     1       0.170  13.795  21.933  0.00  0.00    +0.000 A 
ATOM     29  C   UNL     1      -0.613  13.048  21.050  0.00  0.00    +0.000 A 
ENDBRANCH   2  24
TORSDOF 4
ENDMDL
MODEL 9
REMARK VINA RESULT:      -7.7      9.256     11.150
REMARK  Name = 
REMARK  4 active torsions:
REMARK  status: ('A' for Active; 'I' for Inactive)
REMARK    1  A    between atoms: N_3  and  C_4
REMARK    2  A    between atoms: C_5  and  C_6
REMARK    3  A    between atoms: C_22  and  C_23
REMARK    4  A    between atoms: C_23  and  O_24
REMARK                            x       y       z     vdW  Elec       q    Type
REMARK                         _______ _______ _______ _____ _____    ______ ____
ROOT
ATOM      1  C   UNL     1       7.875  13.317  22.199  0.00  0.00    +0.000 A 
ATOM      2  C   UNL     1       8.644  12.186  21.962  0.00  0.00    +0.000 A 
ATOM      3  N   UNL     1       8.412  11.351  23.038  0.00  0.00    +0.000 N 
ATOM      4  C   UNL     1       7.503  11.893  23.920  0.00  0.00    +0.000 A 
ATOM      5  C   UNL     1       6.964  11.374  25.096  0.00  0.00    +0.000 A 
ATOM      6  C   UNL     1       6.009  12.147  25.769  0.00  0.00    +0.000 A 
ATOM      7  C   UNL     1       5.635  13.400  25.288  0.00  0.00    +0.000 A 
ATOM      8  C   UNL     1       6.207  13.916  24.121  0.00  0.00    +0.000 A 
ATOM      9  C   UNL     1       7.156  13.146  23.416  0.00  0.00    +0.000 A 
ATOM     10  H   UNL     1       8.858  10.455  23.169  0.00  0.00    +0.000 HD
ENDROOT
BRANCH   1  13
ATOM     11  O   UNL     1       9.619  15.417  22.512  0.00  0.00    +0.000 OA
ATOM     12  C   UNL     1       8.795  15.424  21.600  0.00  0.00    +0.000 C 
ATOM     13  N   UNL     1       7.842  14.440  21.380  0.00  0.00    +0.000 N 
ATOM     14  N   UNL     1       8.785  16.420  20.644  0.00  0.00    +0.000 N 
ATOM     15  C   UNL     1       7.834  16.609  19.552  0.00  0.00    +0.000 C 
ATOM     16  C   UNL     1       8.669  17.271  18.496  0.00  0.00    +0.000 C 
ATOM     17  C   UNL     1       9.995  16.654  18.087  0.00  0.00    +0.000 C 
ATOM     18  C   UNL     1       9.930  17.744  19.140  0.00  0.00    +0.000 C 
ATOM     19  C   UNL     1       9.873  17.388  20.594  0.00  0.00    +0.000 C 
ATOM     20  H   UNL     1       7.886  14.174  20.407  0.00  0.00    +0.000 HD
BRANCH  17  21
ATOM     21  C   UNL     1      10.627  16.918  16.768  0.00  0.00    +0.000 C 
BRANCH  21  22
ATOM     22  O   UNL     1      10.930  15.683  16.141  0.00  0.00    +0.000 OA
ATOM     23  H   UNL     1      10.385  15.001  16.565  0.00  0.00    +0.000 HD
ENDBRANCH  21  22
ENDBRANCH  17  21
ENDBRANCH   1  13
BRANCH   2  24
ATOM     24  C   UNL     1       9.592  11.842  20.896  0.00  0.00    +0.000 A 
ATOM     25  C   UNL     1       9.207  11.015  19.828  0.00  0.00    +0.000 A 
ATOM     26  C   UNL     1      10.095  10.714  18.791  0.00  0.00    +0.000 A 
ATOM     27  C   UNL     1      11.381  11.247  18.807  0.00  0.00    +0.000 A 
ATOM     28  C   UNL     1      11.784  12.057  19.865  0.00  0.00    +0.000 A 
ATOM     29  C   UNL     1      10.900  12.344  20.907  0.00  0.00    +0.000 A 
ENDBRANCH   2  24
TORSDOF 4
ENDMDL
