MODEL 1
REMARK VINA RESULT:      -8.2      0.000      0.000
REMARK  Name = 
REMARK  5 active torsions:
REMARK  status: ('A' for Active; 'I' for Inactive)
REMARK    1  A    between atoms: C_2  and  C_15
REMARK    2  A    between atoms: N_3  and  C_4
REMARK    3  A    between atoms: C_4  and  C_5
REMARK    4  A    between atoms: C_5  and  C_6
REMARK    5  A    between atoms: C_18  and  N_19
REMARK                            x       y       z     vdW  Elec       q    Type
REMARK                         _______ _______ _______ _____ _____    ______ ____
ROOT
ATOM      1  O   UNL     1       3.639   5.304  20.181  0.00  0.00    +0.000 OA
ATOM      2  C   UNL     1       2.980   5.641  19.204  0.00  0.00    +0.000 C 
ATOM      3  N   UNL     1       2.769   4.842  18.102  0.00  0.00    +0.000 N 
ATOM      4  H   UNL     1       2.521   5.305  17.234  0.00  0.00    +0.000 HD
ENDROOT
BRANCH   2   5
ATOM      5  C   UNL     1       2.377   6.997  19.128  0.00  0.00    +0.000 A 
ATOM      6  C   UNL     1       2.425   7.699  17.924  0.00  0.00    +0.000 A 
ATOM      7  C   UNL     1       1.853   8.976  17.830  0.00  0.00    +0.000 A 
ATOM      8  C   UNL     1       1.251   9.589  18.939  0.00  0.00    +0.000 A 
ATOM      9  C   UNL     1       1.235   8.874  20.147  0.00  0.00    +0.000 A 
ATOM     10  C   UNL     1       1.784   7.590  20.243  0.00  0.00    +0.000 A 
BRANCH   8  11
ATOM     11  N   UNL     1       0.693  10.896  18.864  0.00  0.00    +0.000 N 
ATOM     12  C   UNL     1       1.506  12.089  18.914  0.00  0.00    +0.000 C 
ATOM     13  C   UNL     1       0.517  13.222  19.080  0.00  0.00    +0.000 C 
ATOM     14  C   UNL     1      -0.732  12.712  18.393  0.00  0.00    +0.000 C 
ATOM     15  C   UNL     1      -0.640  11.214  18.560  0.00  0.00    +0.000 C 
ATOM     16  O   UNL     1      -1.600  10.475  18.407  0.00  0.00    +0.000 OA
ENDBRANCH   8  11
ENDBRANCH   2   5
BRANCH   3  17
ATOM     17  C   UNL     1       3.431   3.556  17.992  0.00  0.00    +0.000 C 
BRANCH  17  18
ATOM     18  C   UNL     1       4.471   3.527  16.869  0.00  0.00    +0.000 C 
BRANCH  18  19
ATOM     19  C   UNL     1       5.171   4.841  16.680  0.00  0.00    +0.000 A 
ATOM     20  C   UNL     1       4.963   5.739  15.650  0.00  0.00    +0.000 A 
ATOM     21  N   UNL     1       5.802   6.805  15.827  0.00  0.00    +0.000 N 
ATOM     22  C   UNL     1       6.563   6.628  16.959  0.00  0.00    +0.000 A 
ATOM     23  C   UNL     1       7.542   7.453  17.524  0.00  0.00    +0.000 A 
ATOM     24  C   UNL     1       8.159   7.017  18.700  0.00  0.00    +0.000 A 
ATOM     25  C   UNL     1       7.810   5.802  19.283  0.00  0.00    +0.000 A 
ATOM     26  C   UNL     1       6.830   4.988  18.703  0.00  0.00    +0.000 A 
ATOM     27  C   UNL     1       6.189   5.405  17.518  0.00  0.00    +0.000 A 
ATOM     28  H   UNL     1       5.861   7.610  15.218  0.00  0.00    +0.000 HD
ENDBRANCH  18  19
ENDBRANCH  17  18
ENDBRANCH   3  17
TORSDOF 5
ENDMDL
MODEL 2
REMARK VINA RESULT:      -8.2      4.311      7.235
REMARK  Name = 
REMARK  5 active torsions:
REMARK  status: ('A' for Active; 'I' for Inactive)
REMARK    1  A    between atoms: C_2  and  C_15
REMARK    2  A    between atoms: N_3  and  C_4
REMARK    3  A    between atoms: C_4  and  C_5
REMARK    4  A    between atoms: C_5  and  C_6
REMARK    5  A    between atoms: C_18  and  N_19
REMARK                            x       y       z     vdW  Elec       q    Type
REMARK                         _______ _______ _______ _____ _____    ______ ____
ROOT
ATOM      1  O   UNL     1       7.819   6.745  16.398  0.00  0.00    +0.000 OA
ATOM      2  C   UNL     1       7.029   7.158  17.238  0.00  0.00    +0.000 C 
ATOM      3  N   UNL     1       7.142   8.376  17.873  0.00  0.00    +0.000 N 
ATOM      4  H   UNL     1       6.667   8.480  18.763  0.00  0.00    +0.000 HD
ENDROOT
BRANCH   2   5
ATOM      5  C   UNL     1       5.878   6.323  17.671  0.00  0.00    +0.000 A 
ATOM      6  C   UNL     1       4.584   6.711  17.325  0.00  0.00    +0.000 A 
ATOM      7  C   UNL     1       3.487   5.931  17.715  0.00  0.00    +0.000 A 
ATOM      8  C   UNL     1       3.654   4.769  18.482  0.00  0.00    +0.000 A 
ATOM      9  C   UNL     1       4.963   4.409  18.840  0.00  0.00    +0.000 A 
ATOM     10  C   UNL     1       6.066   5.170  18.435  0.00  0.00    +0.000 A 
BRANCH   8  11
ATOM     11  N   UNL     1       2.546   3.985  18.910  0.00  0.00    +0.000 N 
ATOM     12  C   UNL     1       2.169   2.754  18.253  0.00  0.00    +0.000 C 
ATOM     13  C   UNL     1       0.816   2.407  18.836  0.00  0.00    +0.000 C 
ATOM     14  C   UNL     1       0.861   2.997  20.228  0.00  0.00    +0.000 C 
ATOM     15  C   UNL     1       1.798   4.173  20.083  0.00  0.00    +0.000 C 
ATOM     16  O   UNL     1       1.857   5.073  20.905  0.00  0.00    +0.000 OA
ENDBRANCH   8  11
ENDBRANCH   2   5
BRANCH   3  17
ATOM     17  C   UNL     1       8.305   9.214  17.648  0.00  0.00    +0.000 C 
BRANCH  17  18
ATOM     18  C   UNL     1       9.013   9.593  18.950  0.00  0.00    +0.000 C 
BRANCH  18  19
ATOM     19  C   UNL     1       9.673  10.941  18.893  0.00  0.00    +0.000 A 
ATOM     20  C   UNL     1      10.372  11.464  17.822  0.00  0.00    +0.000 A 
ATOM     21  N   UNL     1      10.828  12.708  18.168  0.00  0.00    +0.000 N 
ATOM     22  C   UNL     1      10.439  13.016  19.451  0.00  0.00    +0.000 A 
ATOM     23  C   UNL     1      10.675  14.168  20.210  0.00  0.00    +0.000 A 
ATOM     24  C   UNL     1      10.148  14.211  21.504  0.00  0.00    +0.000 A 
ATOM     25  C   UNL     1       9.417  13.142  22.015  0.00  0.00    +0.000 A 
ATOM     26  C   UNL     1       9.193  11.997  21.243  0.00  0.00    +0.000 A 
ATOM     27  C   UNL     1       9.711  11.927  19.932  0.00  0.00    +0.000 A 
ATOM     28  H   UNL     1      11.372  13.317  17.572  0.00  0.00    +0.000 HD
ENDBRANCH  18  19
ENDBRANCH  17  18
ENDBRANCH   3  17
TORSDOF 5
ENDMDL
MODEL 3
REMARK VINA RESULT:      -8.2      4.307      7.310
REMARK  Name = 
REMARK  5 active torsions:
REMARK  status: ('A' for Active; 'I' for Inactive)
REMARK    1  A    between atoms: C_2  and  C_15
REMARK    2  A    between atoms: N_3  and  C_4
REMARK    3  A    between atoms: C_4  and  C_5
REMARK    4  A    between atoms: C_5  and  C_6
REMARK    5  A    between atoms: C_18  and  N_19
REMARK                            x       y       z     vdW  Elec       q    Type
REMARK                         _______ _______ _______ _____ _____    ______ ____
ROOT
ATOM      1  O   UNL     1       7.799   6.561  16.361  0.00  0.00    +0.000 OA
ATOM      2  C   UNL     1       7.098   6.927  17.297  0.00  0.00    +0.000 C 
ATOM      3  N   UNL     1       7.344   8.052  18.053  0.00  0.00    +0.000 N 
ATOM      4  H   UNL     1       6.936   8.084  18.982  0.00  0.00    +0.000 HD
ENDROOT
BRANCH   2   5
ATOM      5  C   UNL     1       5.916   6.129  17.715  0.00  0.00    +0.000 A 
ATOM      6  C   UNL     1       4.642   6.538  17.323  0.00  0.00    +0.000 A 
ATOM      7  C   UNL     1       3.516   5.793  17.700  0.00  0.00    +0.000 A 
ATOM      8  C   UNL     1       3.634   4.645  18.497  0.00  0.00    +0.000 A 
ATOM      9  C   UNL     1       4.924   4.264  18.900  0.00  0.00    +0.000 A 
ATOM     10  C   UNL     1       6.056   4.990  18.509  0.00  0.00    +0.000 A 
BRANCH   8  11
ATOM     11  N   UNL     1       2.496   3.896  18.910  0.00  0.00    +0.000 N 
ATOM     12  C   UNL     1       2.129   2.642  18.294  0.00  0.00    +0.000 C 
ATOM     13  C   UNL     1       0.747   2.340  18.831  0.00  0.00    +0.000 C 
ATOM     14  C   UNL     1       0.741   2.993  20.196  0.00  0.00    +0.000 C 
ATOM     15  C   UNL     1       1.702   4.148  20.040  0.00  0.00    +0.000 C 
ATOM     16  O   UNL     1       1.738   5.085  20.822  0.00  0.00    +0.000 OA
ENDBRANCH   8  11
ENDBRANCH   2   5
BRANCH   3  17
ATOM     17  C   UNL     1       8.551   8.828  17.841  0.00  0.00    +0.000 C 
BRANCH  17  18
ATOM     18  C   UNL     1       8.313  10.333  17.986  0.00  0.00    +0.000 C 
BRANCH  18  19
ATOM     19  C   UNL     1       9.290  10.999  18.910  0.00  0.00    +0.000 A 
ATOM     20  C   UNL     1       9.409  10.782  20.270  0.00  0.00    +0.000 A 
ATOM     21  N   UNL     1      10.405  11.587  20.753  0.00  0.00    +0.000 N 
ATOM     22  C   UNL     1      10.948  12.334  19.733  0.00  0.00    +0.000 A 
ATOM     23  C   UNL     1      11.979  13.280  19.760  0.00  0.00    +0.000 A 
ATOM     24  C   UNL     1      12.333  13.889  18.553  0.00  0.00    +0.000 A 
ATOM     25  C   UNL     1      11.677  13.565  17.369  0.00  0.00    +0.000 A 
ATOM     26  C   UNL     1      10.646  12.619  17.360  0.00  0.00    +0.000 A 
ATOM     27  C   UNL     1      10.270  11.986  18.563  0.00  0.00    +0.000 A 
ATOM     28  H   UNL     1      10.703  11.633  21.717  0.00  0.00    +0.000 HD
ENDBRANCH  18  19
ENDBRANCH  17  18
ENDBRANCH   3  17
TORSDOF 5
ENDMDL
MODEL 4
REMARK VINA RESULT:      -8.2      0.924      1.186
REMARK  Name = 
REMARK  5 active torsions:
REMARK  status: ('A' for Active; 'I' for Inactive)
REMARK    1  A    between atoms: C_2  and  C_15
REMARK    2  A    between atoms: N_3  and  C_4
REMARK    3  A    between atoms: C_4  and  C_5
REMARK    4  A    between atoms: C_5  and  C_6
REMARK    5  A    between atoms: C_18  and  N_19
REMARK                            x       y       z     vdW  Elec       q    Type
REMARK                         _______ _______ _______ _____ _____    ______ ____
ROOT
ATOM      1  O   UNL     1       3.539   5.323  20.205  0.00  0.00    +0.000 OA
ATOM      2  C   UNL     1       2.920   5.672  19.207  0.00  0.00    +0.000 C 
ATOM      3  N   UNL     1       2.730   4.876  18.098  0.00  0.00    +0.000 N 
ATOM      4  H   UNL     1       2.520   5.345  17.222  0.00  0.00    +0.000 HD
ENDROOT
BRANCH   2   5
ATOM      5  C   UNL     1       2.346   7.040  19.111  0.00  0.00    +0.000 A 
ATOM      6  C   UNL     1       2.427   7.731  17.903  0.00  0.00    +0.000 A 
ATOM      7  C   UNL     1       1.883   9.019  17.790  0.00  0.00    +0.000 A 
ATOM      8  C   UNL     1       1.277   9.652  18.885  0.00  0.00    +0.000 A 
ATOM      9  C   UNL     1       1.228   8.948  20.098  0.00  0.00    +0.000 A 
ATOM     10  C   UNL     1       1.749   7.653  20.213  0.00  0.00    +0.000 A 
BRANCH   8  11
ATOM     11  N   UNL     1       0.747  10.970  18.791  0.00  0.00    +0.000 N 
ATOM     12  C   UNL     1      -0.625  11.278  19.121  0.00  0.00    +0.000 C 
ATOM     13  C   UNL     1      -0.830  12.694  18.628  0.00  0.00    +0.000 C 
ATOM     14  C   UNL     1       0.544  13.317  18.740  0.00  0.00    +0.000 C 
ATOM     15  C   UNL     1       1.479  12.145  18.556  0.00  0.00    +0.000 C 
ATOM     16  O   UNL     1       2.661  12.282  18.283  0.00  0.00    +0.000 OA
ENDBRANCH   8  11
ENDBRANCH   2   5
BRANCH   3  17
ATOM     17  C   UNL     1       3.370   3.578  18.010  0.00  0.00    +0.000 C 
BRANCH  17  18
ATOM     18  C   UNL     1       4.408   3.512  16.887  0.00  0.00    +0.000 C 
BRANCH  18  19
ATOM     19  C   UNL     1       5.135   4.809  16.678  0.00  0.00    +0.000 A 
ATOM     20  C   UNL     1       4.957   5.688  15.627  0.00  0.00    +0.000 A 
ATOM     21  N   UNL     1       5.813   6.742  15.792  0.00  0.00    +0.000 N 
ATOM     22  C   UNL     1       6.556   6.576  16.938  0.00  0.00    +0.000 A 
ATOM     23  C   UNL     1       7.542   7.395  17.498  0.00  0.00    +0.000 A 
ATOM     24  C   UNL     1       8.135   6.974  18.692  0.00  0.00    +0.000 A 
ATOM     25  C   UNL     1       7.756   5.779  19.296  0.00  0.00    +0.000 A 
ATOM     26  C   UNL     1       6.770   4.970  18.721  0.00  0.00    +0.000 A 
ATOM     27  C   UNL     1       6.152   5.373  17.518  0.00  0.00    +0.000 A 
ATOM     28  H   UNL     1       5.895   7.532  15.166  0.00  0.00    +0.000 HD
ENDBRANCH  18  19
ENDBRANCH  17  18
ENDBRANCH   3  17
TORSDOF 5
ENDMDL
MODEL 5
REMARK VINA RESULT:      -8.1      4.359      7.352
REMARK  Name = 
REMARK  5 active torsions:
REMARK  status: ('A' for Active; 'I' for Inactive)
REMARK    1  A    between atoms: C_2  and  C_15
REMARK    2  A    between atoms: N_3  and  C_4
REMARK    3  A    between atoms: C_4  and  C_5
REMARK    4  A    between atoms: C_5  and  C_6
REMARK    5  A    between atoms: C_18  and  N_19
REMARK                            x       y       z     vdW  Elec       q    Type
REMARK                         _______ _______ _______ _____ _____    ______ ____
ROOT
ATOM      1  O   UNL     1       7.817   6.897  16.532  0.00  0.00    +0.000 OA
ATOM      2  C   UNL     1       6.995   7.283  17.354  0.00  0.00    +0.000 C 
ATOM      3  N   UNL     1       7.047   8.507  17.985  0.00  0.00    +0.000 N 
ATOM      4  H   UNL     1       6.551   8.596  18.866  0.00  0.00    +0.000 HD
ENDROOT
BRANCH   2   5
ATOM      5  C   UNL     1       5.868   6.406  17.768  0.00  0.00    +0.000 A 
ATOM      6  C   UNL     1       4.621   6.565  17.165  0.00  0.00    +0.000 A 
ATOM      7  C   UNL     1       3.549   5.741  17.535  0.00  0.00    +0.000 A 
ATOM      8  C   UNL     1       3.690   4.765  18.532  0.00  0.00    +0.000 A 
ATOM      9  C   UNL     1       4.948   4.637  19.143  0.00  0.00    +0.000 A 
ATOM     10  C   UNL     1       6.029   5.441  18.763  0.00  0.00    +0.000 A 
BRANCH   8  11
ATOM     11  N   UNL     1       2.602   3.942  18.937  0.00  0.00    +0.000 N 
ATOM     12  C   UNL     1       1.584   4.400  19.854  0.00  0.00    +0.000 C 
ATOM     13  C   UNL     1       0.803   3.155  20.215  0.00  0.00    +0.000 C 
ATOM     14  C   UNL     1       0.931   2.281  18.986  0.00  0.00    +0.000 C 
ATOM     15  C   UNL     1       2.260   2.691  18.398  0.00  0.00    +0.000 C 
ATOM     16  O   UNL     1       2.855   2.011  17.576  0.00  0.00    +0.000 OA
ENDBRANCH   8  11
ENDBRANCH   2   5
BRANCH   3  17
ATOM     17  C   UNL     1       8.181   9.388  17.780  0.00  0.00    +0.000 C 
BRANCH  17  18
ATOM     18  C   UNL     1       9.179   9.337  18.939  0.00  0.00    +0.000 C 
BRANCH  18  19
ATOM     19  C   UNL     1       9.545  10.696  19.463  0.00  0.00    +0.000 A 
ATOM     20  C   UNL     1       9.304  11.175  20.736  0.00  0.00    +0.000 A 
ATOM     21  N   UNL     1       9.776  12.457  20.815  0.00  0.00    +0.000 N 
ATOM     22  C   UNL     1      10.328  12.834  19.612  0.00  0.00    +0.000 A 
ATOM     23  C   UNL     1      10.925  14.042  19.236  0.00  0.00    +0.000 A 
ATOM     24  C   UNL     1      11.412  14.147  17.930  0.00  0.00    +0.000 A 
ATOM     25  C   UNL     1      11.300  13.084  17.038  0.00  0.00    +0.000 A 
ATOM     26  C   UNL     1      10.696  11.884  17.430  0.00  0.00    +0.000 A 
ATOM     27  C   UNL     1      10.200  11.750  18.743  0.00  0.00    +0.000 A 
ATOM     28  H   UNL     1       9.729  13.047  21.634  0.00  0.00    +0.000 HD
ENDBRANCH  18  19
ENDBRANCH  17  18
ENDBRANCH   3  17
TORSDOF 5
ENDMDL
MODEL 6
REMARK VINA RESULT:      -8.1      4.270      7.314
REMARK  Name = 
REMARK  5 active torsions:
REMARK  status: ('A' for Active; 'I' for Inactive)
REMARK    1  A    between atoms: C_2  and  C_15
REMARK    2  A    between atoms: N_3  and  C_4
REMARK    3  A    between atoms: C_4  and  C_5
REMARK    4  A    between atoms: C_5  and  C_6
REMARK    5  A    between atoms: C_18  and  N_19
REMARK                            x       y       z     vdW  Elec       q    Type
REMARK                         _______ _______ _______ _____ _____    ______ ____
ROOT
ATOM      1  O   UNL     1       7.827   6.914  16.518  0.00  0.00    +0.000 OA
ATOM      2  C   UNL     1       7.009   7.324  17.333  0.00  0.00    +0.000 C 
ATOM      3  N   UNL     1       7.088   8.549  17.958  0.00  0.00    +0.000 N 
ATOM      4  H   UNL     1       6.588   8.655  18.835  0.00  0.00    +0.000 HD
ENDROOT
BRANCH   2   5
ATOM      5  C   UNL     1       5.858   6.477  17.743  0.00  0.00    +0.000 A 
ATOM      6  C   UNL     1       6.055   5.465  18.683  0.00  0.00    +0.000 A 
ATOM      7  C   UNL     1       4.979   4.663  19.089  0.00  0.00    +0.000 A 
ATOM      8  C   UNL     1       3.697   4.832  18.546  0.00  0.00    +0.000 A 
ATOM      9  C   UNL     1       3.527   5.841  17.584  0.00  0.00    +0.000 A 
ATOM     10  C   UNL     1       4.590   6.661  17.190  0.00  0.00    +0.000 A 
BRANCH   8  11
ATOM     11  N   UNL     1       2.604   4.005  18.929  0.00  0.00    +0.000 N 
ATOM     12  C   UNL     1       2.197   2.854  18.156  0.00  0.00    +0.000 C 
ATOM     13  C   UNL     1       0.867   2.443  18.751  0.00  0.00    +0.000 C 
ATOM     14  C   UNL     1       0.970   2.877  20.197  0.00  0.00    +0.000 C 
ATOM     15  C   UNL     1       1.905   4.062  20.145  0.00  0.00    +0.000 C 
ATOM     16  O   UNL     1       2.000   4.866  21.058  0.00  0.00    +0.000 OA
ENDBRANCH   8  11
ENDBRANCH   2   5
BRANCH   3  17
ATOM     17  C   UNL     1       8.244   9.401  17.756  0.00  0.00    +0.000 C 
BRANCH  17  18
ATOM     18  C   UNL     1       9.204   9.378  18.948  0.00  0.00    +0.000 C 
BRANCH  18  19
ATOM     19  C   UNL     1       9.542  10.748  19.460  0.00  0.00    +0.000 A 
ATOM     20  C   UNL     1       9.257  11.245  20.718  0.00  0.00    +0.000 A 
ATOM     21  N   UNL     1       9.715  12.532  20.790  0.00  0.00    +0.000 N 
ATOM     22  C   UNL     1      10.301  12.895  19.600  0.00  0.00    +0.000 A 
ATOM     23  C   UNL     1      10.900  14.102  19.223  0.00  0.00    +0.000 A 
ATOM     24  C   UNL     1      11.427  14.190  17.931  0.00  0.00    +0.000 A 
ATOM     25  C   UNL     1      11.352  13.113  17.054  0.00  0.00    +0.000 A 
ATOM     26  C   UNL     1      10.747  11.914  17.445  0.00  0.00    +0.000 A 
ATOM     27  C   UNL     1      10.210  11.796  18.745  0.00  0.00    +0.000 A 
ATOM     28  H   UNL     1       9.638  13.135  21.598  0.00  0.00    +0.000 HD
ENDBRANCH  18  19
ENDBRANCH  17  18
ENDBRANCH   3  17
TORSDOF 5
ENDMDL
MODEL 7
REMARK VINA RESULT:      -8.1      4.437      7.445
REMARK  Name = 
REMARK  5 active torsions:
REMARK  status: ('A' for Active; 'I' for Inactive)
REMARK    1  A    between atoms: C_2  and  C_15
REMARK    2  A    between atoms: N_3  and  C_4
REMARK    3  A    between atoms: C_4  and  C_5
REMARK    4  A    between atoms: C_5  and  C_6
REMARK    5  A    between atoms: C_18  and  N_19
REMARK                            x       y       z     vdW  Elec       q    Type
REMARK                         _______ _______ _______ _____ _____    ______ ____
ROOT
ATOM      1  O   UNL     1       7.691   6.697  16.430  0.00  0.00    +0.000 OA
ATOM      2  C   UNL     1       7.088   6.940  17.468  0.00  0.00    +0.000 C 
ATOM      3  N   UNL     1       7.464   7.911  18.371  0.00  0.00    +0.000 N 
ATOM      4  H   UNL     1       7.130   7.812  19.324  0.00  0.00    +0.000 HD
ENDROOT
BRANCH   2   5
ATOM      5  C   UNL     1       5.892   6.146  17.854  0.00  0.00    +0.000 A 
ATOM      6  C   UNL     1       6.023   5.126  18.795  0.00  0.00    +0.000 A 
ATOM      7  C   UNL     1       4.904   4.373  19.178  0.00  0.00    +0.000 A 
ATOM      8  C   UNL     1       3.642   4.601  18.610  0.00  0.00    +0.000 A 
ATOM      9  C   UNL     1       3.538   5.617  17.646  0.00  0.00    +0.000 A 
ATOM     10  C   UNL     1       4.645   6.388  17.275  0.00  0.00    +0.000 A 
BRANCH   8  11
ATOM     11  N   UNL     1       2.505   3.825  18.969  0.00  0.00    +0.000 N 
ATOM     12  C   UNL     1       1.473   4.323  19.849  0.00  0.00    +0.000 C 
ATOM     13  C   UNL     1       0.626   3.112  20.173  0.00  0.00    +0.000 C 
ATOM     14  C   UNL     1       0.763   2.237  18.945  0.00  0.00    +0.000 C 
ATOM     15  C   UNL     1       2.131   2.592  18.411  0.00  0.00    +0.000 C 
ATOM     16  O   UNL     1       2.727   1.889  17.610  0.00  0.00    +0.000 OA
ENDBRANCH   8  11
ENDBRANCH   2   5
BRANCH   3  17
ATOM     17  C   UNL     1       8.699   8.648  18.182  0.00  0.00    +0.000 C 
BRANCH  17  18
ATOM     18  C   UNL     1       8.474  10.160  18.117  0.00  0.00    +0.000 C 
BRANCH  18  19
ATOM     19  C   UNL     1       9.381  10.932  19.031  0.00  0.00    +0.000 A 
ATOM     20  C   UNL     1       9.442  10.822  20.407  0.00  0.00    +0.000 A 
ATOM     21  N   UNL     1      10.384  11.700  20.872  0.00  0.00    +0.000 N 
ATOM     22  C   UNL     1      10.948  12.389  19.824  0.00  0.00    +0.000 A 
ATOM     23  C   UNL     1      11.942  13.374  19.825  0.00  0.00    +0.000 A 
ATOM     24  C   UNL     1      12.332  13.905  18.592  0.00  0.00    +0.000 A 
ATOM     25  C   UNL     1      11.747  13.468  17.408  0.00  0.00    +0.000 A 
ATOM     26  C   UNL     1      10.752  12.484  17.425  0.00  0.00    +0.000 A 
ATOM     27  C   UNL     1      10.341  11.928  18.655  0.00  0.00    +0.000 A 
ATOM     28  H   UNL     1      10.633  11.830  21.843  0.00  0.00    +0.000 HD
ENDBRANCH  18  19
ENDBRANCH  17  18
ENDBRANCH   3  17
TORSDOF 5
ENDMDL
MODEL 8
REMARK VINA RESULT:      -8.0      1.901      2.994
REMARK  Name = 
REMARK  5 active torsions:
REMARK  status: ('A' for Active; 'I' for Inactive)
REMARK    1  A    between atoms: C_2  and  C_15
REMARK    2  A    between atoms: N_3  and  C_4
REMARK    3  A    between atoms: C_4  and  C_5
REMARK    4  A    between atoms: C_5  and  C_6
REMARK    5  A    between atoms: C_18  and  N_19
REMARK                            x       y       z     vdW  Elec       q    Type
REMARK                         _______ _______ _______ _____ _____    ______ ____
ROOT
ATOM      1  O   UNL     1       4.181   5.665  20.013  0.00  0.00    +0.000 OA
ATOM      2  C   UNL     1       3.448   5.901  19.060  0.00  0.00    +0.000 C 
ATOM      3  N   UNL     1       3.333   5.087  17.953  0.00  0.00    +0.000 N 
ATOM      4  H   UNL     1       2.989   5.513  17.099  0.00  0.00    +0.000 HD
ENDROOT
BRANCH   2   5
ATOM      5  C   UNL     1       2.636   7.145  19.017  0.00  0.00    +0.000 A 
ATOM      6  C   UNL     1       1.957   7.558  20.163  0.00  0.00    +0.000 A 
ATOM      7  C   UNL     1       1.194   8.734  20.145  0.00  0.00    +0.000 A 
ATOM      8  C   UNL     1       1.068   9.503  18.979  0.00  0.00    +0.000 A 
ATOM      9  C   UNL     1       1.741   9.057  17.830  0.00  0.00    +0.000 A 
ATOM     10  C   UNL     1       2.523   7.896  17.846  0.00  0.00    +0.000 A 
BRANCH   8  11
ATOM     11  N   UNL     1       0.273  10.683  18.940  0.00  0.00    +0.000 N 
ATOM     12  C   UNL     1       0.740  11.949  19.457  0.00  0.00    +0.000 C 
ATOM     13  C   UNL     1      -0.486  12.836  19.468  0.00  0.00    +0.000 C 
ATOM     14  C   UNL     1      -1.327  12.301  18.329  0.00  0.00    +0.000 C 
ATOM     15  C   UNL     1      -0.947  10.840  18.265  0.00  0.00    +0.000 C 
ATOM     16  O   UNL     1      -1.624  10.010  17.680  0.00  0.00    +0.000 OA
ENDBRANCH   8  11
ENDBRANCH   2   5
BRANCH   3  17
ATOM     17  C   UNL     1       4.187   3.924  17.809  0.00  0.00    +0.000 C 
BRANCH  17  18
ATOM     18  C   UNL     1       4.416   3.545  16.344  0.00  0.00    +0.000 C 
BRANCH  18  19
ATOM     19  C   UNL     1       5.592   4.248  15.729  0.00  0.00    +0.000 A 
ATOM     20  C   UNL     1       6.455   5.114  16.372  0.00  0.00    +0.000 A 
ATOM     21  N   UNL     1       7.384   5.553  15.468  0.00  0.00    +0.000 N 
ATOM     22  C   UNL     1       7.149   4.990  14.235  0.00  0.00    +0.000 A 
ATOM     23  C   UNL     1       7.838   5.148  13.027  0.00  0.00    +0.000 A 
ATOM     24  C   UNL     1       7.373   4.438  11.917  0.00  0.00    +0.000 A 
ATOM     25  C   UNL     1       6.261   3.606  12.014  0.00  0.00    +0.000 A 
ATOM     26  C   UNL     1       5.582   3.462  13.229  0.00  0.00    +0.000 A 
ATOM     27  C   UNL     1       6.031   4.164  14.367  0.00  0.00    +0.000 A 
ATOM     28  H   UNL     1       8.135   6.198  15.669  0.00  0.00    +0.000 HD
ENDBRANCH  18  19
ENDBRANCH  17  18
ENDBRANCH   3  17
TORSDOF 5
ENDMDL
MODEL 9
REMARK VINA RESULT:      -7.9      4.480      7.428
REMARK  Name = 
REMARK  5 active torsions:
REMARK  status: ('A' for Active; 'I' for Inactive)
REMARK    1  A    between atoms: C_2  and  C_15
REMARK    2  A    between atoms: N_3  and  C_4
REMARK    3  A    between atoms: C_4  and  C_5
REMARK    4  A    between atoms: C_5  and  C_6
REMARK    5  A    between atoms: C_18  and  N_19
REMARK                            x       y       z     vdW  Elec       q    Type
REMARK                         _______ _______ _______ _____ _____    ______ ____
ROOT
ATOM      1  O   UNL     1       7.944   6.902  16.471  0.00  0.00    +0.000 OA
ATOM      2  C   UNL     1       7.154   7.354  17.290  0.00  0.00    +0.000 C 
ATOM      3  N   UNL     1       7.271   8.597  17.873  0.00  0.00    +0.000 N 
ATOM      4  H   UNL     1       6.794   8.742  18.757  0.00  0.00    +0.000 HD
ENDROOT
BRANCH   2   5
ATOM      5  C   UNL     1       5.996   6.545  17.753  0.00  0.00    +0.000 A 
ATOM      6  C   UNL     1       6.211   5.485  18.632  0.00  0.00    +0.000 A 
ATOM      7  C   UNL     1       5.130   4.717  19.087  0.00  0.00    +0.000 A 
ATOM      8  C   UNL     1       3.821   4.970  18.652  0.00  0.00    +0.000 A 
ATOM      9  C   UNL     1       3.630   6.027  17.748  0.00  0.00    +0.000 A 
ATOM     10  C   UNL     1       4.701   6.813  17.306  0.00  0.00    +0.000 A 
BRANCH   8  11
ATOM     11  N   UNL     1       2.719   4.179  19.084  0.00  0.00    +0.000 N 
ATOM     12  C   UNL     1       2.070   4.385  20.358  0.00  0.00    +0.000 C 
ATOM     13  C   UNL     1       1.163   3.186  20.526  0.00  0.00    +0.000 C 
ATOM     14  C   UNL     1       0.808   2.801  19.106  0.00  0.00    +0.000 C 
ATOM     15  C   UNL     1       2.010   3.249  18.308  0.00  0.00    +0.000 C 
ATOM     16  O   UNL     1       2.236   2.847  17.177  0.00  0.00    +0.000 OA
ENDBRANCH   8  11
ENDBRANCH   2   5
BRANCH   3  17
ATOM     17  C   UNL     1       8.440   9.418  17.618  0.00  0.00    +0.000 C 
BRANCH  17  18
ATOM     18  C   UNL     1       9.039   9.999  18.901  0.00  0.00    +0.000 C 
BRANCH  18  19
ATOM     19  C   UNL     1       9.908  11.198  18.656  0.00  0.00    +0.000 A 
ATOM     20  C   UNL     1      11.289  11.229  18.687  0.00  0.00    +0.000 A 
ATOM     21  N   UNL     1      11.701  12.508  18.426  0.00  0.00    +0.000 N 
ATOM     22  C   UNL     1      10.613  13.325  18.221  0.00  0.00    +0.000 A 
ATOM     23  C   UNL     1      10.557  14.691  17.927  0.00  0.00    +0.000 A 
ATOM     24  C   UNL     1       9.294  15.269  17.763  0.00  0.00    +0.000 A 
ATOM     25  C   UNL     1       8.137  14.506  17.892  0.00  0.00    +0.000 A 
ATOM     26  C   UNL     1       8.211  13.141  18.190  0.00  0.00    +0.000 A 
ATOM     27  C   UNL     1       9.473  12.532  18.357  0.00  0.00    +0.000 A 
ATOM     28  H   UNL     1      12.663  12.815  18.388  0.00  0.00    +0.000 HD
ENDBRANCH  18  19
ENDBRANCH  17  18
ENDBRANCH   3  17
TORSDOF 5
ENDMDL
