MODEL 1
REMARK VINA RESULT:      -8.5      0.000      0.000
REMARK  Name = 
REMARK  4 active torsions:
REMARK  status: ('A' for Active; 'I' for Inactive)
REMARK    1  A    between atoms: C_1  and  C_2
REMARK    2  A    between atoms: C_5  and  C_6
REMARK    3  A    between atoms: N_8  and  C_9
REMARK    4  A    between atoms: C_12  and  C_13
REMARK                            x       y       z     vdW  Elec       q    Type
REMARK                         _______ _______ _______ _____ _____    ______ ____
ROOT
ATOM      1  C   UNL     1       7.351   8.094  17.640  0.00  0.00    +0.000 A 
ATOM      2  C   UNL     1       6.072   7.984  17.097  0.00  0.00    +0.000 A 
ATOM      3  C   UNL     1       5.307   6.828  17.290  0.00  0.00    +0.000 A 
ATOM      4  C   UNL     1       5.792   5.743  18.032  0.00  0.00    +0.000 A 
ATOM      5  C   UNL     1       7.103   5.827  18.516  0.00  0.00    +0.000 A 
ATOM      6  C   UNL     1       7.876   6.990  18.318  0.00  0.00    +0.000 A 
ENDROOT
BRANCH   4   7
ATOM      7  C   UNL     1       4.923   4.570  18.196  0.00  0.00    +0.000 A 
ATOM      8  N   UNL     1       5.007   3.481  17.446  0.00  0.00    +0.000 NA
ATOM      9  N   UNL     1       4.015   2.604  17.801  0.00  0.00    +0.000 NA
ATOM     10  C   UNL     1       3.313   3.167  18.754  0.00  0.00    +0.000 A 
ATOM     11  N   UNL     1       3.852   4.399  19.045  0.00  0.00    +0.000 N 
ATOM     12  C   UNL     1       3.230   5.333  19.959  0.00  0.00    +0.000 C 
ATOM     13  C   UNL     1       2.215   4.665  20.893  0.00  0.00    +0.000 C 
ATOM     14  C   UNL     1       1.303   3.709  20.124  0.00  0.00    +0.000 C 
ATOM     15  C   UNL     1       2.130   2.609  19.458  0.00  0.00    +0.000 C 
ENDBRANCH   4   7
BRANCH   1  18
ATOM     16  C   UNL     1       8.829   9.881  18.565  0.00  0.00    +0.000 C 
ATOM     17  O   UNL     1       8.866   9.485  19.728  0.00  0.00    +0.000 OA
ATOM     18  N   UNL     1       8.138   9.266  17.534  0.00  0.00    +0.000 N 
ATOM     19  H   UNL     1       8.274   9.644  16.596  0.00  0.00    +0.000 HD
BRANCH  16  24
ATOM     20  C   UNL     1      12.051  14.509  17.083  0.00  0.00    +0.000 C 
ATOM     21  C   UNL     1      11.261  13.301  17.485  0.00  0.00    +0.000 A 
ATOM     22  C   UNL     1      11.795  12.216  18.066  0.00  0.00    +0.000 A 
ATOM     23  C   UNL     1      10.953  11.093  18.421  0.00  0.00    +0.000 A 
ATOM     24  C   UNL     1       9.624  11.094  18.181  0.00  0.00    +0.000 A 
ATOM     25  C   UNL     1       9.041  12.295  17.523  0.00  0.00    +0.000 A 
ATOM     26  O   UNL     1       7.846  12.367  17.239  0.00  0.00    +0.000 OA
ATOM     27  N   UNL     1       9.908  13.322  17.229  0.00  0.00    +0.000 N 
ATOM     28  H   UNL     1       9.492  14.134  16.789  0.00  0.00    +0.000 HD
ENDBRANCH  16  24
ENDBRANCH   1  18
TORSDOF 3
ENDMDL
MODEL 2
REMARK VINA RESULT:      -8.4      6.291      8.620
REMARK  Name = 
REMARK  4 active torsions:
REMARK  status: ('A' for Active; 'I' for Inactive)
REMARK    1  A    between atoms: C_1  and  C_2
REMARK    2  A    between atoms: C_5  and  C_6
REMARK    3  A    between atoms: N_8  and  C_9
REMARK    4  A    between atoms: C_12  and  C_13
REMARK                            x       y       z     vdW  Elec       q    Type
REMARK                         _______ _______ _______ _____ _____    ______ ____
ROOT
ATOM      1  C   UNL     1       1.363   9.028  19.830  0.00  0.00    +0.000 A 
ATOM      2  C   UNL     1       1.770   9.096  18.498  0.00  0.00    +0.000 A 
ATOM      3  C   UNL     1       2.383   8.001  17.878  0.00  0.00    +0.000 A 
ATOM      4  C   UNL     1       2.607   6.801  18.564  0.00  0.00    +0.000 A 
ATOM      5  C   UNL     1       2.262   6.758  19.920  0.00  0.00    +0.000 A 
ATOM      6  C   UNL     1       1.649   7.863  20.547  0.00  0.00    +0.000 A 
ENDROOT
BRANCH   4   7
ATOM      7  C   UNL     1       3.247   5.695  17.839  0.00  0.00    +0.000 A 
ATOM      8  N   UNL     1       2.647   4.544  17.571  0.00  0.00    +0.000 NA
ATOM      9  N   UNL     1       3.532   3.701  16.950  0.00  0.00    +0.000 NA
ATOM     10  C   UNL     1       4.678   4.330  16.859  0.00  0.00    +0.000 A 
ATOM     11  N   UNL     1       4.545   5.590  17.393  0.00  0.00    +0.000 N 
ATOM     12  C   UNL     1       5.665   6.491  17.567  0.00  0.00    +0.000 C 
ATOM     13  C   UNL     1       6.874   6.112  16.705  0.00  0.00    +0.000 C 
ATOM     14  C   UNL     1       7.152   4.611  16.774  0.00  0.00    +0.000 C 
ATOM     15  C   UNL     1       5.944   3.823  16.268  0.00  0.00    +0.000 C 
ENDBRANCH   4   7
BRANCH   1  18
ATOM     16  C   UNL     1      -0.584  10.556  20.162  0.00  0.00    +0.000 C 
ATOM     17  O   UNL     1      -1.297  10.121  19.261  0.00  0.00    +0.000 OA
ATOM     18  N   UNL     1       0.677  10.079  20.483  0.00  0.00    +0.000 N 
ATOM     19  H   UNL     1       1.118  10.465  21.318  0.00  0.00    +0.000 HD
BRANCH  16  24
ATOM     20  C   UNL     1      -2.710  14.869  23.458  0.00  0.00    +0.000 C 
ATOM     21  C   UNL     1      -2.178  13.785  22.572  0.00  0.00    +0.000 A 
ATOM     22  C   UNL     1      -2.368  13.741  21.244  0.00  0.00    +0.000 A 
ATOM     23  C   UNL     1      -1.815  12.651  20.467  0.00  0.00    +0.000 A 
ATOM     24  C   UNL     1      -1.105  11.655  21.039  0.00  0.00    +0.000 A 
ATOM     25  C   UNL     1      -0.911  11.704  22.514  0.00  0.00    +0.000 A 
ATOM     26  O   UNL     1      -0.304  10.821  23.121  0.00  0.00    +0.000 OA
ATOM     27  N   UNL     1      -1.458  12.778  23.176  0.00  0.00    +0.000 N 
ATOM     28  H   UNL     1      -1.310  12.798  24.178  0.00  0.00    +0.000 HD
ENDBRANCH  16  24
ENDBRANCH   1  18
TORSDOF 3
ENDMDL
MODEL 3
REMARK VINA RESULT:      -8.2      6.759      8.961
REMARK  Name = 
REMARK  4 active torsions:
REMARK  status: ('A' for Active; 'I' for Inactive)
REMARK    1  A    between atoms: C_1  and  C_2
REMARK    2  A    between atoms: C_5  and  C_6
REMARK    3  A    between atoms: N_8  and  C_9
REMARK    4  A    between atoms: C_12  and  C_13
REMARK                            x       y       z     vdW  Elec       q    Type
REMARK                         _______ _______ _______ _____ _____    ______ ____
ROOT
ATOM      1  C   UNL     1       0.575   9.738  20.304  0.00  0.00    +0.000 A 
ATOM      2  C   UNL     1       1.067   8.600  20.941  0.00  0.00    +0.000 A 
ATOM      3  C   UNL     1       1.866   7.680  20.251  0.00  0.00    +0.000 A 
ATOM      4  C   UNL     1       2.202   7.867  18.904  0.00  0.00    +0.000 A 
ATOM      5  C   UNL     1       1.649   8.972  18.248  0.00  0.00    +0.000 A 
ATOM      6  C   UNL     1       0.840   9.897  18.941  0.00  0.00    +0.000 A 
ENDROOT
BRANCH   4   7
ATOM      7  C   UNL     1       3.053   6.860  18.254  0.00  0.00    +0.000 A 
ATOM      8  N   UNL     1       4.098   7.158  17.495  0.00  0.00    +0.000 NA
ATOM      9  N   UNL     1       4.633   6.004  16.982  0.00  0.00    +0.000 NA
ATOM     10  C   UNL     1       3.901   5.005  17.412  0.00  0.00    +0.000 A 
ATOM     11  N   UNL     1       2.904   5.492  18.223  0.00  0.00    +0.000 N 
ATOM     12  C   UNL     1       1.844   4.659  18.750  0.00  0.00    +0.000 C 
ATOM     13  C   UNL     1       2.185   3.165  18.712  0.00  0.00    +0.000 C 
ATOM     14  C   UNL     1       2.795   2.773  17.367  0.00  0.00    +0.000 C 
ATOM     15  C   UNL     1       4.082   3.560  17.119  0.00  0.00    +0.000 C 
ENDBRANCH   4   7
BRANCH   1  18
ATOM     16  C   UNL     1      -0.343  10.849  22.343  0.00  0.00    +0.000 C 
ATOM     17  O   UNL     1       0.155  10.101  23.182  0.00  0.00    +0.000 OA
ATOM     18  N   UNL     1      -0.177  10.733  20.973  0.00  0.00    +0.000 N 
ATOM     19  H   UNL     1      -0.563  11.481  20.396  0.00  0.00    +0.000 HD
BRANCH  16  24
ATOM     20  C   UNL     1      -3.600  15.311  24.206  0.00  0.00    +0.000 C 
ATOM     21  C   UNL     1      -2.800  14.135  23.734  0.00  0.00    +0.000 A 
ATOM     22  C   UNL     1      -3.237  12.867  23.774  0.00  0.00    +0.000 A 
ATOM     23  C   UNL     1      -2.393  11.793  23.295  0.00  0.00    +0.000 A 
ATOM     24  C   UNL     1      -1.157  12.022  22.802  0.00  0.00    +0.000 A 
ATOM     25  C   UNL     1      -0.674  13.430  22.774  0.00  0.00    +0.000 A 
ATOM     26  O   UNL     1       0.451  13.725  22.372  0.00  0.00    +0.000 OA
ATOM     27  N   UNL     1      -1.542  14.392  23.237  0.00  0.00    +0.000 N 
ATOM     28  H   UNL     1      -1.199  15.344  23.204  0.00  0.00    +0.000 HD
ENDBRANCH  16  24
ENDBRANCH   1  18
TORSDOF 3
ENDMDL
MODEL 4
REMARK VINA RESULT:      -8.1      5.938      8.344
REMARK  Name = 
REMARK  4 active torsions:
REMARK  status: ('A' for Active; 'I' for Inactive)
REMARK    1  A    between atoms: C_1  and  C_2
REMARK    2  A    between atoms: C_5  and  C_6
REMARK    3  A    between atoms: N_8  and  C_9
REMARK    4  A    between atoms: C_12  and  C_13
REMARK                            x       y       z     vdW  Elec       q    Type
REMARK                         _______ _______ _______ _____ _____    ______ ____
ROOT
ATOM      1  C   UNL     1       1.293   8.938  19.716  0.00  0.00    +0.000 A 
ATOM      2  C   UNL     1       1.754   9.032  18.404  0.00  0.00    +0.000 A 
ATOM      3  C   UNL     1       2.441   7.969  17.807  0.00  0.00    +0.000 A 
ATOM      4  C   UNL     1       2.688   6.776  18.498  0.00  0.00    +0.000 A 
ATOM      5  C   UNL     1       2.287   6.711  19.837  0.00  0.00    +0.000 A 
ATOM      6  C   UNL     1       1.599   7.783  20.441  0.00  0.00    +0.000 A 
ENDROOT
BRANCH   4   7
ATOM      7  C   UNL     1       3.408   5.703  17.796  0.00  0.00    +0.000 A 
ATOM      8  N   UNL     1       2.866   4.534  17.485  0.00  0.00    +0.000 NA
ATOM      9  N   UNL     1       3.814   3.732  16.905  0.00  0.00    +0.000 NA
ATOM     10  C   UNL     1       4.939   4.405  16.880  0.00  0.00    +0.000 A 
ATOM     11  N   UNL     1       4.731   5.653  17.419  0.00  0.00    +0.000 N 
ATOM     12  C   UNL     1       5.804   6.592  17.661  0.00  0.00    +0.000 C 
ATOM     13  C   UNL     1       7.071   6.269  16.861  0.00  0.00    +0.000 C 
ATOM     14  C   UNL     1       7.402   4.779  16.930  0.00  0.00    +0.000 C 
ATOM     15  C   UNL     1       6.252   3.953  16.352  0.00  0.00    +0.000 C 
ENDBRANCH   4   7
BRANCH   1  18
ATOM     16  C   UNL     1       0.548  10.272  21.691  0.00  0.00    +0.000 C 
ATOM     17  O   UNL     1       1.239   9.715  22.542  0.00  0.00    +0.000 OA
ATOM     18  N   UNL     1       0.534   9.955  20.343  0.00  0.00    +0.000 N 
ATOM     19  H   UNL     1      -0.011  10.564  19.731  0.00  0.00    +0.000 HD
BRANCH  16  24
ATOM     20  C   UNL     1      -2.888  14.666  23.388  0.00  0.00    +0.000 C 
ATOM     21  C   UNL     1      -2.034  13.506  22.973  0.00  0.00    +0.000 A 
ATOM     22  C   UNL     1      -2.238  12.243  23.378  0.00  0.00    +0.000 A 
ATOM     23  C   UNL     1      -1.360  11.185  22.926  0.00  0.00    +0.000 A 
ATOM     24  C   UNL     1      -0.322  11.424  22.098  0.00  0.00    +0.000 A 
ATOM     25  C   UNL     1      -0.094  12.830  21.663  0.00  0.00    +0.000 A 
ATOM     26  O   UNL     1       0.848  13.142  20.935  0.00  0.00    +0.000 OA
ATOM     27  N   UNL     1      -0.980  13.774  22.130  0.00  0.00    +0.000 N 
ATOM     28  H   UNL     1      -0.813  14.723  21.818  0.00  0.00    +0.000 HD
ENDBRANCH  16  24
ENDBRANCH   1  18
TORSDOF 3
ENDMDL
MODEL 5
REMARK VINA RESULT:      -8.1      6.095      8.294
REMARK  Name = 
REMARK  4 active torsions:
REMARK  status: ('A' for Active; 'I' for Inactive)
REMARK    1  A    between atoms: C_1  and  C_2
REMARK    2  A    between atoms: C_5  and  C_6
REMARK    3  A    between atoms: N_8  and  C_9
REMARK    4  A    between atoms: C_12  and  C_13
REMARK                            x       y       z     vdW  Elec       q    Type
REMARK                         _______ _______ _______ _____ _____    ______ ____
ROOT
ATOM      1  C   UNL     1       1.457   8.985  19.989  0.00  0.00    +0.000 A 
ATOM      2  C   UNL     1       1.668   7.735  20.568  0.00  0.00    +0.000 A 
ATOM      3  C   UNL     1       2.225   6.686  19.827  0.00  0.00    +0.000 A 
ATOM      4  C   UNL     1       2.594   6.850  18.486  0.00  0.00    +0.000 A 
ATOM      5  C   UNL     1       2.316   8.084  17.887  0.00  0.00    +0.000 A 
ATOM      6  C   UNL     1       1.750   9.141  18.631  0.00  0.00    +0.000 A 
ENDROOT
BRANCH   4   7
ATOM      7  C   UNL     1       3.181   5.702  17.781  0.00  0.00    +0.000 A 
ATOM      8  N   UNL     1       2.557   4.546  17.607  0.00  0.00    +0.000 NA
ATOM      9  N   UNL     1       3.397   3.663  16.980  0.00  0.00    +0.000 NA
ATOM     10  C   UNL     1       4.541   4.274  16.790  0.00  0.00    +0.000 A 
ATOM     11  N   UNL     1       4.450   5.561  17.267  0.00  0.00    +0.000 N 
ATOM     12  C   UNL     1       5.586   6.457  17.330  0.00  0.00    +0.000 C 
ATOM     13  C   UNL     1       6.739   6.022  16.420  0.00  0.00    +0.000 C 
ATOM     14  C   UNL     1       7.008   4.523  16.549  0.00  0.00    +0.000 C 
ATOM     15  C   UNL     1       5.766   3.725  16.153  0.00  0.00    +0.000 C 
ENDBRANCH   4   7
BRANCH   1  18
ATOM     16  C   UNL     1      -0.289  10.674  20.568  0.00  0.00    +0.000 C 
ATOM     17  O   UNL     1      -1.162  10.288  19.793  0.00  0.00    +0.000 OA
ATOM     18  N   UNL     1       0.963  10.098  20.711  0.00  0.00    +0.000 N 
ATOM     19  H   UNL     1       1.553  10.455  21.462  0.00  0.00    +0.000 HD
BRANCH  16  24
ATOM     20  C   UNL     1      -1.522  15.044  24.224  0.00  0.00    +0.000 C 
ATOM     21  C   UNL     1      -1.244  13.899  23.299  0.00  0.00    +0.000 A 
ATOM     22  C   UNL     1      -1.957  12.762  23.280  0.00  0.00    +0.000 A 
ATOM     23  C   UNL     1      -1.615  11.706  22.350  0.00  0.00    +0.000 A 
ATOM     24  C   UNL     1      -0.584  11.822  21.486  0.00  0.00    +0.000 A 
ATOM     25  C   UNL     1       0.210  13.081  21.523  0.00  0.00    +0.000 A 
ATOM     26  O   UNL     1       1.185  13.258  20.793  0.00  0.00    +0.000 OA
ATOM     27  N   UNL     1      -0.187  14.038  22.428  0.00  0.00    +0.000 N 
ATOM     28  H   UNL     1       0.360  14.890  22.434  0.00  0.00    +0.000 HD
ENDBRANCH  16  24
ENDBRANCH   1  18
TORSDOF 3
ENDMDL
MODEL 6
REMARK VINA RESULT:      -8.1      6.477      8.244
REMARK  Name = 
REMARK  4 active torsions:
REMARK  status: ('A' for Active; 'I' for Inactive)
REMARK    1  A    between atoms: C_1  and  C_2
REMARK    2  A    between atoms: C_5  and  C_6
REMARK    3  A    between atoms: N_8  and  C_9
REMARK    4  A    between atoms: C_12  and  C_13
REMARK                            x       y       z     vdW  Elec       q    Type
REMARK                         _______ _______ _______ _____ _____    ______ ____
ROOT
ATOM      1  C   UNL     1       1.081   9.407  19.732  0.00  0.00    +0.000 A 
ATOM      2  C   UNL     1       1.156   8.456  20.748  0.00  0.00    +0.000 A 
ATOM      3  C   UNL     1       1.863   7.262  20.564  0.00  0.00    +0.000 A 
ATOM      4  C   UNL     1       2.521   6.978  19.361  0.00  0.00    +0.000 A 
ATOM      5  C   UNL     1       2.385   7.901  18.318  0.00  0.00    +0.000 A 
ATOM      6  C   UNL     1       1.670   9.103  18.501  0.00  0.00    +0.000 A 
ENDROOT
BRANCH   4   7
ATOM      7  C   UNL     1       3.249   5.706  19.250  0.00  0.00    +0.000 A 
ATOM      8  N   UNL     1       4.567   5.601  19.350  0.00  0.00    +0.000 NA
ATOM      9  N   UNL     1       4.939   4.300  19.130  0.00  0.00    +0.000 NA
ATOM     10  C   UNL     1       3.850   3.616  18.876  0.00  0.00    +0.000 A 
ATOM     11  N   UNL     1       2.762   4.454  18.951  0.00  0.00    +0.000 N 
ATOM     12  C   UNL     1       1.424   4.038  18.590  0.00  0.00    +0.000 C 
ATOM     13  C   UNL     1       1.258   2.514  18.572  0.00  0.00    +0.000 C 
ATOM     14  C   UNL     1       2.429   1.841  17.857  0.00  0.00    +0.000 C 
ATOM     15  C   UNL     1       3.743   2.167  18.568  0.00  0.00    +0.000 C 
ENDBRANCH   4   7
BRANCH   1  18
ATOM     16  C   UNL     1      -0.831  10.987  19.448  0.00  0.00    +0.000 C 
ATOM     17  O   UNL     1      -1.595  10.225  18.859  0.00  0.00    +0.000 OA
ATOM     18  N   UNL     1       0.440  10.659  19.890  0.00  0.00    +0.000 N 
ATOM     19  H   UNL     1       0.928  11.355  20.454  0.00  0.00    +0.000 HD
BRANCH  16  24
ATOM     20  C   UNL     1      -2.712  16.321  20.861  0.00  0.00    +0.000 C 
ATOM     21  C   UNL     1      -2.265  14.932  20.522  0.00  0.00    +0.000 A 
ATOM     22  C   UNL     1      -2.818  13.821  21.034  0.00  0.00    +0.000 A 
ATOM     23  C   UNL     1      -2.319  12.518  20.648  0.00  0.00    +0.000 A 
ATOM     24  C   UNL     1      -1.296  12.374  19.779  0.00  0.00    +0.000 A 
ATOM     25  C   UNL     1      -0.679  13.611  19.227  0.00  0.00    +0.000 A 
ATOM     26  O   UNL     1       0.278  13.572  18.454  0.00  0.00    +0.000 OA
ATOM     27  N   UNL     1      -1.219  14.809  19.635  0.00  0.00    +0.000 N 
ATOM     28  H   UNL     1      -0.791  15.639  19.244  0.00  0.00    +0.000 HD
ENDBRANCH  16  24
ENDBRANCH   1  18
TORSDOF 3
ENDMDL
MODEL 7
REMARK VINA RESULT:      -8.0      6.575      8.325
REMARK  Name = 
REMARK  4 active torsions:
REMARK  status: ('A' for Active; 'I' for Inactive)
REMARK    1  A    between atoms: C_1  and  C_2
REMARK    2  A    between atoms: C_5  and  C_6
REMARK    3  A    between atoms: N_8  and  C_9
REMARK    4  A    between atoms: C_12  and  C_13
REMARK                            x       y       z     vdW  Elec       q    Type
REMARK                         _______ _______ _______ _____ _____    ______ ____
ROOT
ATOM      1  C   UNL     1       1.182   9.676  19.266  0.00  0.00    +0.000 A 
ATOM      2  C   UNL     1       1.750   9.446  18.014  0.00  0.00    +0.000 A 
ATOM      3  C   UNL     1       2.411   8.243  17.735  0.00  0.00    +0.000 A 
ATOM      4  C   UNL     1       2.525   7.230  18.695  0.00  0.00    +0.000 A 
ATOM      5  C   UNL     1       2.017   7.492  19.973  0.00  0.00    +0.000 A 
ATOM      6  C   UNL     1       1.355   8.704  20.256  0.00  0.00    +0.000 A 
ENDROOT
BRANCH   4   7
ATOM      7  C   UNL     1       3.226   5.994  18.321  0.00  0.00    +0.000 A 
ATOM      8  N   UNL     1       4.403   5.970  17.712  0.00  0.00    +0.000 NA
ATOM      9  N   UNL     1       4.748   4.672  17.437  0.00  0.00    +0.000 NA
ATOM     10  C   UNL     1       3.772   3.906  17.860  0.00  0.00    +0.000 A 
ATOM     11  N   UNL     1       2.799   4.690  18.433  0.00  0.00    +0.000 N 
ATOM     12  C   UNL     1       1.527   4.162  18.878  0.00  0.00    +0.000 C 
ATOM     13  C   UNL     1       1.549   2.643  19.078  0.00  0.00    +0.000 C 
ATOM     14  C   UNL     1       2.240   1.943  17.908  0.00  0.00    +0.000 C 
ATOM     15  C   UNL     1       3.685   2.425  17.779  0.00  0.00    +0.000 C 
ENDBRANCH   4   7
BRANCH   1  18
ATOM     16  C   UNL     1      -0.899  11.055  19.312  0.00  0.00    +0.000 C 
ATOM     17  O   UNL     1      -1.650  10.245  18.772  0.00  0.00    +0.000 OA
ATOM     18  N   UNL     1       0.444  10.842  19.577  0.00  0.00    +0.000 N 
ATOM     19  H   UNL     1       0.926  11.559  20.121  0.00  0.00    +0.000 HD
BRANCH  16  24
ATOM     20  C   UNL     1      -3.124  16.078  21.261  0.00  0.00    +0.000 C 
ATOM     21  C   UNL     1      -2.586  14.764  20.784  0.00  0.00    +0.000 A 
ATOM     22  C   UNL     1      -3.028  13.572  21.215  0.00  0.00    +0.000 A 
ATOM     23  C   UNL     1      -2.447  12.351  20.698  0.00  0.00    +0.000 A 
ATOM     24  C   UNL     1      -1.455  12.365  19.782  0.00  0.00    +0.000 A 
ATOM     25  C   UNL     1      -0.960  13.691  19.319  0.00  0.00    +0.000 A 
ATOM     26  O   UNL     1      -0.038  13.797  18.511  0.00  0.00    +0.000 OA
ATOM     27  N   UNL     1      -1.574  14.802  19.852  0.00  0.00    +0.000 N 
ATOM     28  H   UNL     1      -1.229  15.694  19.520  0.00  0.00    +0.000 HD
ENDBRANCH  16  24
ENDBRANCH   1  18
TORSDOF 3
ENDMDL
MODEL 8
REMARK VINA RESULT:      -8.0      6.851      8.959
REMARK  Name = 
REMARK  4 active torsions:
REMARK  status: ('A' for Active; 'I' for Inactive)
REMARK    1  A    between atoms: C_1  and  C_2
REMARK    2  A    between atoms: C_5  and  C_6
REMARK    3  A    between atoms: N_8  and  C_9
REMARK    4  A    between atoms: C_12  and  C_13
REMARK                            x       y       z     vdW  Elec       q    Type
REMARK                         _______ _______ _______ _____ _____    ______ ____
ROOT
ATOM      1  C   UNL     1       0.499   9.672  20.105  0.00  0.00    +0.000 A 
ATOM      2  C   UNL     1       0.879   9.760  18.767  0.00  0.00    +0.000 A 
ATOM      3  C   UNL     1       1.719   8.797  18.194  0.00  0.00    +0.000 A 
ATOM      4  C   UNL     1       2.204   7.713  18.936  0.00  0.00    +0.000 A 
ATOM      5  C   UNL     1       1.879   7.665  20.297  0.00  0.00    +0.000 A 
ATOM      6  C   UNL     1       1.037   8.637  20.876  0.00  0.00    +0.000 A 
ENDROOT
BRANCH   4   7
ATOM      7  C   UNL     1       3.072   6.740  18.258  0.00  0.00    +0.000 A 
ATOM      8  N   UNL     1       4.091   7.078  17.482  0.00  0.00    +0.000 NA
ATOM      9  N   UNL     1       4.651   5.947  16.945  0.00  0.00    +0.000 NA
ATOM     10  C   UNL     1       3.959   4.921  17.378  0.00  0.00    +0.000 A 
ATOM     11  N   UNL     1       2.964   5.368  18.215  0.00  0.00    +0.000 N 
ATOM     12  C   UNL     1       1.941   4.497  18.753  0.00  0.00    +0.000 C 
ATOM     13  C   UNL     1       2.327   3.015  18.691  0.00  0.00    +0.000 C 
ATOM     14  C   UNL     1       2.922   2.657  17.330  0.00  0.00    +0.000 C 
ATOM     15  C   UNL     1       4.179   3.486  17.065  0.00  0.00    +0.000 C 
ENDBRANCH   4   7
BRANCH   1  18
ATOM     16  C   UNL     1      -0.073  11.794  21.289  0.00  0.00    +0.000 C 
ATOM     17  O   UNL     1       1.060  12.269  21.343  0.00  0.00    +0.000 OA
ATOM     18  N   UNL     1      -0.402  10.578  20.714  0.00  0.00    +0.000 N 
ATOM     19  H   UNL     1      -1.394  10.351  20.649  0.00  0.00    +0.000 HD
BRANCH  16  24
ATOM     20  C   UNL     1      -4.451  14.942  23.506  0.00  0.00    +0.000 C 
ATOM     21  C   UNL     1      -3.304  14.135  22.979  0.00  0.00    +0.000 A 
ATOM     22  C   UNL     1      -2.176  13.899  23.666  0.00  0.00    +0.000 A 
ATOM     23  C   UNL     1      -1.118  13.106  23.074  0.00  0.00    +0.000 A 
ATOM     24  C   UNL     1      -1.223  12.589  21.832  0.00  0.00    +0.000 A 
ATOM     25  C   UNL     1      -2.472  12.867  21.071  0.00  0.00    +0.000 A 
ATOM     26  O   UNL     1      -2.639  12.461  19.921  0.00  0.00    +0.000 OA
ATOM     27  N   UNL     1      -3.432  13.618  21.709  0.00  0.00    +0.000 N 
ATOM     28  H   UNL     1      -4.277  13.791  21.179  0.00  0.00    +0.000 HD
ENDBRANCH  16  24
ENDBRANCH   1  18
TORSDOF 3
ENDMDL
MODEL 9
REMARK VINA RESULT:      -7.9      6.463      7.956
REMARK  Name = 
REMARK  4 active torsions:
REMARK  status: ('A' for Active; 'I' for Inactive)
REMARK    1  A    between atoms: C_1  and  C_2
REMARK    2  A    between atoms: C_5  and  C_6
REMARK    3  A    between atoms: N_8  and  C_9
REMARK    4  A    between atoms: C_12  and  C_13
REMARK                            x       y       z     vdW  Elec       q    Type
REMARK                         _______ _______ _______ _____ _____    ______ ____
ROOT
ATOM      1  C   UNL     1       0.907   9.451  19.810  0.00  0.00    +0.000 A 
ATOM      2  C   UNL     1       0.983   8.487  20.814  0.00  0.00    +0.000 A 
ATOM      3  C   UNL     1       1.729   7.316  20.629  0.00  0.00    +0.000 A 
ATOM      4  C   UNL     1       2.425   7.070  19.439  0.00  0.00    +0.000 A 
ATOM      5  C   UNL     1       2.288   8.006  18.407  0.00  0.00    +0.000 A 
ATOM      6  C   UNL     1       1.534   9.183  18.590  0.00  0.00    +0.000 A 
ENDROOT
BRANCH   4   7
ATOM      7  C   UNL     1       3.192   5.822  19.328  0.00  0.00    +0.000 A 
ATOM      8  N   UNL     1       4.509   5.752  19.463  0.00  0.00    +0.000 NA
ATOM      9  N   UNL     1       4.924   4.466  19.232  0.00  0.00    +0.000 NA
ATOM     10  C   UNL     1       3.863   3.756  18.935  0.00  0.00    +0.000 A 
ATOM     11  N   UNL     1       2.750   4.562  18.993  0.00  0.00    +0.000 N 
ATOM     12  C   UNL     1       1.434   4.114  18.587  0.00  0.00    +0.000 C 
ATOM     13  C   UNL     1       1.313   2.587  18.539  0.00  0.00    +0.000 C 
ATOM     14  C   UNL     1       2.523   1.960  17.846  0.00  0.00    +0.000 C 
ATOM     15  C   UNL     1       3.806   2.310  18.599  0.00  0.00    +0.000 C 
ENDBRANCH   4   7
BRANCH   1  18
ATOM     16  C   UNL     1       0.671  11.773  20.697  0.00  0.00    +0.000 C 
ATOM     17  O   UNL     1       1.740  11.832  21.303  0.00  0.00    +0.000 OA
ATOM     18  N   UNL     1       0.226  10.681  19.971  0.00  0.00    +0.000 N 
ATOM     19  H   UNL     1      -0.634  10.803  19.434  0.00  0.00    +0.000 HD
BRANCH  16  24
ATOM     20  C   UNL     1      -2.763  16.483  20.762  0.00  0.00    +0.000 C 
ATOM     21  C   UNL     1      -1.884  15.270  20.792  0.00  0.00    +0.000 A 
ATOM     22  C   UNL     1      -1.427  14.705  21.920  0.00  0.00    +0.000 A 
ATOM     23  C   UNL     1      -0.580  13.532  21.853  0.00  0.00    +0.000 A 
ATOM     24  C   UNL     1      -0.223  12.977  20.676  0.00  0.00    +0.000 A 
ATOM     25  C   UNL     1      -0.722  13.618  19.428  0.00  0.00    +0.000 A 
ATOM     26  O   UNL     1      -0.419  13.197  18.313  0.00  0.00    +0.000 OA
ATOM     27  N   UNL     1      -1.530  14.722  19.580  0.00  0.00    +0.000 N 
ATOM     28  H   UNL     1      -1.866  15.140  18.721  0.00  0.00    +0.000 HD
ENDBRANCH  16  24
ENDBRANCH   1  18
TORSDOF 3
ENDMDL
