MODEL 1
REMARK VINA RESULT:      -8.4      0.000      0.000
REMARK  Name = 
REMARK  6 active torsions:
REMARK  status: ('A' for Active; 'I' for Inactive)
REMARK    1  A    between atoms: C_1  and  C_2
REMARK    2  A    between atoms: C_6  and  C_7
REMARK    3  A    between atoms: N_9  and  C_10
REMARK    4  A    between atoms: C_13  and  N_14
REMARK    5  A    between atoms: C_15  and  C_17
REMARK    6  A    between atoms: C_17  and  C_18
REMARK                            x       y       z     vdW  Elec       q    Type
REMARK                         _______ _______ _______ _____ _____    ______ ____
ROOT
ATOM      1  C   UNL     1       0.828   9.440  19.922  0.00  0.00    +0.000 A 
ATOM      2  C   UNL     1       1.462   9.307  18.687  0.00  0.00    +0.000 A 
ATOM      3  C   UNL     1       2.205   8.174  18.371  0.00  0.00    +0.000 A 
ATOM      4  C   UNL     1       2.355   7.145  19.291  0.00  0.00    +0.000 A 
ATOM      5  C   UNL     1       1.772   7.292  20.557  0.00  0.00    +0.000 A 
ATOM      6  C   UNL     1       1.029   8.442  20.880  0.00  0.00    +0.000 A 
ENDROOT
BRANCH   1   9
ATOM      7  C   UNL     1       0.403  11.704  20.848  0.00  0.00    +0.000 C 
ATOM      8  O   UNL     1       1.567  11.940  21.156  0.00  0.00    +0.000 OA
ATOM      9  N   UNL     1      -0.021  10.533  20.221  0.00  0.00    +0.000 N 
ATOM     10  H   UNL     1      -0.939  10.522  19.807  0.00  0.00    +0.000 HD
BRANCH   7  16
ATOM     11  C   UNL     1      -2.224  11.971  23.049  0.00  0.00    +0.000 C 
ATOM     12  C   UNL     1      -1.643  12.816  21.992  0.00  0.00    +0.000 A 
ATOM     13  O   UNL     1      -2.269  14.017  21.820  0.00  0.00    +0.000 OA
ATOM     14  N   UNL     1      -1.642  14.736  20.824  0.00  0.00    +0.000 NA
ATOM     15  C   UNL     1      -0.641  13.959  20.416  0.00  0.00    +0.000 A 
ATOM     16  C   UNL     1      -0.590  12.720  21.107  0.00  0.00    +0.000 A 
ENDBRANCH   7  16
ENDBRANCH   1   9
BRANCH   4  17
ATOM     17  N   UNL     1       3.044   5.952  18.992  0.00  0.00    +0.000 N 
ATOM     18  C   UNL     1       2.562   4.871  18.256  0.00  0.00    +0.000 C 
ATOM     19  O   UNL     1       1.476   4.844  17.671  0.00  0.00    +0.000 OA
ATOM     20  H   UNL     1       4.000   5.889  19.315  0.00  0.00    +0.000 HD
BRANCH  18  21
ATOM     21  C   UNL     1       3.565   3.656  18.217  0.00  0.00    +0.000 C 
ATOM     22  C   UNL     1       2.965   2.285  17.698  0.00  0.00    +0.000 C 
ATOM     23  C   UNL     1       3.792   1.581  18.789  0.00  0.00    +0.000 C 
ATOM     24  C   UNL     1       3.728   2.893  19.586  0.00  0.00    +0.000 C 
BRANCH  21  25
ATOM     25  C   UNL     1       4.867   4.134  17.392  0.00  0.00    +0.000 A 
ATOM     26  C   UNL     1       6.105   4.423  17.998  0.00  0.00    +0.000 A 
ATOM     27  C   UNL     1       7.237   4.740  17.244  0.00  0.00    +0.000 A 
ATOM     28  C   UNL     1       7.161   4.796  15.856  0.00  0.00    +0.000 A 
ATOM     29  C   UNL     1       5.948   4.558  15.223  0.00  0.00    +0.000 A 
ATOM     30  C   UNL     1       4.823   4.239  15.984  0.00  0.00    +0.000 A 
ENDBRANCH  21  25
ENDBRANCH  18  21
ENDBRANCH   4  17
TORSDOF 5
ENDMDL
MODEL 2
REMARK VINA RESULT:      -8.4      1.132      1.453
REMARK  Name = 
REMARK  6 active torsions:
REMARK  status: ('A' for Active; 'I' for Inactive)
REMARK    1  A    between atoms: C_1  and  C_2
REMARK    2  A    between atoms: C_6  and  C_7
REMARK    3  A    between atoms: N_9  and  C_10
REMARK    4  A    between atoms: C_13  and  N_14
REMARK    5  A    between atoms: C_15  and  C_17
REMARK    6  A    between atoms: C_17  and  C_18
REMARK                            x       y       z     vdW  Elec       q    Type
REMARK                         _______ _______ _______ _____ _____    ______ ____
ROOT
ATOM      1  C   UNL     1       1.141   9.680  19.533  0.00  0.00    +0.000 A 
ATOM      2  C   UNL     1       1.182   8.697  20.521  0.00  0.00    +0.000 A 
ATOM      3  C   UNL     1       1.789   7.465  20.295  0.00  0.00    +0.000 A 
ATOM      4  C   UNL     1       2.358   7.171  19.062  0.00  0.00    +0.000 A 
ATOM      5  C   UNL     1       2.271   8.129  18.042  0.00  0.00    +0.000 A 
ATOM      6  C   UNL     1       1.649   9.369  18.268  0.00  0.00    +0.000 A 
ENDROOT
BRANCH   1   9
ATOM      7  C   UNL     1      -0.655  11.390  19.418  0.00  0.00    +0.000 C 
ATOM      8  O   UNL     1      -1.497  10.661  18.901  0.00  0.00    +0.000 OA
ATOM      9  N   UNL     1       0.626  10.976  19.779  0.00  0.00    +0.000 N 
ATOM     10  H   UNL     1       1.160  11.569  20.393  0.00  0.00    +0.000 HD
BRANCH   7  16
ATOM     11  C   UNL     1      -3.026  12.832  21.448  0.00  0.00    +0.000 C 
ATOM     12  C   UNL     1      -1.982  13.322  20.531  0.00  0.00    +0.000 A 
ATOM     13  O   UNL     1      -1.896  14.682  20.447  0.00  0.00    +0.000 OA
ATOM     14  N   UNL     1      -0.884  15.036  19.581  0.00  0.00    +0.000 NA
ATOM     15  C   UNL     1      -0.368  13.883  19.161  0.00  0.00    +0.000 A 
ATOM     16  C   UNL     1      -1.026  12.753  19.716  0.00  0.00    +0.000 A 
ENDBRANCH   7  16
ENDBRANCH   1   9
BRANCH   4  17
ATOM     17  N   UNL     1       3.039   5.964  18.808  0.00  0.00    +0.000 N 
ATOM     18  C   UNL     1       2.532   4.840  18.158  0.00  0.00    +0.000 C 
ATOM     19  O   UNL     1       1.424   4.775  17.620  0.00  0.00    +0.000 OA
ATOM     20  H   UNL     1       4.007   5.922  19.094  0.00  0.00    +0.000 HD
BRANCH  18  21
ATOM     21  C   UNL     1       3.538   3.626  18.151  0.00  0.00    +0.000 C 
ATOM     22  C   UNL     1       2.948   2.246  17.646  0.00  0.00    +0.000 C 
ATOM     23  C   UNL     1       3.761   1.561  18.759  0.00  0.00    +0.000 C 
ATOM     24  C   UNL     1       3.684   2.885  19.534  0.00  0.00    +0.000 C 
BRANCH  21  25
ATOM     25  C   UNL     1       4.850   4.093  17.336  0.00  0.00    +0.000 A 
ATOM     26  C   UNL     1       6.083   4.382  17.952  0.00  0.00    +0.000 A 
ATOM     27  C   UNL     1       7.223   4.690  17.207  0.00  0.00    +0.000 A 
ATOM     28  C   UNL     1       7.161   4.737  15.818  0.00  0.00    +0.000 A 
ATOM     29  C   UNL     1       5.954   4.499  15.175  0.00  0.00    +0.000 A 
ATOM     30  C   UNL     1       4.820   4.190  15.927  0.00  0.00    +0.000 A 
ENDBRANCH  21  25
ENDBRANCH  18  21
ENDBRANCH   4  17
TORSDOF 5
ENDMDL
MODEL 3
REMARK VINA RESULT:      -8.3      0.670      1.327
REMARK  Name = 
REMARK  6 active torsions:
REMARK  status: ('A' for Active; 'I' for Inactive)
REMARK    1  A    between atoms: C_1  and  C_2
REMARK    2  A    between atoms: C_6  and  C_7
REMARK    3  A    between atoms: N_9  and  C_10
REMARK    4  A    between atoms: C_13  and  N_14
REMARK    5  A    between atoms: C_15  and  C_17
REMARK    6  A    between atoms: C_17  and  C_18
REMARK                            x       y       z     vdW  Elec       q    Type
REMARK                         _______ _______ _______ _____ _____    ______ ____
ROOT
ATOM      1  C   UNL     1       0.946   9.694  19.346  0.00  0.00    +0.000 A 
ATOM      2  C   UNL     1       1.564   9.441  18.121  0.00  0.00    +0.000 A 
ATOM      3  C   UNL     1       2.288   8.273  17.901  0.00  0.00    +0.000 A 
ATOM      4  C   UNL     1       2.435   7.329  18.910  0.00  0.00    +0.000 A 
ATOM      5  C   UNL     1       1.869   7.599  20.163  0.00  0.00    +0.000 A 
ATOM      6  C   UNL     1       1.146   8.784  20.388  0.00  0.00    +0.000 A 
ENDROOT
BRANCH   1   9
ATOM      7  C   UNL     1       0.452  11.901  20.371  0.00  0.00    +0.000 C 
ATOM      8  O   UNL     1       1.526  12.019  20.952  0.00  0.00    +0.000 OA
ATOM      9  N   UNL     1       0.116  10.822  19.553  0.00  0.00    +0.000 N 
ATOM     10  H   UNL     1      -0.682  10.918  18.946  0.00  0.00    +0.000 HD
BRANCH   7  16
ATOM     11  C   UNL     1       0.186  15.057  19.034  0.00  0.00    +0.000 C 
ATOM     12  C   UNL     1      -0.609  14.232  19.960  0.00  0.00    +0.000 A 
ATOM     13  O   UNL     1      -1.748  14.832  20.416  0.00  0.00    +0.000 OA
ATOM     14  N   UNL     1      -2.425  13.976  21.258  0.00  0.00    +0.000 NA
ATOM     15  C   UNL     1      -1.687  12.869  21.292  0.00  0.00    +0.000 A 
ATOM     16  C   UNL     1      -0.513  12.967  20.500  0.00  0.00    +0.000 A 
ENDBRANCH   7  16
ENDBRANCH   1   9
BRANCH   4  17
ATOM     17  N   UNL     1       3.104   6.105  18.713  0.00  0.00    +0.000 N 
ATOM     18  C   UNL     1       2.573   4.943  18.154  0.00  0.00    +0.000 C 
ATOM     19  O   UNL     1       1.448   4.850  17.656  0.00  0.00    +0.000 OA
ATOM     20  H   UNL     1       4.081   6.076  18.972  0.00  0.00    +0.000 HD
BRANCH  18  21
ATOM     21  C   UNL     1       3.575   3.727  18.194  0.00  0.00    +0.000 C 
ATOM     22  C   UNL     1       2.979   2.330  17.742  0.00  0.00    +0.000 C 
ATOM     23  C   UNL     1       3.789   1.686  18.881  0.00  0.00    +0.000 C 
ATOM     24  C   UNL     1       3.716   3.039  19.605  0.00  0.00    +0.000 C 
BRANCH  21  25
ATOM     25  C   UNL     1       4.889   4.157  17.364  0.00  0.00    +0.000 A 
ATOM     26  C   UNL     1       6.130   4.434  17.967  0.00  0.00    +0.000 A 
ATOM     27  C   UNL     1       7.271   4.710  17.210  0.00  0.00    +0.000 A 
ATOM     28  C   UNL     1       7.201   4.735  15.821  0.00  0.00    +0.000 A 
ATOM     29  C   UNL     1       5.985   4.508  15.189  0.00  0.00    +0.000 A 
ATOM     30  C   UNL     1       4.851   4.231  15.954  0.00  0.00    +0.000 A 
ENDBRANCH  21  25
ENDBRANCH  18  21
ENDBRANCH   4  17
TORSDOF 5
ENDMDL
MODEL 4
REMARK VINA RESULT:      -8.3      1.176      2.054
REMARK  Name = 
REMARK  6 active torsions:
REMARK  status: ('A' for Active; 'I' for Inactive)
REMARK    1  A    between atoms: C_1  and  C_2
REMARK    2  A    between atoms: C_6  and  C_7
REMARK    3  A    between atoms: N_9  and  C_10
REMARK    4  A    between atoms: C_13  and  N_14
REMARK    5  A    between atoms: C_15  and  C_17
REMARK    6  A    between atoms: C_17  and  C_18
REMARK                            x       y       z     vdW  Elec       q    Type
REMARK                         _______ _______ _______ _____ _____    ______ ____
ROOT
ATOM      1  C   UNL     1       1.128   9.588  19.610  0.00  0.00    +0.000 A 
ATOM      2  C   UNL     1       1.201   8.605  20.597  0.00  0.00    +0.000 A 
ATOM      3  C   UNL     1       1.821   7.382  20.358  0.00  0.00    +0.000 A 
ATOM      4  C   UNL     1       2.368   7.095  19.115  0.00  0.00    +0.000 A 
ATOM      5  C   UNL     1       2.248   8.051  18.097  0.00  0.00    +0.000 A 
ATOM      6  C   UNL     1       1.614   9.284  18.335  0.00  0.00    +0.000 A 
ENDROOT
BRANCH   1   9
ATOM      7  C   UNL     1      -0.687  11.280  19.511  0.00  0.00    +0.000 C 
ATOM      8  O   UNL     1      -1.522  10.547  18.991  0.00  0.00    +0.000 OA
ATOM      9  N   UNL     1       0.600  10.877  19.866  0.00  0.00    +0.000 N 
ATOM     10  H   UNL     1       1.129  11.471  20.484  0.00  0.00    +0.000 HD
BRANCH   7  16
ATOM     11  C   UNL     1       0.659  14.363  18.802  0.00  0.00    +0.000 C 
ATOM     12  C   UNL     1      -0.521  13.869  19.532  0.00  0.00    +0.000 A 
ATOM     13  O   UNL     1      -1.307  14.850  20.067  0.00  0.00    +0.000 OA
ATOM     14  N   UNL     1      -2.387  14.287  20.711  0.00  0.00    +0.000 NA
ATOM     15  C   UNL     1      -2.241  12.973  20.549  0.00  0.00    +0.000 A 
ATOM     16  C   UNL     1      -1.070  12.638  19.820  0.00  0.00    +0.000 A 
ENDBRANCH   7  16
ENDBRANCH   1   9
BRANCH   4  17
ATOM     17  N   UNL     1       3.060   5.897  18.846  0.00  0.00    +0.000 N 
ATOM     18  C   UNL     1       2.569   4.782  18.169  0.00  0.00    +0.000 C 
ATOM     19  O   UNL     1       1.468   4.721  17.615  0.00  0.00    +0.000 OA
ATOM     20  H   UNL     1       4.025   5.856  19.145  0.00  0.00    +0.000 HD
BRANCH  18  21
ATOM     21  C   UNL     1       3.583   3.576  18.152  0.00  0.00    +0.000 C 
ATOM     22  C   UNL     1       2.989   2.184  17.683  0.00  0.00    +0.000 C 
ATOM     23  C   UNL     1       3.837   1.521  18.784  0.00  0.00    +0.000 C 
ATOM     24  C   UNL     1       3.772   2.856  19.541  0.00  0.00    +0.000 C 
BRANCH  21  25
ATOM     25  C   UNL     1       4.869   4.039  17.296  0.00  0.00    +0.000 A 
ATOM     26  C   UNL     1       4.855   4.188  15.896  0.00  0.00    +0.000 A 
ATOM     27  C   UNL     1       5.959   4.684  15.197  0.00  0.00    +0.000 A 
ATOM     28  C   UNL     1       7.120   5.031  15.878  0.00  0.00    +0.000 A 
ATOM     29  C   UNL     1       7.188   4.860  17.255  0.00  0.00    +0.000 A 
ATOM     30  C   UNL     1       6.081   4.366  17.945  0.00  0.00    +0.000 A 
ENDBRANCH  21  25
ENDBRANCH  18  21
ENDBRANCH   4  17
TORSDOF 5
ENDMDL
MODEL 5
REMARK VINA RESULT:      -8.2      1.386      1.434
REMARK  Name = 
REMARK  6 active torsions:
REMARK  status: ('A' for Active; 'I' for Inactive)
REMARK    1  A    between atoms: C_1  and  C_2
REMARK    2  A    between atoms: C_6  and  C_7
REMARK    3  A    between atoms: N_9  and  C_10
REMARK    4  A    between atoms: C_13  and  N_14
REMARK    5  A    between atoms: C_15  and  C_17
REMARK    6  A    between atoms: C_17  and  C_18
REMARK                            x       y       z     vdW  Elec       q    Type
REMARK                         _______ _______ _______ _____ _____    ______ ____
ROOT
ATOM      1  C   UNL     1       1.043   9.586  19.668  0.00  0.00    +0.000 A 
ATOM      2  C   UNL     1       1.605   9.403  18.405  0.00  0.00    +0.000 A 
ATOM      3  C   UNL     1       2.288   8.235  18.077  0.00  0.00    +0.000 A 
ATOM      4  C   UNL     1       2.448   7.221  19.012  0.00  0.00    +0.000 A 
ATOM      5  C   UNL     1       1.939   7.418  20.303  0.00  0.00    +0.000 A 
ATOM      6  C   UNL     1       1.258   8.602  20.637  0.00  0.00    +0.000 A 
ENDROOT
BRANCH   1   9
ATOM      7  C   UNL     1      -1.055  10.907  19.541  0.00  0.00    +0.000 C 
ATOM      8  O   UNL     1      -1.685  10.091  18.876  0.00  0.00    +0.000 OA
ATOM      9  N   UNL     1       0.252  10.718  19.985  0.00  0.00    +0.000 N 
ATOM     10  H   UNL     1       0.603  11.330  20.703  0.00  0.00    +0.000 HD
BRANCH   7  16
ATOM     11  C   UNL     1      -4.277  12.070  19.240  0.00  0.00    +0.000 C 
ATOM     12  C   UNL     1      -3.017  12.585  19.803  0.00  0.00    +0.000 A 
ATOM     13  O   UNL     1      -3.114  13.827  20.363  0.00  0.00    +0.000 OA
ATOM     14  N   UNL     1      -1.892  14.209  20.873  0.00  0.00    +0.000 NA
ATOM     15  C   UNL     1      -1.076  13.188  20.619  0.00  0.00    +0.000 A 
ATOM     16  C   UNL     1      -1.723  12.127  19.931  0.00  0.00    +0.000 A 
ENDBRANCH   7  16
ENDBRANCH   1   9
BRANCH   4  17
ATOM     17  N   UNL     1       3.075   5.997  18.706  0.00  0.00    +0.000 N 
ATOM     18  C   UNL     1       2.484   4.880  18.117  0.00  0.00    +0.000 C 
ATOM     19  O   UNL     1       1.329   4.838  17.686  0.00  0.00    +0.000 OA
ATOM     20  H   UNL     1       4.065   5.934  18.900  0.00  0.00    +0.000 HD
BRANCH  18  21
ATOM     21  C   UNL     1       3.458   3.644  18.027  0.00  0.00    +0.000 C 
ATOM     22  C   UNL     1       2.835   2.321  17.418  0.00  0.00    +0.000 C 
ATOM     23  C   UNL     1       3.621   1.534  18.482  0.00  0.00    +0.000 C 
ATOM     24  C   UNL     1       3.574   2.800  19.352  0.00  0.00    +0.000 C 
BRANCH  21  25
ATOM     25  C   UNL     1       4.788   4.134  17.256  0.00  0.00    +0.000 A 
ATOM     26  C   UNL     1       5.996   4.438  17.912  0.00  0.00    +0.000 A 
ATOM     27  C   UNL     1       7.155   4.766  17.204  0.00  0.00    +0.000 A 
ATOM     28  C   UNL     1       7.136   4.818  15.815  0.00  0.00    +0.000 A 
ATOM     29  C   UNL     1       5.953   4.565  15.132  0.00  0.00    +0.000 A 
ATOM     30  C   UNL     1       4.801   4.236  15.847  0.00  0.00    +0.000 A 
ENDBRANCH  21  25
ENDBRANCH  18  21
ENDBRANCH   4  17
TORSDOF 5
ENDMDL
MODEL 6
REMARK VINA RESULT:      -8.2      1.334      1.547
REMARK  Name = 
REMARK  6 active torsions:
REMARK  status: ('A' for Active; 'I' for Inactive)
REMARK    1  A    between atoms: C_1  and  C_2
REMARK    2  A    between atoms: C_6  and  C_7
REMARK    3  A    between atoms: N_9  and  C_10
REMARK    4  A    between atoms: C_13  and  N_14
REMARK    5  A    between atoms: C_15  and  C_17
REMARK    6  A    between atoms: C_17  and  C_18
REMARK                            x       y       z     vdW  Elec       q    Type
REMARK                         _______ _______ _______ _____ _____    ______ ____
ROOT
ATOM      1  C   UNL     1       1.054   9.589  19.648  0.00  0.00    +0.000 A 
ATOM      2  C   UNL     1       1.636   9.399  18.395  0.00  0.00    +0.000 A 
ATOM      3  C   UNL     1       2.324   8.230  18.084  0.00  0.00    +0.000 A 
ATOM      4  C   UNL     1       2.471   7.222  19.027  0.00  0.00    +0.000 A 
ATOM      5  C   UNL     1       1.942   7.425  20.309  0.00  0.00    +0.000 A 
ATOM      6  C   UNL     1       1.254   8.611  20.626  0.00  0.00    +0.000 A 
ENDROOT
BRANCH   1   9
ATOM      7  C   UNL     1      -1.013  10.945  19.419  0.00  0.00    +0.000 C 
ATOM      8  O   UNL     1      -1.606  10.160  18.686  0.00  0.00    +0.000 OA
ATOM      9  N   UNL     1       0.258  10.722  19.946  0.00  0.00    +0.000 N 
ATOM     10  H   UNL     1       0.565  11.306  20.707  0.00  0.00    +0.000 HD
BRANCH   7  16
ATOM     11  C   UNL     1       0.041  14.126  20.188  0.00  0.00    +0.000 C 
ATOM     12  C   UNL     1      -1.257  13.434  20.111  0.00  0.00    +0.000 A 
ATOM     13  O   UNL     1      -2.335  14.220  20.401  0.00  0.00    +0.000 OA
ATOM     14  N   UNL     1      -3.496  13.487  20.285  0.00  0.00    +0.000 NA
ATOM     15  C   UNL     1      -3.101  12.269  19.919  0.00  0.00    +0.000 A 
ATOM     16  C   UNL     1      -1.691  12.162  19.802  0.00  0.00    +0.000 A 
ENDBRANCH   7  16
ENDBRANCH   1   9
BRANCH   4  17
ATOM     17  N   UNL     1       3.103   5.996  18.738  0.00  0.00    +0.000 N 
ATOM     18  C   UNL     1       2.531   4.887  18.117  0.00  0.00    +0.000 C 
ATOM     19  O   UNL     1       1.394   4.854  17.638  0.00  0.00    +0.000 OA
ATOM     20  H   UNL     1       4.084   5.926  18.972  0.00  0.00    +0.000 HD
BRANCH  18  21
ATOM     21  C   UNL     1       3.501   3.646  18.057  0.00  0.00    +0.000 C 
ATOM     22  C   UNL     1       2.868   2.304  17.501  0.00  0.00    +0.000 C 
ATOM     23  C   UNL     1       3.665   1.553  18.582  0.00  0.00    +0.000 C 
ATOM     24  C   UNL     1       3.631   2.847  19.409  0.00  0.00    +0.000 C 
BRANCH  21  25
ATOM     25  C   UNL     1       4.822   4.106  17.254  0.00  0.00    +0.000 A 
ATOM     26  C   UNL     1       6.054   4.377  17.880  0.00  0.00    +0.000 A 
ATOM     27  C   UNL     1       7.203   4.679  17.144  0.00  0.00    +0.000 A 
ATOM     28  C   UNL     1       7.149   4.738  15.756  0.00  0.00    +0.000 A 
ATOM     29  C   UNL     1       5.943   4.518  15.103  0.00  0.00    +0.000 A 
ATOM     30  C   UNL     1       4.802   4.214  15.846  0.00  0.00    +0.000 A 
ENDBRANCH  21  25
ENDBRANCH  18  21
ENDBRANCH   4  17
TORSDOF 5
ENDMDL
MODEL 7
REMARK VINA RESULT:      -8.0      1.339      1.972
REMARK  Name = 
REMARK  6 active torsions:
REMARK  status: ('A' for Active; 'I' for Inactive)
REMARK    1  A    between atoms: C_1  and  C_2
REMARK    2  A    between atoms: C_6  and  C_7
REMARK    3  A    between atoms: N_9  and  C_10
REMARK    4  A    between atoms: C_13  and  N_14
REMARK    5  A    between atoms: C_15  and  C_17
REMARK    6  A    between atoms: C_17  and  C_18
REMARK                            x       y       z     vdW  Elec       q    Type
REMARK                         _______ _______ _______ _____ _____    ______ ____
ROOT
ATOM      1  C   UNL     1       1.105   9.789  19.119  0.00  0.00    +0.000 A 
ATOM      2  C   UNL     1       1.236   8.935  20.213  0.00  0.00    +0.000 A 
ATOM      3  C   UNL     1       1.872   7.702  20.100  0.00  0.00    +0.000 A 
ATOM      4  C   UNL     1       2.380   7.277  18.879  0.00  0.00    +0.000 A 
ATOM      5  C   UNL     1       2.202   8.100  17.759  0.00  0.00    +0.000 A 
ATOM      6  C   UNL     1       1.550   9.342  17.873  0.00  0.00    +0.000 A 
ENDROOT
BRANCH   1   9
ATOM      7  C   UNL     1       1.263  12.262  18.966  0.00  0.00    +0.000 C 
ATOM      8  O   UNL     1       2.413  12.294  18.538  0.00  0.00    +0.000 OA
ATOM      9  N   UNL     1       0.559  11.091  19.239  0.00  0.00    +0.000 N 
ATOM     10  H   UNL     1      -0.438  11.156  19.368  0.00  0.00    +0.000 HD
BRANCH   7  16
ATOM     11  C   UNL     1      -1.852  13.120  20.141  0.00  0.00    +0.000 C 
ATOM     12  C   UNL     1      -0.679  13.850  19.629  0.00  0.00    +0.000 A 
ATOM     13  O   UNL     1      -0.822  15.208  19.610  0.00  0.00    +0.000 OA
ATOM     14  N   UNL     1       0.331  15.794  19.133  0.00  0.00    +0.000 NA
ATOM     15  C   UNL     1       1.155  14.781  18.878  0.00  0.00    +0.000 A 
ATOM     16  C   UNL     1       0.574  13.517  19.159  0.00  0.00    +0.000 A 
ENDBRANCH   7  16
ENDBRANCH   1   9
BRANCH   4  17
ATOM     17  N   UNL     1       3.088   6.067  18.731  0.00  0.00    +0.000 N 
ATOM     18  C   UNL     1       2.609   4.883  18.171  0.00  0.00    +0.000 C 
ATOM     19  O   UNL     1       1.508   4.752  17.631  0.00  0.00    +0.000 OA
ATOM     20  H   UNL     1       4.054   6.069  19.027  0.00  0.00    +0.000 HD
BRANCH  18  21
ATOM     21  C   UNL     1       3.640   3.694  18.272  0.00  0.00    +0.000 C 
ATOM     22  C   UNL     1       3.066   2.256  17.939  0.00  0.00    +0.000 C 
ATOM     23  C   UNL     1       3.920   1.714  19.099  0.00  0.00    +0.000 C 
ATOM     24  C   UNL     1       3.835   3.114  19.725  0.00  0.00    +0.000 C 
BRANCH  21  25
ATOM     25  C   UNL     1       4.922   4.091  17.377  0.00  0.00    +0.000 A 
ATOM     26  C   UNL     1       4.892   4.166  15.971  0.00  0.00    +0.000 A 
ATOM     27  C   UNL     1       5.994   4.607  15.234  0.00  0.00    +0.000 A 
ATOM     28  C   UNL     1       7.170   4.969  15.882  0.00  0.00    +0.000 A 
ATOM     29  C   UNL     1       7.253   4.870  17.265  0.00  0.00    +0.000 A 
ATOM     30  C   UNL     1       6.147   4.431  17.993  0.00  0.00    +0.000 A 
ENDBRANCH  21  25
ENDBRANCH  18  21
ENDBRANCH   4  17
TORSDOF 5
ENDMDL
MODEL 8
REMARK VINA RESULT:      -8.0      1.222      2.707
REMARK  Name = 
REMARK  6 active torsions:
REMARK  status: ('A' for Active; 'I' for Inactive)
REMARK    1  A    between atoms: C_1  and  C_2
REMARK    2  A    between atoms: C_6  and  C_7
REMARK    3  A    between atoms: N_9  and  C_10
REMARK    4  A    between atoms: C_13  and  N_14
REMARK    5  A    between atoms: C_15  and  C_17
REMARK    6  A    between atoms: C_17  and  C_18
REMARK                            x       y       z     vdW  Elec       q    Type
REMARK                         _______ _______ _______ _____ _____    ______ ____
ROOT
ATOM      1  C   UNL     1       0.932   9.427  19.467  0.00  0.00    +0.000 A 
ATOM      2  C   UNL     1       1.361   9.455  18.140  0.00  0.00    +0.000 A 
ATOM      3  C   UNL     1       2.166   8.448  17.616  0.00  0.00    +0.000 A 
ATOM      4  C   UNL     1       2.585   7.390  18.412  0.00  0.00    +0.000 A 
ATOM      5  C   UNL     1       2.210   7.381  19.762  0.00  0.00    +0.000 A 
ATOM      6  C   UNL     1       1.405   8.404  20.294  0.00  0.00    +0.000 A 
ENDROOT
BRANCH   1   9
ATOM      7  C   UNL     1       0.373  11.694  20.312  0.00  0.00    +0.000 C 
ATOM      8  O   UNL     1       1.484  12.181  20.127  0.00  0.00    +0.000 OA
ATOM      9  N   UNL     1       0.026  10.383  19.988  0.00  0.00    +0.000 N 
ATOM     10  H   UNL     1      -0.952  10.143  19.964  0.00  0.00    +0.000 HD
BRANCH   7  16
ATOM     11  C   UNL     1      -1.665  11.503  23.074  0.00  0.00    +0.000 C 
ATOM     12  C   UNL     1      -1.475  12.455  21.966  0.00  0.00    +0.000 A 
ATOM     13  O   UNL     1      -2.285  13.554  22.019  0.00  0.00    +0.000 OA
ATOM     14  N   UNL     1      -2.019  14.385  20.953  0.00  0.00    +0.000 NA
ATOM     15  C   UNL     1      -1.046  13.780  20.276  0.00  0.00    +0.000 A 
ATOM     16  C   UNL     1      -0.661  12.543  20.857  0.00  0.00    +0.000 A 
ENDBRANCH   7  16
ENDBRANCH   1   9
BRANCH   4  17
ATOM     17  N   UNL     1       3.346   6.315  17.909  0.00  0.00    +0.000 N 
ATOM     18  C   UNL     1       4.652   6.372  17.423  0.00  0.00    +0.000 C 
ATOM     19  O   UNL     1       5.373   7.372  17.452  0.00  0.00    +0.000 OA
ATOM     20  H   UNL     1       2.913   5.402  17.937  0.00  0.00    +0.000 HD
BRANCH  18  21
ATOM     21  C   UNL     1       5.149   4.997  16.834  0.00  0.00    +0.000 C 
ATOM     22  C   UNL     1       6.721   4.814  16.749  0.00  0.00    +0.000 C 
ATOM     23  C   UNL     1       6.504   4.123  15.390  0.00  0.00    +0.000 C 
ATOM     24  C   UNL     1       5.208   4.938  15.261  0.00  0.00    +0.000 C 
BRANCH  21  25
ATOM     25  C   UNL     1       4.416   3.824  17.665  0.00  0.00    +0.000 A 
ATOM     26  C   UNL     1       4.784   3.455  18.973  0.00  0.00    +0.000 A 
ATOM     27  C   UNL     1       4.065   2.501  19.697  0.00  0.00    +0.000 A 
ATOM     28  C   UNL     1       2.964   1.872  19.127  0.00  0.00    +0.000 A 
ATOM     29  C   UNL     1       2.594   2.178  17.824  0.00  0.00    +0.000 A 
ATOM     30  C   UNL     1       3.317   3.134  17.108  0.00  0.00    +0.000 A 
ENDBRANCH  21  25
ENDBRANCH  18  21
ENDBRANCH   4  17
TORSDOF 5
ENDMDL
MODEL 9
REMARK VINA RESULT:      -8.0      1.848      3.205
REMARK  Name = 
REMARK  6 active torsions:
REMARK  status: ('A' for Active; 'I' for Inactive)
REMARK    1  A    between atoms: C_1  and  C_2
REMARK    2  A    between atoms: C_6  and  C_7
REMARK    3  A    between atoms: N_9  and  C_10
REMARK    4  A    between atoms: C_13  and  N_14
REMARK    5  A    between atoms: C_15  and  C_17
REMARK    6  A    between atoms: C_17  and  C_18
REMARK                            x       y       z     vdW  Elec       q    Type
REMARK                         _______ _______ _______ _____ _____    ______ ____
ROOT
ATOM      1  C   UNL     1       1.049   9.693  19.393  0.00  0.00    +0.000 A 
ATOM      2  C   UNL     1       1.571   9.710  18.100  0.00  0.00    +0.000 A 
ATOM      3  C   UNL     1       2.321   8.647  17.606  0.00  0.00    +0.000 A 
ATOM      4  C   UNL     1       2.591   7.540  18.400  0.00  0.00    +0.000 A 
ATOM      5  C   UNL     1       2.122   7.536  19.721  0.00  0.00    +0.000 A 
ATOM      6  C   UNL     1       1.372   8.615  20.223  0.00  0.00    +0.000 A 
ENDROOT
BRANCH   1   9
ATOM      7  C   UNL     1      -1.119  10.901  19.447  0.00  0.00    +0.000 C 
ATOM      8  O   UNL     1      -1.697  10.170  18.649  0.00  0.00    +0.000 OA
ATOM      9  N   UNL     1       0.194  10.713  19.876  0.00  0.00    +0.000 N 
ATOM     10  H   UNL     1       0.504  11.220  20.689  0.00  0.00    +0.000 HD
BRANCH   7  16
ATOM     11  C   UNL     1      -4.335  12.064  19.089  0.00  0.00    +0.000 C 
ATOM     12  C   UNL     1      -3.148  12.463  19.865  0.00  0.00    +0.000 A 
ATOM     13  O   UNL     1      -3.334  13.558  20.660  0.00  0.00    +0.000 OA
ATOM     14  N   UNL     1      -2.176  13.838  21.353  0.00  0.00    +0.000 NA
ATOM     15  C   UNL     1      -1.309  12.902  20.971  0.00  0.00    +0.000 A 
ATOM     16  C   UNL     1      -1.857  12.004  20.018  0.00  0.00    +0.000 A 
ENDBRANCH   7  16
ENDBRANCH   1   9
BRANCH   4  17
ATOM     17  N   UNL     1       3.290   6.414  17.922  0.00  0.00    +0.000 N 
ATOM     18  C   UNL     1       4.612   6.377  17.481  0.00  0.00    +0.000 C 
ATOM     19  O   UNL     1       5.401   7.324  17.535  0.00  0.00    +0.000 OA
ATOM     20  H   UNL     1       2.793   5.534  17.934  0.00  0.00    +0.000 HD
BRANCH  18  21
ATOM     21  C   UNL     1       5.031   4.969  16.908  0.00  0.00    +0.000 C 
ATOM     22  C   UNL     1       6.585   4.660  16.911  0.00  0.00    +0.000 C 
ATOM     23  C   UNL     1       6.392   3.997  15.535  0.00  0.00    +0.000 C 
ATOM     24  C   UNL     1       5.176   4.914  15.340  0.00  0.00    +0.000 C 
BRANCH  21  25
ATOM     25  C   UNL     1       4.159   3.855  17.683  0.00  0.00    +0.000 A 
ATOM     26  C   UNL     1       3.000   3.266  17.144  0.00  0.00    +0.000 A 
ATOM     27  C   UNL     1       2.324   2.235  17.802  0.00  0.00    +0.000 A 
ATOM     28  C   UNL     1       2.779   1.773  19.033  0.00  0.00    +0.000 A 
ATOM     29  C   UNL     1       3.896   2.358  19.617  0.00  0.00    +0.000 A 
ATOM     30  C   UNL     1       4.565   3.385  18.952  0.00  0.00    +0.000 A 
ENDBRANCH  21  25
ENDBRANCH  18  21
ENDBRANCH   4  17
TORSDOF 5
ENDMDL
