MODEL 1
REMARK VINA RESULT:      -9.0      0.000      0.000
REMARK  Name = 
REMARK  6 active torsions:
REMARK  status: ('A' for Active; 'I' for Inactive)
REMARK    1  A    between atoms: C_2  and  C_17
REMARK    2  A    between atoms: N_3  and  C_4
REMARK    3  A    between atoms: C_9  and  O_10
REMARK    4  A    between atoms: O_10  and  C_11
REMARK    5  A    between atoms: C_21  and  C_22
REMARK    6  A    between atoms: C_22  and  N_23
REMARK                            x       y       z     vdW  Elec       q    Type
REMARK                         _______ _______ _______ _____ _____    ______ ____
ROOT
ATOM      1  O   UNL     1       3.066   8.188  16.786  0.00  0.00    +0.000 OA
ATOM      2  C   UNL     1       2.962   7.729  17.921  0.00  0.00    +0.000 C 
ATOM      3  N   UNL     1       3.636   6.630  18.444  0.00  0.00    +0.000 N 
ATOM      4  H   UNL     1       3.321   6.244  19.327  0.00  0.00    +0.000 HD
ENDROOT
BRANCH   3   5
ATOM      5  C   UNL     1       4.602   5.846  17.755  0.00  0.00    +0.000 A 
ATOM      6  C   UNL     1       5.920   6.297  17.584  0.00  0.00    +0.000 A 
ATOM      7  C   UNL     1       6.856   5.559  16.859  0.00  0.00    +0.000 A 
ATOM      8  C   UNL     1       6.481   4.369  16.257  0.00  0.00    +0.000 A 
ATOM      9  C   UNL     1       5.178   3.898  16.414  0.00  0.00    +0.000 A 
ATOM     10  C   UNL     1       4.250   4.587  17.218  0.00  0.00    +0.000 A 
BRANCH  10  11
ATOM     11  O   UNL     1       2.978   4.081  17.468  0.00  0.00    +0.000 OA
BRANCH  11  12
ATOM     12  C   UNL     1       2.657   3.728  18.770  0.00  0.00    +0.000 A 
ATOM     13  C   UNL     1       3.524   3.001  19.597  0.00  0.00    +0.000 A 
ATOM     14  C   UNL     1       3.100   2.567  20.856  0.00  0.00    +0.000 A 
ATOM     15  C   UNL     1       1.838   2.920  21.326  0.00  0.00    +0.000 A 
ATOM     16  C   UNL     1       1.001   3.716  20.542  0.00  0.00    +0.000 A 
ATOM     17  C   UNL     1       1.411   4.120  19.264  0.00  0.00    +0.000 A 
ENDBRANCH  11  12
ENDBRANCH  10  11
ENDBRANCH   3   5
BRANCH   2  18
ATOM     18  C   UNL     1       1.974   8.386  18.818  0.00  0.00    +0.000 A 
ATOM     19  C   UNL     1       1.821   7.892  20.122  0.00  0.00    +0.000 A 
ATOM     20  C   UNL     1       0.893   8.472  20.987  0.00  0.00    +0.000 A 
ATOM     21  C   UNL     1       0.120   9.552  20.554  0.00  0.00    +0.000 A 
ATOM     22  C   UNL     1       0.267  10.061  19.254  0.00  0.00    +0.000 A 
ATOM     23  C   UNL     1       1.176   9.447  18.378  0.00  0.00    +0.000 A 
BRANCH  22  24
ATOM     24  C   UNL     1      -0.517  11.272  18.809  0.00  0.00    +0.000 C 
BRANCH  24  25
ATOM     25  N   UNL     1      -1.777  10.954  18.172  0.00  0.00    +0.000 N 
ATOM     26  C   UNL     1      -1.913   9.981  17.117  0.00  0.00    +0.000 C 
ATOM     27  C   UNL     1      -3.303  10.253  16.570  0.00  0.00    +0.000 C 
ATOM     28  C   UNL     1      -4.070  10.786  17.774  0.00  0.00    +0.000 C 
ATOM     29  C   UNL     1      -2.995  11.468  18.582  0.00  0.00    +0.000 C 
ATOM     30  O   UNL     1      -3.185  12.288  19.465  0.00  0.00    +0.000 OA
ENDBRANCH  24  25
ENDBRANCH  22  24
ENDBRANCH   2  18
TORSDOF 6
ENDMDL
MODEL 2
REMARK VINA RESULT:      -8.7      1.813      8.502
REMARK  Name = 
REMARK  6 active torsions:
REMARK  status: ('A' for Active; 'I' for Inactive)
REMARK    1  A    between atoms: C_2  and  C_17
REMARK    2  A    between atoms: N_3  and  C_4
REMARK    3  A    between atoms: C_9  and  O_10
REMARK    4  A    between atoms: O_10  and  C_11
REMARK    5  A    between atoms: C_21  and  C_22
REMARK    6  A    between atoms: C_22  and  N_23
REMARK                            x       y       z     vdW  Elec       q    Type
REMARK                         _______ _______ _______ _____ _____    ______ ____
ROOT
ATOM      1  O   UNL     1       2.266   9.288  17.188  0.00  0.00    +0.000 OA
ATOM      2  C   UNL     1       1.911   9.060  18.341  0.00  0.00    +0.000 C 
ATOM      3  N   UNL     1       1.358   9.965  19.241  0.00  0.00    +0.000 N 
ATOM      4  H   UNL     1       1.285   9.696  20.216  0.00  0.00    +0.000 HD
ENDROOT
BRANCH   3   5
ATOM      5  C   UNL     1       1.071  11.332  18.971  0.00  0.00    +0.000 A 
ATOM      6  C   UNL     1       2.098  12.263  18.750  0.00  0.00    +0.000 A 
ATOM      7  C   UNL     1       1.825  13.615  18.541  0.00  0.00    +0.000 A 
ATOM      8  C   UNL     1       0.518  14.071  18.588  0.00  0.00    +0.000 A 
ATOM      9  C   UNL     1      -0.521  13.166  18.805  0.00  0.00    +0.000 A 
ATOM     10  C   UNL     1      -0.266  11.786  18.924  0.00  0.00    +0.000 A 
BRANCH  10  11
ATOM     11  O   UNL     1      -1.296  10.858  19.039  0.00  0.00    +0.000 OA
BRANCH  11  12
ATOM     12  C   UNL     1      -2.180  10.724  17.980  0.00  0.00    +0.000 A 
ATOM     13  C   UNL     1      -1.894   9.958  16.842  0.00  0.00    +0.000 A 
ATOM     14  C   UNL     1      -2.769   9.958  15.752  0.00  0.00    +0.000 A 
ATOM     15  C   UNL     1      -3.969  10.661  15.823  0.00  0.00    +0.000 A 
ATOM     16  C   UNL     1      -4.300  11.356  16.987  0.00  0.00    +0.000 A 
ATOM     17  C   UNL     1      -3.406  11.388  18.066  0.00  0.00    +0.000 A 
ENDBRANCH  11  12
ENDBRANCH  10  11
ENDBRANCH   3   5
BRANCH   2  18
ATOM     18  C   UNL     1       2.146   7.682  18.851  0.00  0.00    +0.000 A 
ATOM     19  C   UNL     1       1.699   7.360  20.140  0.00  0.00    +0.000 A 
ATOM     20  C   UNL     1       1.915   6.084  20.659  0.00  0.00    +0.000 A 
ATOM     21  C   UNL     1       2.572   5.122  19.887  0.00  0.00    +0.000 A 
ATOM     22  C   UNL     1       3.019   5.428  18.591  0.00  0.00    +0.000 A 
ATOM     23  C   UNL     1       2.831   6.727  18.093  0.00  0.00    +0.000 A 
BRANCH  22  24
ATOM     24  C   UNL     1       3.665   4.370  17.731  0.00  0.00    +0.000 C 
BRANCH  24  25
ATOM     25  N   UNL     1       5.091   4.545  17.556  0.00  0.00    +0.000 N 
ATOM     26  C   UNL     1       6.015   4.695  18.652  0.00  0.00    +0.000 C 
ATOM     27  C   UNL     1       7.285   5.177  17.973  0.00  0.00    +0.000 C 
ATOM     28  C   UNL     1       7.212   4.558  16.583  0.00  0.00    +0.000 C 
ATOM     29  C   UNL     1       5.728   4.477  16.329  0.00  0.00    +0.000 C 
ATOM     30  O   UNL     1       5.203   4.332  15.238  0.00  0.00    +0.000 OA
ENDBRANCH  24  25
ENDBRANCH  22  24
ENDBRANCH   2  18
TORSDOF 6
ENDMDL
MODEL 3
REMARK VINA RESULT:      -8.7      1.864      8.414
REMARK  Name = 
REMARK  6 active torsions:
REMARK  status: ('A' for Active; 'I' for Inactive)
REMARK    1  A    between atoms: C_2  and  C_17
REMARK    2  A    between atoms: N_3  and  C_4
REMARK    3  A    between atoms: C_9  and  O_10
REMARK    4  A    between atoms: O_10  and  C_11
REMARK    5  A    between atoms: C_21  and  C_22
REMARK    6  A    between atoms: C_22  and  N_23
REMARK                            x       y       z     vdW  Elec       q    Type
REMARK                         _______ _______ _______ _____ _____    ______ ____
ROOT
ATOM      1  O   UNL     1       1.965   9.455  17.313  0.00  0.00    +0.000 OA
ATOM      2  C   UNL     1       1.728   9.263  18.503  0.00  0.00    +0.000 C 
ATOM      3  N   UNL     1       1.255  10.195  19.422  0.00  0.00    +0.000 N 
ATOM      4  H   UNL     1       1.281   9.959  20.408  0.00  0.00    +0.000 HD
ENDROOT
BRANCH   3   5
ATOM      5  C   UNL     1       0.928  11.549  19.135  0.00  0.00    +0.000 A 
ATOM      6  C   UNL     1       1.928  12.514  18.938  0.00  0.00    +0.000 A 
ATOM      7  C   UNL     1       1.614  13.855  18.714  0.00  0.00    +0.000 A 
ATOM      8  C   UNL     1       0.290  14.265  18.722  0.00  0.00    +0.000 A 
ATOM      9  C   UNL     1      -0.721  13.325  18.914  0.00  0.00    +0.000 A 
ATOM     10  C   UNL     1      -0.422  11.956  19.049  0.00  0.00    +0.000 A 
BRANCH  10  11
ATOM     11  O   UNL     1      -1.422  10.992  19.140  0.00  0.00    +0.000 OA
BRANCH  11  12
ATOM     12  C   UNL     1      -2.242  10.792  18.041  0.00  0.00    +0.000 A 
ATOM     13  C   UNL     1      -1.887   9.965  16.967  0.00  0.00    +0.000 A 
ATOM     14  C   UNL     1      -2.697   9.896  15.830  0.00  0.00    +0.000 A 
ATOM     15  C   UNL     1      -3.902  10.592  15.792  0.00  0.00    +0.000 A 
ATOM     16  C   UNL     1      -4.304  11.350  16.893  0.00  0.00    +0.000 A 
ATOM     17  C   UNL     1      -3.474  11.449  18.018  0.00  0.00    +0.000 A 
ENDBRANCH  11  12
ENDBRANCH  10  11
ENDBRANCH   3   5
BRANCH   2  18
ATOM     18  C   UNL     1       2.026   7.906  19.033  0.00  0.00    +0.000 A 
ATOM     19  C   UNL     1       1.503   7.545  20.282  0.00  0.00    +0.000 A 
ATOM     20  C   UNL     1       1.775   6.287  20.819  0.00  0.00    +0.000 A 
ATOM     21  C   UNL     1       2.564   5.381  20.105  0.00  0.00    +0.000 A 
ATOM     22  C   UNL     1       3.089   5.727  18.849  0.00  0.00    +0.000 A 
ATOM     23  C   UNL     1       2.842   7.009  18.334  0.00  0.00    +0.000 A 
BRANCH  22  24
ATOM     24  C   UNL     1       3.882   4.725  18.045  0.00  0.00    +0.000 C 
BRANCH  24  25
ATOM     25  N   UNL     1       5.185   5.201  17.636  0.00  0.00    +0.000 N 
ATOM     26  C   UNL     1       5.488   5.643  16.298  0.00  0.00    +0.000 C 
ATOM     27  C   UNL     1       7.005   5.709  16.288  0.00  0.00    +0.000 C 
ATOM     28  C   UNL     1       7.365   6.030  17.734  0.00  0.00    +0.000 C 
ATOM     29  C   UNL     1       6.244   5.385  18.510  0.00  0.00    +0.000 C 
ATOM     30  O   UNL     1       6.265   5.124  19.700  0.00  0.00    +0.000 OA
ENDBRANCH  24  25
ENDBRANCH  22  24
ENDBRANCH   2  18
TORSDOF 6
ENDMDL
MODEL 4
REMARK VINA RESULT:      -8.6      2.018      8.407
REMARK  Name = 
REMARK  6 active torsions:
REMARK  status: ('A' for Active; 'I' for Inactive)
REMARK    1  A    between atoms: C_2  and  C_17
REMARK    2  A    between atoms: N_3  and  C_4
REMARK    3  A    between atoms: C_9  and  O_10
REMARK    4  A    between atoms: O_10  and  C_11
REMARK    5  A    between atoms: C_21  and  C_22
REMARK    6  A    between atoms: C_22  and  N_23
REMARK                            x       y       z     vdW  Elec       q    Type
REMARK                         _______ _______ _______ _____ _____    ______ ____
ROOT
ATOM      1  O   UNL     1       1.200   9.570  21.210  0.00  0.00    +0.000 OA
ATOM      2  C   UNL     1       1.424   9.184  20.066  0.00  0.00    +0.000 C 
ATOM      3  N   UNL     1       1.308   9.926  18.895  0.00  0.00    +0.000 N 
ATOM      4  H   UNL     1       1.340   9.437  18.006  0.00  0.00    +0.000 HD
ENDROOT
BRANCH   3   5
ATOM      5  C   UNL     1       0.931  11.295  18.815  0.00  0.00    +0.000 A 
ATOM      6  C   UNL     1       1.892  12.310  18.690  0.00  0.00    +0.000 A 
ATOM      7  C   UNL     1       1.532  13.657  18.670  0.00  0.00    +0.000 A 
ATOM      8  C   UNL     1       0.202  14.019  18.813  0.00  0.00    +0.000 A 
ATOM      9  C   UNL     1      -0.772  13.030  18.937  0.00  0.00    +0.000 A 
ATOM     10  C   UNL     1      -0.432  11.665  18.866  0.00  0.00    +0.000 A 
BRANCH  10  11
ATOM     11  O   UNL     1      -1.400  10.666  18.886  0.00  0.00    +0.000 OA
BRANCH  11  12
ATOM     12  C   UNL     1      -2.258  10.562  17.801  0.00  0.00    +0.000 A 
ATOM     13  C   UNL     1      -1.935   9.844  16.642  0.00  0.00    +0.000 A 
ATOM     14  C   UNL     1      -2.784   9.875  15.533  0.00  0.00    +0.000 A 
ATOM     15  C   UNL     1      -3.995  10.559  15.603  0.00  0.00    +0.000 A 
ATOM     16  C   UNL     1      -4.363  11.204  16.784  0.00  0.00    +0.000 A 
ATOM     17  C   UNL     1      -3.495  11.205  17.884  0.00  0.00    +0.000 A 
ENDBRANCH  11  12
ENDBRANCH  10  11
ENDBRANCH   3   5
BRANCH   2  18
ATOM     18  C   UNL     1       1.811   7.756  19.907  0.00  0.00    +0.000 A 
ATOM     19  C   UNL     1       1.301   6.819  20.816  0.00  0.00    +0.000 A 
ATOM     20  C   UNL     1       1.654   5.474  20.709  0.00  0.00    +0.000 A 
ATOM     21  C   UNL     1       2.513   5.060  19.688  0.00  0.00    +0.000 A 
ATOM     22  C   UNL     1       3.026   5.987  18.765  0.00  0.00    +0.000 A 
ATOM     23  C   UNL     1       2.695   7.344  18.904  0.00  0.00    +0.000 A 
BRANCH  22  24
ATOM     24  C   UNL     1       3.896   5.529  17.620  0.00  0.00    +0.000 C 
BRANCH  24  25
ATOM     25  N   UNL     1       5.294   5.867  17.774  0.00  0.00    +0.000 N 
ATOM     26  C   UNL     1       5.914   7.003  17.138  0.00  0.00    +0.000 C 
ATOM     27  C   UNL     1       7.397   6.737  17.321  0.00  0.00    +0.000 C 
ATOM     28  C   UNL     1       7.468   5.943  18.619  0.00  0.00    +0.000 C 
ATOM     29  C   UNL     1       6.154   5.203  18.632  0.00  0.00    +0.000 C 
ATOM     30  O   UNL     1       5.898   4.226  19.315  0.00  0.00    +0.000 OA
ENDBRANCH  24  25
ENDBRANCH  22  24
ENDBRANCH   2  18
TORSDOF 6
ENDMDL
MODEL 5
REMARK VINA RESULT:      -8.4      1.816      2.581
REMARK  Name = 
REMARK  6 active torsions:
REMARK  status: ('A' for Active; 'I' for Inactive)
REMARK    1  A    between atoms: C_2  and  C_17
REMARK    2  A    between atoms: N_3  and  C_4
REMARK    3  A    between atoms: C_9  and  O_10
REMARK    4  A    between atoms: O_10  and  C_11
REMARK    5  A    between atoms: C_21  and  C_22
REMARK    6  A    between atoms: C_22  and  N_23
REMARK                            x       y       z     vdW  Elec       q    Type
REMARK                         _______ _______ _______ _____ _____    ______ ____
ROOT
ATOM      1  O   UNL     1       2.528   8.109  16.905  0.00  0.00    +0.000 OA
ATOM      2  C   UNL     1       2.709   7.760  18.069  0.00  0.00    +0.000 C 
ATOM      3  N   UNL     1       3.590   6.784  18.521  0.00  0.00    +0.000 N 
ATOM      4  H   UNL     1       3.506   6.463  19.480  0.00  0.00    +0.000 HD
ENDROOT
BRANCH   3   5
ATOM      5  C   UNL     1       4.475   6.024  17.707  0.00  0.00    +0.000 A 
ATOM      6  C   UNL     1       5.775   6.473  17.428  0.00  0.00    +0.000 A 
ATOM      7  C   UNL     1       6.628   5.761  16.584  0.00  0.00    +0.000 A 
ATOM      8  C   UNL     1       6.181   4.602  15.969  0.00  0.00    +0.000 A 
ATOM      9  C   UNL     1       4.894   4.135  16.231  0.00  0.00    +0.000 A 
ATOM     10  C   UNL     1       4.057   4.794  17.152  0.00  0.00    +0.000 A 
BRANCH  10  11
ATOM     11  O   UNL     1       2.810   4.288  17.503  0.00  0.00    +0.000 OA
BRANCH  11  12
ATOM     12  C   UNL     1       2.629   3.826  18.798  0.00  0.00    +0.000 A 
ATOM     13  C   UNL     1       3.606   3.098  19.489  0.00  0.00    +0.000 A 
ATOM     14  C   UNL     1       3.324   2.552  20.744  0.00  0.00    +0.000 A 
ATOM     15  C   UNL     1       2.093   2.796  21.348  0.00  0.00    +0.000 A 
ATOM     16  C   UNL     1       1.147   3.593  20.702  0.00  0.00    +0.000 A 
ATOM     17  C   UNL     1       1.414   4.109  19.427  0.00  0.00    +0.000 A 
ENDBRANCH  11  12
ENDBRANCH  10  11
ENDBRANCH   3   5
BRANCH   2  18
ATOM     18  C   UNL     1       1.859   8.412  19.101  0.00  0.00    +0.000 A 
ATOM     19  C   UNL     1       1.702   7.775  20.339  0.00  0.00    +0.000 A 
ATOM     20  C   UNL     1       0.900   8.348  21.326  0.00  0.00    +0.000 A 
ATOM     21  C   UNL     1       0.258   9.564  21.081  0.00  0.00    +0.000 A 
ATOM     22  C   UNL     1       0.411  10.217  19.847  0.00  0.00    +0.000 A 
ATOM     23  C   UNL     1       1.189   9.614  18.846  0.00  0.00    +0.000 A 
BRANCH  22  24
ATOM     24  C   UNL     1      -0.225  11.565  19.606  0.00  0.00    +0.000 C 
BRANCH  24  25
ATOM     25  N   UNL     1       0.713  12.666  19.614  0.00  0.00    +0.000 N 
ATOM     26  C   UNL     1       1.319  13.206  18.423  0.00  0.00    +0.000 C 
ATOM     27  C   UNL     1       2.440  14.074  18.965  0.00  0.00    +0.000 C 
ATOM     28  C   UNL     1       1.922  14.533  20.322  0.00  0.00    +0.000 C 
ATOM     29  C   UNL     1       1.042  13.386  20.751  0.00  0.00    +0.000 C 
ATOM     30  O   UNL     1       0.660  13.172  21.889  0.00  0.00    +0.000 OA
ENDBRANCH  24  25
ENDBRANCH  22  24
ENDBRANCH   2  18
TORSDOF 6
ENDMDL
MODEL 6
REMARK VINA RESULT:      -8.4      1.184      1.344
REMARK  Name = 
REMARK  6 active torsions:
REMARK  status: ('A' for Active; 'I' for Inactive)
REMARK    1  A    between atoms: C_2  and  C_17
REMARK    2  A    between atoms: N_3  and  C_4
REMARK    3  A    between atoms: C_9  and  O_10
REMARK    4  A    between atoms: O_10  and  C_11
REMARK    5  A    between atoms: C_21  and  C_22
REMARK    6  A    between atoms: C_22  and  N_23
REMARK                            x       y       z     vdW  Elec       q    Type
REMARK                         _______ _______ _______ _____ _____    ______ ____
ROOT
ATOM      1  O   UNL     1       1.829   5.882  17.728  0.00  0.00    +0.000 OA
ATOM      2  C   UNL     1       2.570   6.767  18.147  0.00  0.00    +0.000 C 
ATOM      3  N   UNL     1       3.943   6.872  17.948  0.00  0.00    +0.000 N 
ATOM      4  H   UNL     1       4.463   7.544  18.503  0.00  0.00    +0.000 HD
ENDROOT
BRANCH   3   5
ATOM      5  C   UNL     1       4.741   5.975  17.186  0.00  0.00    +0.000 A 
ATOM      6  C   UNL     1       5.111   6.270  15.865  0.00  0.00    +0.000 A 
ATOM      7  C   UNL     1       5.845   5.369  15.093  0.00  0.00    +0.000 A 
ATOM      8  C   UNL     1       6.191   4.134  15.617  0.00  0.00    +0.000 A 
ATOM      9  C   UNL     1       5.837   3.817  16.927  0.00  0.00    +0.000 A 
ATOM     10  C   UNL     1       5.177   4.753  17.746  0.00  0.00    +0.000 A 
BRANCH  10  11
ATOM     11  O   UNL     1       4.905   4.494  19.086  0.00  0.00    +0.000 OA
BRANCH  11  12
ATOM     12  C   UNL     1       3.749   3.795  19.398  0.00  0.00    +0.000 A 
ATOM     13  C   UNL     1       3.270   2.732  18.621  0.00  0.00    +0.000 A 
ATOM     14  C   UNL     1       2.036   2.145  18.912  0.00  0.00    +0.000 A 
ATOM     15  C   UNL     1       1.310   2.565  20.024  0.00  0.00    +0.000 A 
ATOM     16  C   UNL     1       1.822   3.565  20.852  0.00  0.00    +0.000 A 
ATOM     17  C   UNL     1       3.042   4.180  20.539  0.00  0.00    +0.000 A 
ENDBRANCH  11  12
ENDBRANCH  10  11
ENDBRANCH   3   5
BRANCH   2  18
ATOM     18  C   UNL     1       1.946   7.811  19.003  0.00  0.00    +0.000 A 
ATOM     19  C   UNL     1       1.870   7.587  20.384  0.00  0.00    +0.000 A 
ATOM     20  C   UNL     1       1.277   8.536  21.217  0.00  0.00    +0.000 A 
ATOM     21  C   UNL     1       0.764   9.715  20.672  0.00  0.00    +0.000 A 
ATOM     22  C   UNL     1       0.838   9.956  19.290  0.00  0.00    +0.000 A 
ATOM     23  C   UNL     1       1.403   8.979  18.456  0.00  0.00    +0.000 A 
BRANCH  22  24
ATOM     24  C   UNL     1       0.348  11.261  18.710  0.00  0.00    +0.000 C 
BRANCH  24  25
ATOM     25  N   UNL     1      -1.069  11.278  18.419  0.00  0.00    +0.000 N 
ATOM     26  C   UNL     1      -1.701  10.379  17.486  0.00  0.00    +0.000 C 
ATOM     27  C   UNL     1      -3.072  10.999  17.281  0.00  0.00    +0.000 C 
ATOM     28  C   UNL     1      -3.357  11.700  18.603  0.00  0.00    +0.000 C 
ATOM     29  C   UNL     1      -1.979  12.082  19.084  0.00  0.00    +0.000 C 
ATOM     30  O   UNL     1      -1.733  12.916  19.938  0.00  0.00    +0.000 OA
ENDBRANCH  24  25
ENDBRANCH  22  24
ENDBRANCH   2  18
TORSDOF 6
ENDMDL
MODEL 7
REMARK VINA RESULT:      -8.4      1.795      2.655
REMARK  Name = 
REMARK  6 active torsions:
REMARK  status: ('A' for Active; 'I' for Inactive)
REMARK    1  A    between atoms: C_2  and  C_17
REMARK    2  A    between atoms: N_3  and  C_4
REMARK    3  A    between atoms: C_9  and  O_10
REMARK    4  A    between atoms: O_10  and  C_11
REMARK    5  A    between atoms: C_21  and  C_22
REMARK    6  A    between atoms: C_22  and  N_23
REMARK                            x       y       z     vdW  Elec       q    Type
REMARK                         _______ _______ _______ _____ _____    ______ ____
ROOT
ATOM      1  O   UNL     1       2.786   8.432  17.053  0.00  0.00    +0.000 OA
ATOM      2  C   UNL     1       2.744   7.863  18.141  0.00  0.00    +0.000 C 
ATOM      3  N   UNL     1       3.427   6.708  18.508  0.00  0.00    +0.000 N 
ATOM      4  H   UNL     1       3.160   6.240  19.367  0.00  0.00    +0.000 HD
ENDROOT
BRANCH   3   5
ATOM      5  C   UNL     1       4.335   5.986  17.686  0.00  0.00    +0.000 A 
ATOM      6  C   UNL     1       5.608   6.494  17.383  0.00  0.00    +0.000 A 
ATOM      7  C   UNL     1       6.480   5.817  16.531  0.00  0.00    +0.000 A 
ATOM      8  C   UNL     1       6.080   4.633  15.931  0.00  0.00    +0.000 A 
ATOM      9  C   UNL     1       4.821   4.107  16.216  0.00  0.00    +0.000 A 
ATOM     10  C   UNL     1       3.968   4.733  17.145  0.00  0.00    +0.000 A 
BRANCH  10  11
ATOM     11  O   UNL     1       2.752   4.170  17.519  0.00  0.00    +0.000 OA
BRANCH  11  12
ATOM     12  C   UNL     1       2.603   3.738  18.828  0.00  0.00    +0.000 A 
ATOM     13  C   UNL     1       3.595   3.022  19.510  0.00  0.00    +0.000 A 
ATOM     14  C   UNL     1       3.344   2.505  20.784  0.00  0.00    +0.000 A 
ATOM     15  C   UNL     1       2.129   2.765  21.414  0.00  0.00    +0.000 A 
ATOM     16  C   UNL     1       1.169   3.550  20.774  0.00  0.00    +0.000 A 
ATOM     17  C   UNL     1       1.405   4.037  19.482  0.00  0.00    +0.000 A 
ENDBRANCH  11  12
ENDBRANCH  10  11
ENDBRANCH   3   5
BRANCH   2  18
ATOM     18  C   UNL     1       1.824   8.438  19.159  0.00  0.00    +0.000 A 
ATOM     19  C   UNL     1       1.681   7.772  20.385  0.00  0.00    +0.000 A 
ATOM     20  C   UNL     1       0.816   8.272  21.358  0.00  0.00    +0.000 A 
ATOM     21  C   UNL     1       0.097   9.444  21.112  0.00  0.00    +0.000 A 
ATOM     22  C   UNL     1       0.235  10.126  19.892  0.00  0.00    +0.000 A 
ATOM     23  C   UNL     1       1.079   9.594  18.904  0.00  0.00    +0.000 A 
BRANCH  22  24
ATOM     24  C   UNL     1      -0.487  11.430  19.654  0.00  0.00    +0.000 C 
BRANCH  24  25
ATOM     25  N   UNL     1       0.187  12.584  20.209  0.00  0.00    +0.000 N 
ATOM     26  C   UNL     1       0.001  13.039  21.564  0.00  0.00    +0.000 C 
ATOM     27  C   UNL     1       0.627  14.422  21.555  0.00  0.00    +0.000 C 
ATOM     28  C   UNL     1       1.718  14.321  20.496  0.00  0.00    +0.000 C 
ATOM     29  C   UNL     1       1.159  13.302  19.535  0.00  0.00    +0.000 C 
ATOM     30  O   UNL     1       1.539  13.126  18.390  0.00  0.00    +0.000 OA
ENDBRANCH  24  25
ENDBRANCH  22  24
ENDBRANCH   2  18
TORSDOF 6
ENDMDL
MODEL 8
REMARK VINA RESULT:      -8.4      1.930      8.375
REMARK  Name = 
REMARK  6 active torsions:
REMARK  status: ('A' for Active; 'I' for Inactive)
REMARK    1  A    between atoms: C_2  and  C_17
REMARK    2  A    between atoms: N_3  and  C_4
REMARK    3  A    between atoms: C_9  and  O_10
REMARK    4  A    between atoms: O_10  and  C_11
REMARK    5  A    between atoms: C_21  and  C_22
REMARK    6  A    between atoms: C_22  and  N_23
REMARK                            x       y       z     vdW  Elec       q    Type
REMARK                         _______ _______ _______ _____ _____    ______ ____
ROOT
ATOM      1  O   UNL     1       1.765   9.957  17.394  0.00  0.00    +0.000 OA
ATOM      2  C   UNL     1       1.574   9.731  18.586  0.00  0.00    +0.000 C 
ATOM      3  N   UNL     1       1.115  10.630  19.544  0.00  0.00    +0.000 N 
ATOM      4  H   UNL     1       1.181  10.370  20.523  0.00  0.00    +0.000 HD
ENDROOT
BRANCH   3   5
ATOM      5  C   UNL     1       0.752  11.984  19.304  0.00  0.00    +0.000 A 
ATOM      6  C   UNL     1       1.725  12.983  19.144  0.00  0.00    +0.000 A 
ATOM      7  C   UNL     1       1.375  14.321  18.966  0.00  0.00    +0.000 A 
ATOM      8  C   UNL     1       0.040  14.694  18.982  0.00  0.00    +0.000 A 
ATOM      9  C   UNL     1      -0.945  13.720  19.137  0.00  0.00    +0.000 A 
ATOM     10  C   UNL     1      -0.609  12.356  19.226  0.00  0.00    +0.000 A 
BRANCH  10  11
ATOM     11  O   UNL     1      -1.581  11.362  19.279  0.00  0.00    +0.000 OA
BRANCH  11  12
ATOM     12  C   UNL     1      -2.348  11.133  18.147  0.00  0.00    +0.000 A 
ATOM     13  C   UNL     1      -3.637  11.658  17.982  0.00  0.00    +0.000 A 
ATOM     14  C   UNL     1      -4.412  11.294  16.877  0.00  0.00    +0.000 A 
ATOM     15  C   UNL     1      -3.876  10.467  15.893  0.00  0.00    +0.000 A 
ATOM     16  C   UNL     1      -2.562  10.011  16.008  0.00  0.00    +0.000 A 
ATOM     17  C   UNL     1      -1.798  10.344  17.135  0.00  0.00    +0.000 A 
ENDBRANCH  11  12
ENDBRANCH  10  11
ENDBRANCH   3   5
BRANCH   2  18
ATOM     18  C   UNL     1       1.917   8.368  19.071  0.00  0.00    +0.000 A 
ATOM     19  C   UNL     1       1.488   7.983  20.348  0.00  0.00    +0.000 A 
ATOM     20  C   UNL     1       1.804   6.718  20.844  0.00  0.00    +0.000 A 
ATOM     21  C   UNL     1       2.546   5.830  20.060  0.00  0.00    +0.000 A 
ATOM     22  C   UNL     1       2.977   6.199  18.775  0.00  0.00    +0.000 A 
ATOM     23  C   UNL     1       2.686   7.488  18.301  0.00  0.00    +0.000 A 
BRANCH  22  24
ATOM     24  C   UNL     1       3.716   5.216  17.901  0.00  0.00    +0.000 C 
BRANCH  24  25
ATOM     25  N   UNL     1       3.331   3.837  18.113  0.00  0.00    +0.000 N 
ATOM     26  C   UNL     1       4.166   2.870  18.779  0.00  0.00    +0.000 C 
ATOM     27  C   UNL     1       3.494   1.548  18.455  0.00  0.00    +0.000 C 
ATOM     28  C   UNL     1       2.023   1.914  18.305  0.00  0.00    +0.000 C 
ATOM     29  C   UNL     1       2.080   3.333  17.798  0.00  0.00    +0.000 C 
ATOM     30  O   UNL     1       1.166   3.929  17.254  0.00  0.00    +0.000 OA
ENDBRANCH  24  25
ENDBRANCH  22  24
ENDBRANCH   2  18
TORSDOF 6
ENDMDL
MODEL 9
REMARK VINA RESULT:      -8.3      1.037      1.391
REMARK  Name = 
REMARK  6 active torsions:
REMARK  status: ('A' for Active; 'I' for Inactive)
REMARK    1  A    between atoms: C_2  and  C_17
REMARK    2  A    between atoms: N_3  and  C_4
REMARK    3  A    between atoms: C_9  and  O_10
REMARK    4  A    between atoms: O_10  and  C_11
REMARK    5  A    between atoms: C_21  and  C_22
REMARK    6  A    between atoms: C_22  and  N_23
REMARK                            x       y       z     vdW  Elec       q    Type
REMARK                         _______ _______ _______ _____ _____    ______ ____
ROOT
ATOM      1  O   UNL     1       3.721   6.124  20.070  0.00  0.00    +0.000 OA
ATOM      2  C   UNL     1       3.085   6.700  19.191  0.00  0.00    +0.000 C 
ATOM      3  N   UNL     1       3.259   6.578  17.816  0.00  0.00    +0.000 N 
ATOM      4  H   UNL     1       2.799   7.247  17.209  0.00  0.00    +0.000 HD
ENDROOT
BRANCH   3   5
ATOM      5  C   UNL     1       4.199   5.727  17.172  0.00  0.00    +0.000 A 
ATOM      6  C   UNL     1       5.492   6.174  16.860  0.00  0.00    +0.000 A 
ATOM      7  C   UNL     1       6.400   5.363  16.177  0.00  0.00    +0.000 A 
ATOM      8  C   UNL     1       6.016   4.100  15.757  0.00  0.00    +0.000 A 
ATOM      9  C   UNL     1       4.737   3.633  16.056  0.00  0.00    +0.000 A 
ATOM     10  C   UNL     1       3.845   4.404  16.824  0.00  0.00    +0.000 A 
BRANCH  10  11
ATOM     11  O   UNL     1       2.603   3.915  17.218  0.00  0.00    +0.000 OA
BRANCH  11  12
ATOM     12  C   UNL     1       2.453   3.482  18.526  0.00  0.00    +0.000 A 
ATOM     13  C   UNL     1       1.287   3.701  19.271  0.00  0.00    +0.000 A 
ATOM     14  C   UNL     1       1.236   3.352  20.623  0.00  0.00    +0.000 A 
ATOM     15  C   UNL     1       2.322   2.714  21.218  0.00  0.00    +0.000 A 
ATOM     16  C   UNL     1       3.455   2.416  20.460  0.00  0.00    +0.000 A 
ATOM     17  C   UNL     1       3.521   2.800  19.114  0.00  0.00    +0.000 A 
ENDBRANCH  11  12
ENDBRANCH  10  11
ENDBRANCH   3   5
BRANCH   2  18
ATOM     18  C   UNL     1       2.054   7.673  19.642  0.00  0.00    +0.000 A 
ATOM     19  C   UNL     1       1.468   7.491  20.903  0.00  0.00    +0.000 A 
ATOM     20  C   UNL     1       0.487   8.373  21.354  0.00  0.00    +0.000 A 
ATOM     21  C   UNL     1       0.092   9.445  20.549  0.00  0.00    +0.000 A 
ATOM     22  C   UNL     1       0.675   9.644  19.287  0.00  0.00    +0.000 A 
ATOM     23  C   UNL     1       1.635   8.729  18.825  0.00  0.00    +0.000 A 
BRANCH  22  24
ATOM     24  C   UNL     1       0.301  10.841  18.447  0.00  0.00    +0.000 C 
BRANCH  24  25
ATOM     25  N   UNL     1      -1.097  10.885  18.079  0.00  0.00    +0.000 N 
ATOM     26  C   UNL     1      -1.731   9.904  17.235  0.00  0.00    +0.000 C 
ATOM     27  C   UNL     1      -3.055  10.554  16.878  0.00  0.00    +0.000 C 
ATOM     28  C   UNL     1      -3.366  11.433  18.082  0.00  0.00    +0.000 C 
ATOM     29  C   UNL     1      -1.995  11.810  18.585  0.00  0.00    +0.000 C 
ATOM     30  O   UNL     1      -1.746  12.736  19.339  0.00  0.00    +0.000 OA
ENDBRANCH  24  25
ENDBRANCH  22  24
ENDBRANCH   2  18
TORSDOF 6
ENDMDL
