MODEL 1
REMARK VINA RESULT:      -8.4      0.000      0.000
REMARK  Name = 
REMARK  7 active torsions:
REMARK  status: ('A' for Active; 'I' for Inactive)
REMARK    1  A    between atoms: C_1  and  C_2
REMARK    2  A    between atoms: C_5  and  C_6
REMARK    3  A    between atoms: N_8  and  C_9
REMARK    4  A    between atoms: C_13  and  C_14
REMARK    5  A    between atoms: C_14  and  N_16
REMARK    6  A    between atoms: N_21  and  C_22
REMARK    7  A    between atoms: C_25  and  N_26
REMARK                            x       y       z     vdW  Elec       q    Type
REMARK                         _______ _______ _______ _____ _____    ______ ____
ROOT
ATOM      1  C   UNL     1       2.746   5.731  18.281  0.00  0.00    +0.000 A 
ATOM      2  C   UNL     1       2.102   4.488  18.337  0.00  0.00    +0.000 A 
ATOM      3  C   UNL     1       2.677   3.343  17.786  0.00  0.00    +0.000 A 
ATOM      4  C   UNL     1       3.917   3.423  17.171  0.00  0.00    +0.000 A 
ATOM      5  C   UNL     1       4.592   4.650  17.097  0.00  0.00    +0.000 A 
ATOM      6  C   UNL     1       3.983   5.808  17.627  0.00  0.00    +0.000 A 
ENDROOT
BRANCH   1   9
ATOM      7  C   UNL     1       1.772   7.016  20.172  0.00  0.00    +0.000 C 
ATOM      8  O   UNL     1       1.872   6.135  21.031  0.00  0.00    +0.000 OA
ATOM      9  N   UNL     1       2.193   6.903  18.857  0.00  0.00    +0.000 N 
ATOM     10  H   UNL     1       2.177   7.756  18.313  0.00  0.00    +0.000 HD
BRANCH   7  15
ATOM     11  C   UNL     1      -0.384  12.070  21.774  0.00  0.00    +0.000 C 
ATOM     12  C   UNL     1       0.172  10.739  21.357  0.00  0.00    +0.000 A 
ATOM     13  C   UNL     1       0.745  10.610  20.091  0.00  0.00    +0.000 A 
ATOM     14  C   UNL     1       1.262   9.384  19.708  0.00  0.00    +0.000 A 
ATOM     15  C   UNL     1       1.186   8.319  20.603  0.00  0.00    +0.000 A 
ATOM     16  N   UNL     1       0.638   8.406  21.841  0.00  0.00    +0.000 NA
ATOM     17  C   UNL     1       0.158   9.618  22.199  0.00  0.00    +0.000 A 
BRANCH  17  18
ATOM     18  N   UNL     1      -0.412   9.696  23.469  0.00  0.00    +0.000 N 
ATOM     19  H   UNL     1       0.295  10.034  24.115  0.00  0.00    +0.000 HD
ATOM     20  H   UNL     1      -1.244  10.272  23.479  0.00  0.00    +0.000 HD
ENDBRANCH  17  18
ENDBRANCH   7  15
ENDBRANCH   1   9
BRANCH   5  21
ATOM     21  C   UNL     1       5.965   4.696  16.458  0.00  0.00    +0.000 C 
ATOM     22  F   UNL     1       6.854   3.911  17.138  0.00  0.00    +0.000 F 
BRANCH  21  23
ATOM     23  N   UNL     1       5.918   4.153  15.118  0.00  0.00    +0.000 N 
ATOM     24  C   UNL     1       6.774   4.634  14.198  0.00  0.00    +0.000 A 
ATOM     25  N   UNL     1       7.733   5.521  14.348  0.00  0.00    +0.000 NA
ATOM     26  N   UNL     1       8.328   5.727  13.126  0.00  0.00    +0.000 NA
ATOM     27  C   UNL     1       7.740   4.932  12.264  0.00  0.00    +0.000 A 
ATOM     28  N   UNL     1       6.771   4.213  12.895  0.00  0.00    +0.000 N 
ATOM     29  C   UNL     1       5.980   3.169  12.302  0.00  0.00    +0.000 C 
ATOM     30  H   UNL     1       4.992   3.838  14.864  0.00  0.00    +0.000 HD
ENDBRANCH  21  23
ENDBRANCH   5  21
TORSDOF 5
ENDMDL
MODEL 2
REMARK VINA RESULT:      -8.3      1.622      1.831
REMARK  Name = 
REMARK  7 active torsions:
REMARK  status: ('A' for Active; 'I' for Inactive)
REMARK    1  A    between atoms: C_1  and  C_2
REMARK    2  A    between atoms: C_5  and  C_6
REMARK    3  A    between atoms: N_8  and  C_9
REMARK    4  A    between atoms: C_13  and  C_14
REMARK    5  A    between atoms: C_14  and  N_16
REMARK    6  A    between atoms: N_21  and  C_22
REMARK    7  A    between atoms: C_25  and  N_26
REMARK                            x       y       z     vdW  Elec       q    Type
REMARK                         _______ _______ _______ _____ _____    ______ ____
ROOT
ATOM      1  C   UNL     1       2.571   5.839  18.352  0.00  0.00    +0.000 A 
ATOM      2  C   UNL     1       1.878   4.623  18.286  0.00  0.00    +0.000 A 
ATOM      3  C   UNL     1       2.421   3.507  17.651  0.00  0.00    +0.000 A 
ATOM      4  C   UNL     1       3.679   3.587  17.073  0.00  0.00    +0.000 A 
ATOM      5  C   UNL     1       4.404   4.787  17.121  0.00  0.00    +0.000 A 
ATOM      6  C   UNL     1       3.827   5.921  17.735  0.00  0.00    +0.000 A 
ENDROOT
BRANCH   1   9
ATOM      7  C   UNL     1       2.001   8.254  18.478  0.00  0.00    +0.000 C 
ATOM      8  O   UNL     1       2.349   8.560  17.334  0.00  0.00    +0.000 OA
ATOM      9  N   UNL     1       2.050   6.979  19.016  0.00  0.00    +0.000 N 
ATOM     10  H   UNL     1       1.596   6.858  19.912  0.00  0.00    +0.000 HD
BRANCH   7  15
ATOM     11  C   UNL     1      -0.211  12.360  21.796  0.00  0.00    +0.000 C 
ATOM     12  C   UNL     1       0.377  11.290  20.923  0.00  0.00    +0.000 A 
ATOM     13  C   UNL     1       0.570  10.012  21.451  0.00  0.00    +0.000 A 
ATOM     14  C   UNL     1       1.108   9.024  20.644  0.00  0.00    +0.000 A 
ATOM     15  C   UNL     1       1.444   9.345  19.331  0.00  0.00    +0.000 A 
ATOM     16  N   UNL     1       1.271  10.574  18.781  0.00  0.00    +0.000 NA
ATOM     17  C   UNL     1       0.726  11.516  19.583  0.00  0.00    +0.000 A 
BRANCH  17  18
ATOM     18  N   UNL     1       0.560  12.778  19.014  0.00  0.00    +0.000 N 
ATOM     19  H   UNL     1       1.442  13.277  19.082  0.00  0.00    +0.000 HD
ATOM     20  H   UNL     1       0.224  12.724  18.060  0.00  0.00    +0.000 HD
ENDBRANCH  17  18
ENDBRANCH   7  15
ENDBRANCH   1   9
BRANCH   5  21
ATOM     21  C   UNL     1       5.793   4.831  16.519  0.00  0.00    +0.000 C 
ATOM     22  F   UNL     1       6.663   4.048  17.225  0.00  0.00    +0.000 F 
BRANCH  21  23
ATOM     23  N   UNL     1       5.782   4.284  15.180  0.00  0.00    +0.000 N 
ATOM     24  C   UNL     1       6.714   4.704  14.305  0.00  0.00    +0.000 A 
ATOM     25  N   UNL     1       7.720   5.528  14.503  0.00  0.00    +0.000 NA
ATOM     26  N   UNL     1       8.391   5.689  13.315  0.00  0.00    +0.000 NA
ATOM     27  C   UNL     1       7.799   4.928  12.425  0.00  0.00    +0.000 A 
ATOM     28  N   UNL     1       6.753   4.276  13.005  0.00  0.00    +0.000 N 
ATOM     29  C   UNL     1       5.929   3.282  12.374  0.00  0.00    +0.000 C 
ATOM     30  H   UNL     1       4.853   4.028  14.878  0.00  0.00    +0.000 HD
ENDBRANCH  21  23
ENDBRANCH   5  21
TORSDOF 5
ENDMDL
MODEL 3
REMARK VINA RESULT:      -8.1      6.013      7.839
REMARK  Name = 
REMARK  7 active torsions:
REMARK  status: ('A' for Active; 'I' for Inactive)
REMARK    1  A    between atoms: C_1  and  C_2
REMARK    2  A    between atoms: C_5  and  C_6
REMARK    3  A    between atoms: N_8  and  C_9
REMARK    4  A    between atoms: C_13  and  C_14
REMARK    5  A    between atoms: C_14  and  N_16
REMARK    6  A    between atoms: N_21  and  C_22
REMARK    7  A    between atoms: C_25  and  N_26
REMARK                            x       y       z     vdW  Elec       q    Type
REMARK                         _______ _______ _______ _____ _____    ______ ____
ROOT
ATOM      1  C   UNL     1       7.774   7.932  17.917  0.00  0.00    +0.000 A 
ATOM      2  C   UNL     1       8.312   7.033  18.847  0.00  0.00    +0.000 A 
ATOM      3  C   UNL     1       7.735   5.783  19.071  0.00  0.00    +0.000 A 
ATOM      4  C   UNL     1       6.607   5.407  18.358  0.00  0.00    +0.000 A 
ATOM      5  C   UNL     1       6.041   6.280  17.417  0.00  0.00    +0.000 A 
ATOM      6  C   UNL     1       6.614   7.557  17.227  0.00  0.00    +0.000 A 
ENDROOT
BRANCH   1   9
ATOM      7  C   UNL     1       8.953  10.008  18.606  0.00  0.00    +0.000 C 
ATOM      8  O   UNL     1       9.103   9.718  19.796  0.00  0.00    +0.000 OA
ATOM      9  N   UNL     1       8.359   9.197  17.653  0.00  0.00    +0.000 N 
ATOM     10  H   UNL     1       8.438   9.509  16.694  0.00  0.00    +0.000 HD
BRANCH   7  15
ATOM     11  C   UNL     1      11.116  15.042  16.950  0.00  0.00    +0.000 C 
ATOM     12  C   UNL     1      10.541  13.723  17.376  0.00  0.00    +0.000 A 
ATOM     13  C   UNL     1      11.396  12.632  17.544  0.00  0.00    +0.000 A 
ATOM     14  C   UNL     1      10.866  11.416  17.942  0.00  0.00    +0.000 A 
ATOM     15  C   UNL     1       9.493  11.325  18.155  0.00  0.00    +0.000 A 
ATOM     16  N   UNL     1       8.630  12.362  18.004  0.00  0.00    +0.000 NA
ATOM     17  C   UNL     1       9.174  13.543  17.634  0.00  0.00    +0.000 A 
BRANCH  17  18
ATOM     18  N   UNL     1       8.280  14.600  17.472  0.00  0.00    +0.000 N 
ATOM     19  H   UNL     1       8.812  15.465  17.436  0.00  0.00    +0.000 HD
ATOM     20  H   UNL     1       7.692  14.480  16.656  0.00  0.00    +0.000 HD
ENDBRANCH  17  18
ENDBRANCH   7  15
ENDBRANCH   1   9
BRANCH   5  21
ATOM     21  C   UNL     1       4.835   5.824  16.623  0.00  0.00    +0.000 C 
ATOM     22  F   UNL     1       5.127   5.729  15.291  0.00  0.00    +0.000 F 
BRANCH  21  23
ATOM     23  N   UNL     1       4.438   4.493  17.026  0.00  0.00    +0.000 N 
ATOM     24  C   UNL     1       3.351   4.354  17.806  0.00  0.00    +0.000 A 
ATOM     25  N   UNL     1       2.517   5.278  18.232  0.00  0.00    +0.000 NA
ATOM     26  N   UNL     1       1.573   4.677  19.029  0.00  0.00    +0.000 NA
ATOM     27  C   UNL     1       1.832   3.391  19.043  0.00  0.00    +0.000 A 
ATOM     28  N   UNL     1       2.928   3.139  18.274  0.00  0.00    +0.000 N 
ATOM     29  C   UNL     1       3.456   1.838  17.968  0.00  0.00    +0.000 C 
ATOM     30  H   UNL     1       5.225   3.864  17.101  0.00  0.00    +0.000 HD
ENDBRANCH  21  23
ENDBRANCH   5  21
TORSDOF 5
ENDMDL
MODEL 4
REMARK VINA RESULT:      -8.1      1.309      1.433
REMARK  Name = 
REMARK  7 active torsions:
REMARK  status: ('A' for Active; 'I' for Inactive)
REMARK    1  A    between atoms: C_1  and  C_2
REMARK    2  A    between atoms: C_5  and  C_6
REMARK    3  A    between atoms: N_8  and  C_9
REMARK    4  A    between atoms: C_13  and  C_14
REMARK    5  A    between atoms: C_14  and  N_16
REMARK    6  A    between atoms: N_21  and  C_22
REMARK    7  A    between atoms: C_25  and  N_26
REMARK                            x       y       z     vdW  Elec       q    Type
REMARK                         _______ _______ _______ _____ _____    ______ ____
ROOT
ATOM      1  C   UNL     1       2.741   6.119  18.433  0.00  0.00    +0.000 A 
ATOM      2  C   UNL     1       1.975   4.945  18.438  0.00  0.00    +0.000 A 
ATOM      3  C   UNL     1       2.453   3.761  17.877  0.00  0.00    +0.000 A 
ATOM      4  C   UNL     1       3.715   3.729  17.306  0.00  0.00    +0.000 A 
ATOM      5  C   UNL     1       4.512   4.884  17.284  0.00  0.00    +0.000 A 
ATOM      6  C   UNL     1       4.002   6.086  17.822  0.00  0.00    +0.000 A 
ENDROOT
BRANCH   1   9
ATOM      7  C   UNL     1       1.985   8.483  18.319  0.00  0.00    +0.000 C 
ATOM      8  O   UNL     1       2.016   8.601  17.092  0.00  0.00    +0.000 OA
ATOM      9  N   UNL     1       2.287   7.328  19.020  0.00  0.00    +0.000 N 
ATOM     10  H   UNL     1       2.077   7.342  20.010  0.00  0.00    +0.000 HD
BRANCH   7  15
ATOM     11  C   UNL     1       0.411  13.107  21.303  0.00  0.00    +0.000 C 
ATOM     12  C   UNL     1       0.814  11.890  20.522  0.00  0.00    +0.000 A 
ATOM     13  C   UNL     1       1.466  12.054  19.299  0.00  0.00    +0.000 A 
ATOM     14  C   UNL     1       1.841  10.932  18.580  0.00  0.00    +0.000 A 
ATOM     15  C   UNL     1       1.548   9.676  19.105  0.00  0.00    +0.000 A 
ATOM     16  N   UNL     1       0.917   9.475  20.289  0.00  0.00    +0.000 NA
ATOM     17  C   UNL     1       0.578  10.586  20.981  0.00  0.00    +0.000 A 
BRANCH  17  18
ATOM     18  N   UNL     1      -0.077  10.372  22.193  0.00  0.00    +0.000 N 
ATOM     19  H   UNL     1      -0.037  11.231  22.733  0.00  0.00    +0.000 HD
ATOM     20  H   UNL     1      -1.027  10.048  22.060  0.00  0.00    +0.000 HD
ENDBRANCH  17  18
ENDBRANCH   7  15
ENDBRANCH   1   9
BRANCH   5  21
ATOM     21  C   UNL     1       5.904   4.806  16.692  0.00  0.00    +0.000 C 
ATOM     22  F   UNL     1       6.691   3.936  17.393  0.00  0.00    +0.000 F 
BRANCH  21  23
ATOM     23  N   UNL     1       5.852   4.280  15.346  0.00  0.00    +0.000 N 
ATOM     24  C   UNL     1       6.751   4.721  14.447  0.00  0.00    +0.000 A 
ATOM     25  N   UNL     1       7.757   5.550  14.625  0.00  0.00    +0.000 NA
ATOM     26  N   UNL     1       8.386   5.734  13.417  0.00  0.00    +0.000 NA
ATOM     27  C   UNL     1       7.770   4.983  12.535  0.00  0.00    +0.000 A 
ATOM     28  N   UNL     1       6.750   4.314  13.140  0.00  0.00    +0.000 N 
ATOM     29  C   UNL     1       5.913   3.323  12.521  0.00  0.00    +0.000 C 
ATOM     30  H   UNL     1       4.915   4.021  15.071  0.00  0.00    +0.000 HD
ENDBRANCH  21  23
ENDBRANCH   5  21
TORSDOF 5
ENDMDL
MODEL 5
REMARK VINA RESULT:      -8.1      1.441      1.628
REMARK  Name = 
REMARK  7 active torsions:
REMARK  status: ('A' for Active; 'I' for Inactive)
REMARK    1  A    between atoms: C_1  and  C_2
REMARK    2  A    between atoms: C_5  and  C_6
REMARK    3  A    between atoms: N_8  and  C_9
REMARK    4  A    between atoms: C_13  and  C_14
REMARK    5  A    between atoms: C_14  and  N_16
REMARK    6  A    between atoms: N_21  and  C_22
REMARK    7  A    between atoms: C_25  and  N_26
REMARK                            x       y       z     vdW  Elec       q    Type
REMARK                         _______ _______ _______ _____ _____    ______ ____
ROOT
ATOM      1  C   UNL     1       2.970   5.451  19.403  0.00  0.00    +0.000 A 
ATOM      2  C   UNL     1       2.615   4.112  19.611  0.00  0.00    +0.000 A 
ATOM      3  C   UNL     1       3.316   3.069  19.007  0.00  0.00    +0.000 A 
ATOM      4  C   UNL     1       4.396   3.351  18.184  0.00  0.00    +0.000 A 
ATOM      5  C   UNL     1       4.782   4.679  17.954  0.00  0.00    +0.000 A 
ATOM      6  C   UNL     1       4.041   5.727  18.542  0.00  0.00    +0.000 A 
ENDROOT
BRANCH   1   9
ATOM      7  C   UNL     1       1.978   7.729  19.415  0.00  0.00    +0.000 C 
ATOM      8  O   UNL     1       2.201   8.007  18.233  0.00  0.00    +0.000 OA
ATOM      9  N   UNL     1       2.288   6.527  20.027  0.00  0.00    +0.000 N 
ATOM     10  H   UNL     1       1.913   6.394  20.958  0.00  0.00    +0.000 HD
BRANCH   7  15
ATOM     11  C   UNL     1      -0.749  11.611  22.618  0.00  0.00    +0.000 C 
ATOM     12  C   UNL     1      -0.028  10.601  21.773  0.00  0.00    +0.000 A 
ATOM     13  C   UNL     1       0.514   9.468  22.383  0.00  0.00    +0.000 A 
ATOM     14  C   UNL     1       1.175   8.535  21.603  0.00  0.00    +0.000 A 
ATOM     15  C   UNL     1       1.280   8.765  20.234  0.00  0.00    +0.000 A 
ATOM     16  N   UNL     1       0.767   9.851  19.604  0.00  0.00    +0.000 NA
ATOM     17  C   UNL     1       0.109  10.739  20.384  0.00  0.00    +0.000 A 
BRANCH  17  18
ATOM     18  N   UNL     1      -0.407  11.857  19.731  0.00  0.00    +0.000 N 
ATOM     19  H   UNL     1      -0.335  11.703  18.729  0.00  0.00    +0.000 HD
ATOM     20  H   UNL     1      -1.356  12.062  20.018  0.00  0.00    +0.000 HD
ENDBRANCH  17  18
ENDBRANCH   7  15
ENDBRANCH   1   9
BRANCH   5  21
ATOM     21  C   UNL     1       5.993   4.953  17.086  0.00  0.00    +0.000 C 
ATOM     22  F   UNL     1       7.105   4.325  17.575  0.00  0.00    +0.000 F 
BRANCH  21  23
ATOM     23  N   UNL     1       5.798   4.411  15.759  0.00  0.00    +0.000 N 
ATOM     24  C   UNL     1       6.646   4.781  14.782  0.00  0.00    +0.000 A 
ATOM     25  N   UNL     1       7.712   5.547  14.860  0.00  0.00    +0.000 NA
ATOM     26  N   UNL     1       8.250   5.673  13.602  0.00  0.00    +0.000 NA
ATOM     27  C   UNL     1       7.518   4.949  12.789  0.00  0.00    +0.000 A 
ATOM     28  N   UNL     1       6.511   4.355  13.488  0.00  0.00    +0.000 N 
ATOM     29  C   UNL     1       5.565   3.411  12.958  0.00  0.00    +0.000 C 
ATOM     30  H   UNL     1       4.827   4.209  15.567  0.00  0.00    +0.000 HD
ENDBRANCH  21  23
ENDBRANCH   5  21
TORSDOF 5
ENDMDL
MODEL 6
REMARK VINA RESULT:      -8.1      2.652      3.439
REMARK  Name = 
REMARK  7 active torsions:
REMARK  status: ('A' for Active; 'I' for Inactive)
REMARK    1  A    between atoms: C_1  and  C_2
REMARK    2  A    between atoms: C_5  and  C_6
REMARK    3  A    between atoms: N_8  and  C_9
REMARK    4  A    between atoms: C_13  and  C_14
REMARK    5  A    between atoms: C_14  and  N_16
REMARK    6  A    between atoms: N_21  and  C_22
REMARK    7  A    between atoms: C_25  and  N_26
REMARK                            x       y       z     vdW  Elec       q    Type
REMARK                         _______ _______ _______ _____ _____    ______ ____
ROOT
ATOM      1  C   UNL     1       1.574   4.979  20.452  0.00  0.00    +0.000 A 
ATOM      2  C   UNL     1       0.663   3.931  20.265  0.00  0.00    +0.000 A 
ATOM      3  C   UNL     1       1.089   2.640  19.954  0.00  0.00    +0.000 A 
ATOM      4  C   UNL     1       2.444   2.374  19.831  0.00  0.00    +0.000 A 
ATOM      5  C   UNL     1       3.386   3.397  20.013  0.00  0.00    +0.000 A 
ATOM      6  C   UNL     1       2.939   4.707  20.292  0.00  0.00    +0.000 A 
ENDROOT
BRANCH   1   9
ATOM      7  C   UNL     1       1.593   7.446  20.159  0.00  0.00    +0.000 C 
ATOM      8  O   UNL     1       2.340   7.484  19.178  0.00  0.00    +0.000 OA
ATOM      9  N   UNL     1       1.165   6.293  20.796  0.00  0.00    +0.000 N 
ATOM     10  H   UNL     1       0.442   6.414  21.493  0.00  0.00    +0.000 HD
BRANCH   7  15
ATOM     11  C   UNL     1      -0.460  12.392  22.180  0.00  0.00    +0.000 C 
ATOM     12  C   UNL     1       0.087  11.100  21.646  0.00  0.00    +0.000 A 
ATOM     13  C   UNL     1       0.079   9.970  22.465  0.00  0.00    +0.000 A 
ATOM     14  C   UNL     1       0.580   8.777  21.972  0.00  0.00    +0.000 A 
ATOM     15  C   UNL     1       1.081   8.752  20.673  0.00  0.00    +0.000 A 
ATOM     16  N   UNL     1       1.106   9.828  19.846  0.00  0.00    +0.000 NA
ATOM     17  C   UNL     1       0.594  10.975  20.344  0.00  0.00    +0.000 A 
BRANCH  17  18
ATOM     18  N   UNL     1       0.631  12.078  19.492  0.00  0.00    +0.000 N 
ATOM     19  H   UNL     1      -0.321  12.305  19.222  0.00  0.00    +0.000 HD
ATOM     20  H   UNL     1       1.107  12.868  19.912  0.00  0.00    +0.000 HD
ENDBRANCH  17  18
ENDBRANCH   7  15
ENDBRANCH   1   9
BRANCH   5  21
ATOM     21  C   UNL     1       4.861   3.064  19.915  0.00  0.00    +0.000 C 
ATOM     22  F   UNL     1       5.069   1.715  19.985  0.00  0.00    +0.000 F 
BRANCH  21  23
ATOM     23  N   UNL     1       5.386   3.468  18.630  0.00  0.00    +0.000 N 
ATOM     24  C   UNL     1       6.246   4.503  18.583  0.00  0.00    +0.000 A 
ATOM     25  N   UNL     1       6.754   5.199  19.576  0.00  0.00    +0.000 NA
ATOM     26  N   UNL     1       7.561   6.180  19.050  0.00  0.00    +0.000 NA
ATOM     27  C   UNL     1       7.554   6.036  17.746  0.00  0.00    +0.000 A 
ATOM     28  N   UNL     1       6.758   4.984  17.408  0.00  0.00    +0.000 N 
ATOM     29  C   UNL     1       6.580   4.459  16.081  0.00  0.00    +0.000 C 
ATOM     30  H   UNL     1       4.739   3.285  17.876  0.00  0.00    +0.000 HD
ENDBRANCH  21  23
ENDBRANCH   5  21
TORSDOF 5
ENDMDL
MODEL 7
REMARK VINA RESULT:      -8.0      4.091      9.367
REMARK  Name = 
REMARK  7 active torsions:
REMARK  status: ('A' for Active; 'I' for Inactive)
REMARK    1  A    between atoms: C_1  and  C_2
REMARK    2  A    between atoms: C_5  and  C_6
REMARK    3  A    between atoms: N_8  and  C_9
REMARK    4  A    between atoms: C_13  and  C_14
REMARK    5  A    between atoms: C_14  and  N_16
REMARK    6  A    between atoms: N_21  and  C_22
REMARK    7  A    between atoms: C_25  and  N_26
REMARK                            x       y       z     vdW  Elec       q    Type
REMARK                         _______ _______ _______ _____ _____    ______ ____
ROOT
ATOM      1  C   UNL     1       1.439   8.995  19.280  0.00  0.00    +0.000 A 
ATOM      2  C   UNL     1       1.130   8.781  20.630  0.00  0.00    +0.000 A 
ATOM      3  C   UNL     1       0.293   9.647  21.333  0.00  0.00    +0.000 A 
ATOM      4  C   UNL     1      -0.258  10.745  20.691  0.00  0.00    +0.000 A 
ATOM      5  C   UNL     1       0.027  10.991  19.339  0.00  0.00    +0.000 A 
ATOM      6  C   UNL     1       0.906  10.127  18.649  0.00  0.00    +0.000 A 
ENDROOT
BRANCH   1   9
ATOM      7  C   UNL     1       2.617   6.834  18.937  0.00  0.00    +0.000 C 
ATOM      8  O   UNL     1       2.215   6.270  19.958  0.00  0.00    +0.000 OA
ATOM      9  N   UNL     1       2.267   8.114  18.539  0.00  0.00    +0.000 N 
ATOM     10  H   UNL     1       2.560   8.384  17.609  0.00  0.00    +0.000 HD
BRANCH   7  15
ATOM     11  C   UNL     1       6.060   3.914  15.419  0.00  0.00    +0.000 C 
ATOM     12  C   UNL     1       5.162   4.675  16.350  0.00  0.00    +0.000 A 
ATOM     13  C   UNL     1       5.097   6.065  16.247  0.00  0.00    +0.000 A 
ATOM     14  C   UNL     1       4.265   6.766  17.103  0.00  0.00    +0.000 A 
ATOM     15  C   UNL     1       3.524   6.055  18.043  0.00  0.00    +0.000 A 
ATOM     16  N   UNL     1       3.558   4.704  18.174  0.00  0.00    +0.000 NA
ATOM     17  C   UNL     1       4.363   4.041  17.314  0.00  0.00    +0.000 A 
BRANCH  17  18
ATOM     18  N   UNL     1       4.400   2.655  17.461  0.00  0.00    +0.000 N 
ATOM     19  H   UNL     1       4.464   2.441  18.452  0.00  0.00    +0.000 HD
ATOM     20  H   UNL     1       3.606   2.204  17.023  0.00  0.00    +0.000 HD
ENDBRANCH  17  18
ENDBRANCH   7  15
ENDBRANCH   1   9
BRANCH   5  21
ATOM     21  C   UNL     1      -0.625  12.174  18.653  0.00  0.00    +0.000 C 
ATOM     22  F   UNL     1       0.314  13.031  18.148  0.00  0.00    +0.000 F 
BRANCH  21  23
ATOM     23  N   UNL     1      -1.398  11.735  17.513  0.00  0.00    +0.000 N 
ATOM     24  C   UNL     1      -2.728  11.591  17.654  0.00  0.00    +0.000 A 
ATOM     25  N   UNL     1      -3.481  11.858  18.699  0.00  0.00    +0.000 NA
ATOM     26  N   UNL     1      -4.779  11.524  18.396  0.00  0.00    +0.000 NA
ATOM     27  C   UNL     1      -4.795  11.094  17.157  0.00  0.00    +0.000 A 
ATOM     28  N   UNL     1      -3.533  11.136  16.644  0.00  0.00    +0.000 N 
ATOM     29  C   UNL     1      -3.169  10.837  15.286  0.00  0.00    +0.000 C 
ATOM     30  H   UNL     1      -0.865  11.138  16.895  0.00  0.00    +0.000 HD
ENDBRANCH  21  23
ENDBRANCH   5  21
TORSDOF 5
ENDMDL
MODEL 8
REMARK VINA RESULT:      -8.0      4.027      9.317
REMARK  Name = 
REMARK  7 active torsions:
REMARK  status: ('A' for Active; 'I' for Inactive)
REMARK    1  A    between atoms: C_1  and  C_2
REMARK    2  A    between atoms: C_5  and  C_6
REMARK    3  A    between atoms: N_8  and  C_9
REMARK    4  A    between atoms: C_13  and  C_14
REMARK    5  A    between atoms: C_14  and  N_16
REMARK    6  A    between atoms: N_21  and  C_22
REMARK    7  A    between atoms: C_25  and  N_26
REMARK                            x       y       z     vdW  Elec       q    Type
REMARK                         _______ _______ _______ _____ _____    ______ ____
ROOT
ATOM      1  C   UNL     1       1.636   8.539  19.455  0.00  0.00    +0.000 A 
ATOM      2  C   UNL     1       1.332   8.173  20.773  0.00  0.00    +0.000 A 
ATOM      3  C   UNL     1       0.408   8.887  21.535  0.00  0.00    +0.000 A 
ATOM      4  C   UNL     1      -0.237   9.984  20.984  0.00  0.00    +0.000 A 
ATOM      5  C   UNL     1       0.040  10.380  19.667  0.00  0.00    +0.000 A 
ATOM      6  C   UNL     1       1.005   9.670  18.919  0.00  0.00    +0.000 A 
ENDROOT
BRANCH   1   9
ATOM      7  C   UNL     1       2.730   6.439  18.702  0.00  0.00    +0.000 C 
ATOM      8  O   UNL     1       2.081   5.661  19.405  0.00  0.00    +0.000 OA
ATOM      9  N   UNL     1       2.552   7.812  18.653  0.00  0.00    +0.000 N 
ATOM     10  H   UNL     1       3.058   8.299  17.924  0.00  0.00    +0.000 HD
BRANCH   7  15
ATOM     11  C   UNL     1       6.677   4.047  15.316  0.00  0.00    +0.000 C 
ATOM     12  C   UNL     1       5.642   4.684  16.198  0.00  0.00    +0.000 A 
ATOM     13  C   UNL     1       4.494   3.961  16.528  0.00  0.00    +0.000 A 
ATOM     14  C   UNL     1       3.541   4.547  17.345  0.00  0.00    +0.000 A 
ATOM     15  C   UNL     1       3.763   5.842  17.804  0.00  0.00    +0.000 A 
ATOM     16  N   UNL     1       4.865   6.576  17.507  0.00  0.00    +0.000 NA
ATOM     17  C   UNL     1       5.789   5.976  16.724  0.00  0.00    +0.000 A 
BRANCH  17  18
ATOM     18  N   UNL     1       6.914   6.739  16.415  0.00  0.00    +0.000 N 
ATOM     19  H   UNL     1       7.618   6.572  17.128  0.00  0.00    +0.000 HD
ATOM     20  H   UNL     1       7.261   6.547  15.483  0.00  0.00    +0.000 HD
ENDBRANCH  17  18
ENDBRANCH   7  15
ENDBRANCH   1   9
BRANCH   5  21
ATOM     21  C   UNL     1      -0.713  11.556  19.079  0.00  0.00    +0.000 C 
ATOM     22  F   UNL     1       0.134  12.588  18.784  0.00  0.00    +0.000 F 
BRANCH  21  23
ATOM     23  N   UNL     1      -1.323  11.188  17.820  0.00  0.00    +0.000 N 
ATOM     24  C   UNL     1      -2.651  11.349  17.677  0.00  0.00    +0.000 A 
ATOM     25  N   UNL     1      -3.515  11.871  18.521  0.00  0.00    +0.000 NA
ATOM     26  N   UNL     1      -4.767  11.800  17.960  0.00  0.00    +0.000 NA
ATOM     27  C   UNL     1      -4.634  11.267  16.769  0.00  0.00    +0.000 A 
ATOM     28  N   UNL     1      -3.321  10.986  16.540  0.00  0.00    +0.000 N 
ATOM     29  C   UNL     1      -2.772  10.486  15.308  0.00  0.00    +0.000 C 
ATOM     30  H   UNL     1      -0.831  10.434  17.361  0.00  0.00    +0.000 HD
ENDBRANCH  21  23
ENDBRANCH   5  21
TORSDOF 5
ENDMDL
MODEL 9
REMARK VINA RESULT:      -8.0      2.735      3.684
REMARK  Name = 
REMARK  7 active torsions:
REMARK  status: ('A' for Active; 'I' for Inactive)
REMARK    1  A    between atoms: C_1  and  C_2
REMARK    2  A    between atoms: C_5  and  C_6
REMARK    3  A    between atoms: N_8  and  C_9
REMARK    4  A    between atoms: C_13  and  C_14
REMARK    5  A    between atoms: C_14  and  N_16
REMARK    6  A    between atoms: N_21  and  C_22
REMARK    7  A    between atoms: C_25  and  N_26
REMARK                            x       y       z     vdW  Elec       q    Type
REMARK                         _______ _______ _______ _____ _____    ______ ____
ROOT
ATOM      1  C   UNL     1       1.988   5.605  20.227  0.00  0.00    +0.000 A 
ATOM      2  C   UNL     1       0.954   4.708  20.530  0.00  0.00    +0.000 A 
ATOM      3  C   UNL     1       1.173   3.332  20.577  0.00  0.00    +0.000 A 
ATOM      4  C   UNL     1       2.440   2.827  20.327  0.00  0.00    +0.000 A 
ATOM      5  C   UNL     1       3.500   3.693  20.022  0.00  0.00    +0.000 A 
ATOM      6  C   UNL     1       3.256   5.082  19.942  0.00  0.00    +0.000 A 
ENDROOT
BRANCH   1   9
ATOM      7  C   UNL     1       1.864   7.795  19.061  0.00  0.00    +0.000 C 
ATOM      8  O   UNL     1       2.045   7.376  17.915  0.00  0.00    +0.000 OA
ATOM      9  N   UNL     1       1.795   7.010  20.200  0.00  0.00    +0.000 N 
ATOM     10  H   UNL     1       1.498   7.479  21.045  0.00  0.00    +0.000 HD
BRANCH   7  15
ATOM     11  C   UNL     1       0.982  13.413  19.713  0.00  0.00    +0.000 C 
ATOM     12  C   UNL     1       1.224  11.942  19.540  0.00  0.00    +0.000 A 
ATOM     13  C   UNL     1       0.726  11.055  20.497  0.00  0.00    +0.000 A 
ATOM     14  C   UNL     1       0.946   9.698  20.335  0.00  0.00    +0.000 A 
ATOM     15  C   UNL     1       1.663   9.266  19.222  0.00  0.00    +0.000 A 
ATOM     16  N   UNL     1       2.160  10.096  18.270  0.00  0.00    +0.000 NA
ATOM     17  C   UNL     1       1.916  11.415  18.440  0.00  0.00    +0.000 A 
BRANCH  17  18
ATOM     18  N   UNL     1       2.439  12.261  17.464  0.00  0.00    +0.000 N 
ATOM     19  H   UNL     1       1.681  12.825  17.091  0.00  0.00    +0.000 HD
ATOM     20  H   UNL     1       3.199  12.829  17.818  0.00  0.00    +0.000 HD
ENDBRANCH  17  18
ENDBRANCH   7  15
ENDBRANCH   1   9
BRANCH   5  21
ATOM     21  C   UNL     1       4.882   3.115  19.797  0.00  0.00    +0.000 C 
ATOM     22  F   UNL     1       4.853   1.748  19.811  0.00  0.00    +0.000 F 
BRANCH  21  23
ATOM     23  N   UNL     1       5.374   3.476  18.487  0.00  0.00    +0.000 N 
ATOM     24  C   UNL     1       6.236   4.505  18.384  0.00  0.00    +0.000 A 
ATOM     25  N   UNL     1       6.773   5.229  19.341  0.00  0.00    +0.000 NA
ATOM     26  N   UNL     1       7.569   6.190  18.764  0.00  0.00    +0.000 NA
ATOM     27  C   UNL     1       7.527   6.005  17.465  0.00  0.00    +0.000 A 
ATOM     28  N   UNL     1       6.718   4.947  17.181  0.00  0.00    +0.000 N 
ATOM     29  C   UNL     1       6.502   4.382  15.877  0.00  0.00    +0.000 C 
ATOM     30  H   UNL     1       4.706   3.272  17.756  0.00  0.00    +0.000 HD
ENDBRANCH  21  23
ENDBRANCH   5  21
TORSDOF 5
ENDMDL
