MODEL 1
REMARK VINA RESULT:      -8.6      0.000      0.000
REMARK  Name = 
REMARK  9 active torsions:
REMARK  status: ('A' for Active; 'I' for Inactive)
REMARK    1  A    between atoms: C_1  and  C_2
REMARK    2  A    between atoms: C_2  and  C_3
REMARK    3  A    between atoms: C_3  and  C_4
REMARK    4  A    between atoms: C_8  and  C_9
REMARK    5  A    between atoms: N_12  and  C_13
REMARK    6  A    between atoms: C_17  and  C_18
REMARK    7  A    between atoms: C_18  and  C_19
REMARK    8  A    between atoms: C_19  and  C_20
REMARK    9  A    between atoms: N_24  and  C_25
REMARK                            x       y       z     vdW  Elec       q    Type
REMARK                         _______ _______ _______ _____ _____    ______ ____
ROOT
ATOM      1  C   UNL     1       3.045   6.149  18.923  0.00  0.00    +0.000 A 
ATOM      2  C   UNL     1       2.795   5.038  19.739  0.00  0.00    +0.000 A 
ATOM      3  C   UNL     1       3.310   3.774  19.447  0.00  0.00    +0.000 A 
ATOM      4  C   UNL     1       4.148   3.607  18.353  0.00  0.00    +0.000 A 
ATOM      5  C   UNL     1       4.512   4.692  17.537  0.00  0.00    +0.000 A 
ATOM      6  C   UNL     1       3.903   5.936  17.831  0.00  0.00    +0.000 A 
ENDROOT
BRANCH   1  15
ATOM      7  C   UNL     1      -0.442  10.936  19.032  0.00  0.00    +0.000 A 
ATOM      8  C   UNL     1       0.512  10.321  18.227  0.00  0.00    +0.000 A 
ATOM      9  C   UNL     1       1.230   9.285  18.787  0.00  0.00    +0.000 A 
ATOM     10  C   UNL     1       0.997   8.897  20.107  0.00  0.00    +0.000 A 
ATOM     11  C   UNL     1       0.053   9.556  20.859  0.00  0.00    +0.000 A 
ATOM     12  C   UNL     1      -0.260   9.177  22.273  0.00  0.00    +0.000 C 
ATOM     13  N   UNL     1      -0.674  10.566  20.327  0.00  0.00    +0.000 NA
ATOM     14  C   UNL     1       1.843   7.724  20.459  0.00  0.00    +0.000 C 
ATOM     15  N   UNL     1       2.500   7.385  19.191  0.00  0.00    +0.000 N 
ATOM     16  C   UNL     1       2.265   8.408  18.156  0.00  0.00    +0.000 C 
BRANCH   7  17
ATOM     17  C   UNL     1      -1.316  12.032  18.478  0.00  0.00    +0.000 C 
BRANCH  17  19
ATOM     18  C   UNL     1      -3.085  10.907  17.085  0.00  0.00    +0.000 C 
ATOM     19  C   UNL     1      -2.781  11.598  18.403  0.00  0.00    +0.000 C 
ENDBRANCH  17  19
ENDBRANCH   7  17
ENDBRANCH   1  15
BRANCH   5  20
ATOM     20  C   UNL     1       5.631   4.543  16.404  0.00  0.00    +0.000 C 
ATOM     21  C   UNL     1       5.450   5.506  15.191  0.00  0.00    +0.000 C 
ATOM     22  O   UNL     1       5.756   4.438  14.262  0.00  0.00    +0.000 OA
ATOM     23  C   UNL     1       5.439   3.465  15.298  0.00  0.00    +0.000 C 
BRANCH  20  24
ATOM     24  C   UNL     1       7.061   4.608  16.969  0.00  0.00    +0.000 C 
BRANCH  24  25
ATOM     25  C   UNL     1       7.498   5.982  17.358  0.00  0.00    +0.000 A 
ATOM     26  N   UNL     1       7.568   7.030  16.562  0.00  0.00    +0.000 NA
ATOM     27  N   UNL     1       7.935   8.122  17.313  0.00  0.00    +0.000 NA
ATOM     28  C   UNL     1       8.080   7.717  18.552  0.00  0.00    +0.000 A 
ATOM     29  N   UNL     1       7.837   6.380  18.626  0.00  0.00    +0.000 N 
ATOM     30  C   UNL     1       7.909   5.582  19.820  0.00  0.00    +0.000 C 
ENDBRANCH  24  25
ENDBRANCH  20  24
ENDBRANCH   5  20
TORSDOF 6
ENDMDL
MODEL 2
REMARK VINA RESULT:      -8.6      1.811      2.856
REMARK  Name = 
REMARK  9 active torsions:
REMARK  status: ('A' for Active; 'I' for Inactive)
REMARK    1  A    between atoms: C_1  and  C_2
REMARK    2  A    between atoms: C_2  and  C_3
REMARK    3  A    between atoms: C_3  and  C_4
REMARK    4  A    between atoms: C_8  and  C_9
REMARK    5  A    between atoms: N_12  and  C_13
REMARK    6  A    between atoms: C_17  and  C_18
REMARK    7  A    between atoms: C_18  and  C_19
REMARK    8  A    between atoms: C_19  and  C_20
REMARK    9  A    between atoms: N_24  and  C_25
REMARK                            x       y       z     vdW  Elec       q    Type
REMARK                         _______ _______ _______ _____ _____    ______ ____
ROOT
ATOM      1  C   UNL     1       2.676   6.527  18.249  0.00  0.00    +0.000 A 
ATOM      2  C   UNL     1       1.844   5.402  18.190  0.00  0.00    +0.000 A 
ATOM      3  C   UNL     1       2.258   4.205  17.604  0.00  0.00    +0.000 A 
ATOM      4  C   UNL     1       3.552   4.089  17.114  0.00  0.00    +0.000 A 
ATOM      5  C   UNL     1       4.471   5.148  17.214  0.00  0.00    +0.000 A 
ATOM      6  C   UNL     1       3.979   6.363  17.748  0.00  0.00    +0.000 A 
ENDROOT
BRANCH   1  15
ATOM      7  C   UNL     1      -0.450  11.370  19.614  0.00  0.00    +0.000 A 
ATOM      8  C   UNL     1       0.360  10.865  18.602  0.00  0.00    +0.000 A 
ATOM      9  C   UNL     1       1.068   9.715  18.881  0.00  0.00    +0.000 A 
ATOM     10  C   UNL     1       0.966   9.111  20.134  0.00  0.00    +0.000 A 
ATOM     11  C   UNL     1       0.163   9.667  21.101  0.00  0.00    +0.000 A 
ATOM     12  C   UNL     1      -0.007   9.058  22.458  0.00  0.00    +0.000 C 
ATOM     13  N   UNL     1      -0.553  10.787  20.846  0.00  0.00    +0.000 NA
ATOM     14  C   UNL     1       1.769   7.857  20.171  0.00  0.00    +0.000 C 
ATOM     15  N   UNL     1       2.250   7.719  18.790  0.00  0.00    +0.000 N 
ATOM     16  C   UNL     1       1.963   8.919  17.984  0.00  0.00    +0.000 C 
BRANCH   7  17
ATOM     17  C   UNL     1      -1.309  12.584  19.370  0.00  0.00    +0.000 C 
BRANCH  17  19
ATOM     18  C   UNL     1      -3.269  11.427  18.295  0.00  0.00    +0.000 C 
ATOM     19  C   UNL     1      -2.798  12.251  19.481  0.00  0.00    +0.000 C 
ENDBRANCH  17  19
ENDBRANCH   7  17
ENDBRANCH   1  15
BRANCH   5  20
ATOM     20  C   UNL     1       6.013   4.951  16.837  0.00  0.00    +0.000 C 
ATOM     21  C   UNL     1       6.930   4.591  18.045  0.00  0.00    +0.000 C 
ATOM     22  O   UNL     1       7.943   5.517  17.587  0.00  0.00    +0.000 OA
ATOM     23  C   UNL     1       6.938   6.201  16.787  0.00  0.00    +0.000 C 
BRANCH  20  24
ATOM     24  C   UNL     1       6.216   3.978  15.662  0.00  0.00    +0.000 C 
BRANCH  24  25
ATOM     25  C   UNL     1       6.880   4.592  14.474  0.00  0.00    +0.000 A 
ATOM     26  N   UNL     1       7.853   5.482  14.500  0.00  0.00    +0.000 NA
ATOM     27  N   UNL     1       8.244   5.735  13.207  0.00  0.00    +0.000 NA
ATOM     28  C   UNL     1       7.503   4.996  12.418  0.00  0.00    +0.000 A 
ATOM     29  N   UNL     1       6.620   4.278  13.164  0.00  0.00    +0.000 N 
ATOM     30  C   UNL     1       5.639   3.363  12.648  0.00  0.00    +0.000 C 
ENDBRANCH  24  25
ENDBRANCH  20  24
ENDBRANCH   5  20
TORSDOF 6
ENDMDL
MODEL 3
REMARK VINA RESULT:      -8.4      0.821      1.201
REMARK  Name = 
REMARK  9 active torsions:
REMARK  status: ('A' for Active; 'I' for Inactive)
REMARK    1  A    between atoms: C_1  and  C_2
REMARK    2  A    between atoms: C_2  and  C_3
REMARK    3  A    between atoms: C_3  and  C_4
REMARK    4  A    between atoms: C_8  and  C_9
REMARK    5  A    between atoms: N_12  and  C_13
REMARK    6  A    between atoms: C_17  and  C_18
REMARK    7  A    between atoms: C_18  and  C_19
REMARK    8  A    between atoms: C_19  and  C_20
REMARK    9  A    between atoms: N_24  and  C_25
REMARK                            x       y       z     vdW  Elec       q    Type
REMARK                         _______ _______ _______ _____ _____    ______ ____
ROOT
ATOM      1  C   UNL     1       2.700   6.209  18.708  0.00  0.00    +0.000 A 
ATOM      2  C   UNL     1       2.142   5.037  19.234  0.00  0.00    +0.000 A 
ATOM      3  C   UNL     1       2.516   3.771  18.780  0.00  0.00    +0.000 A 
ATOM      4  C   UNL     1       3.513   3.649  17.822  0.00  0.00    +0.000 A 
ATOM      5  C   UNL     1       4.178   4.775  17.309  0.00  0.00    +0.000 A 
ATOM      6  C   UNL     1       3.710   6.038  17.746  0.00  0.00    +0.000 A 
ENDROOT
BRANCH   1  15
ATOM      7  C   UNL     1      -0.297  11.250  19.542  0.00  0.00    +0.000 A 
ATOM      8  C   UNL     1       0.524  10.631  18.604  0.00  0.00    +0.000 A 
ATOM      9  C   UNL     1       1.184   9.489  19.006  0.00  0.00    +0.000 A 
ATOM     10  C   UNL     1       1.027   9.003  20.303  0.00  0.00    +0.000 A 
ATOM     11  C   UNL     1       0.216   9.668  21.192  0.00  0.00    +0.000 A 
ATOM     12  C   UNL     1      -0.012   9.188  22.592  0.00  0.00    +0.000 C 
ATOM     13  N   UNL     1      -0.454  10.782  20.817  0.00  0.00    +0.000 NA
ATOM     14  C   UNL     1       1.786   7.733  20.476  0.00  0.00    +0.000 C 
ATOM     15  N   UNL     1       2.299   7.457  19.128  0.00  0.00    +0.000 N 
ATOM     16  C   UNL     1       2.076   8.589  18.211  0.00  0.00    +0.000 C 
BRANCH   7  17
ATOM     17  C   UNL     1      -1.108  12.463  19.166  0.00  0.00    +0.000 C 
BRANCH  17  19
ATOM     18  C   UNL     1       0.162  14.635  19.075  0.00  0.00    +0.000 C 
ATOM     19  C   UNL     1      -0.305  13.424  18.286  0.00  0.00    +0.000 C 
ENDBRANCH  17  19
ENDBRANCH   7  17
ENDBRANCH   1  15
BRANCH   5  20
ATOM     20  C   UNL     1       5.458   4.627  16.361  0.00  0.00    +0.000 C 
ATOM     21  C   UNL     1       5.511   5.653  15.189  0.00  0.00    +0.000 C 
ATOM     22  O   UNL     1       5.921   4.618  14.264  0.00  0.00    +0.000 OA
ATOM     23  C   UNL     1       5.404   3.613  15.182  0.00  0.00    +0.000 C 
BRANCH  20  24
ATOM     24  C   UNL     1       6.779   4.597  17.149  0.00  0.00    +0.000 C 
BRANCH  24  25
ATOM     25  C   UNL     1       7.339   5.949  17.446  0.00  0.00    +0.000 A 
ATOM     26  N   UNL     1       7.401   6.966  16.609  0.00  0.00    +0.000 NA
ATOM     27  N   UNL     1       7.907   8.052  17.284  0.00  0.00    +0.000 NA
ATOM     28  C   UNL     1       8.144   7.676  18.517  0.00  0.00    +0.000 A 
ATOM     29  N   UNL     1       7.823   6.361  18.662  0.00  0.00    +0.000 N 
ATOM     30  C   UNL     1       7.956   5.596  19.871  0.00  0.00    +0.000 C 
ENDBRANCH  24  25
ENDBRANCH  20  24
ENDBRANCH   5  20
TORSDOF 6
ENDMDL
MODEL 4
REMARK VINA RESULT:      -8.4      1.917      3.067
REMARK  Name = 
REMARK  9 active torsions:
REMARK  status: ('A' for Active; 'I' for Inactive)
REMARK    1  A    between atoms: C_1  and  C_2
REMARK    2  A    between atoms: C_2  and  C_3
REMARK    3  A    between atoms: C_3  and  C_4
REMARK    4  A    between atoms: C_8  and  C_9
REMARK    5  A    between atoms: N_12  and  C_13
REMARK    6  A    between atoms: C_17  and  C_18
REMARK    7  A    between atoms: C_18  and  C_19
REMARK    8  A    between atoms: C_19  and  C_20
REMARK    9  A    between atoms: N_24  and  C_25
REMARK                            x       y       z     vdW  Elec       q    Type
REMARK                         _______ _______ _______ _____ _____    ______ ____
ROOT
ATOM      1  C   UNL     1       2.659   6.488  18.271  0.00  0.00    +0.000 A 
ATOM      2  C   UNL     1       1.826   5.362  18.260  0.00  0.00    +0.000 A 
ATOM      3  C   UNL     1       2.227   4.151  17.693  0.00  0.00    +0.000 A 
ATOM      4  C   UNL     1       3.510   4.023  17.176  0.00  0.00    +0.000 A 
ATOM      5  C   UNL     1       4.430   5.084  17.230  0.00  0.00    +0.000 A 
ATOM      6  C   UNL     1       3.949   6.311  17.744  0.00  0.00    +0.000 A 
ENDROOT
BRANCH   1  15
ATOM      7  C   UNL     1      -0.430  11.372  19.573  0.00  0.00    +0.000 A 
ATOM      8  C   UNL     1       0.366  10.843  18.562  0.00  0.00    +0.000 A 
ATOM      9  C   UNL     1       1.072   9.696  18.857  0.00  0.00    +0.000 A 
ATOM     10  C   UNL     1       0.983   9.118  20.123  0.00  0.00    +0.000 A 
ATOM     11  C   UNL     1       0.194   9.698  21.087  0.00  0.00    +0.000 A 
ATOM     12  C   UNL     1       0.038   9.118  22.459  0.00  0.00    +0.000 C 
ATOM     13  N   UNL     1      -0.520  10.816  20.818  0.00  0.00    +0.000 NA
ATOM     14  C   UNL     1       1.781   7.862  20.176  0.00  0.00    +0.000 C 
ATOM     15  N   UNL     1       2.244   7.693  18.793  0.00  0.00    +0.000 N 
ATOM     16  C   UNL     1       1.952   8.877  17.965  0.00  0.00    +0.000 C 
BRANCH   7  17
ATOM     17  C   UNL     1      -1.287  12.585  19.314  0.00  0.00    +0.000 C 
BRANCH  17  19
ATOM     18  C   UNL     1       0.122  14.556  19.997  0.00  0.00    +0.000 C 
ATOM     19  C   UNL     1      -0.450  13.771  18.830  0.00  0.00    +0.000 C 
ENDBRANCH  17  19
ENDBRANCH   7  17
ENDBRANCH   1  15
BRANCH   5  20
ATOM     20  C   UNL     1       5.963   4.878  16.821  0.00  0.00    +0.000 C 
ATOM     21  C   UNL     1       6.892   4.462  18.002  0.00  0.00    +0.000 C 
ATOM     22  O   UNL     1       7.913   5.388  17.561  0.00  0.00    +0.000 OA
ATOM     23  C   UNL     1       6.906   6.115  16.801  0.00  0.00    +0.000 C 
BRANCH  20  24
ATOM     24  C   UNL     1       6.134   3.944  15.610  0.00  0.00    +0.000 C 
BRANCH  24  25
ATOM     25  C   UNL     1       6.848   4.570  14.458  0.00  0.00    +0.000 A 
ATOM     26  N   UNL     1       7.803   5.477  14.535  0.00  0.00    +0.000 NA
ATOM     27  N   UNL     1       8.257   5.737  13.263  0.00  0.00    +0.000 NA
ATOM     28  C   UNL     1       7.571   4.984  12.437  0.00  0.00    +0.000 A 
ATOM     29  N   UNL     1       6.663   4.251  13.137  0.00  0.00    +0.000 N 
ATOM     30  C   UNL     1       5.726   3.319  12.571  0.00  0.00    +0.000 C 
ENDBRANCH  24  25
ENDBRANCH  20  24
ENDBRANCH   5  20
TORSDOF 6
ENDMDL
MODEL 5
REMARK VINA RESULT:      -8.3      2.177      3.434
REMARK  Name = 
REMARK  9 active torsions:
REMARK  status: ('A' for Active; 'I' for Inactive)
REMARK    1  A    between atoms: C_1  and  C_2
REMARK    2  A    between atoms: C_2  and  C_3
REMARK    3  A    between atoms: C_3  and  C_4
REMARK    4  A    between atoms: C_8  and  C_9
REMARK    5  A    between atoms: N_12  and  C_13
REMARK    6  A    between atoms: C_17  and  C_18
REMARK    7  A    between atoms: C_18  and  C_19
REMARK    8  A    between atoms: C_19  and  C_20
REMARK    9  A    between atoms: N_24  and  C_25
REMARK                            x       y       z     vdW  Elec       q    Type
REMARK                         _______ _______ _______ _____ _____    ______ ____
ROOT
ATOM      1  C   UNL     1       3.150   5.824  19.540  0.00  0.00    +0.000 A 
ATOM      2  C   UNL     1       2.983   4.494  19.947  0.00  0.00    +0.000 A 
ATOM      3  C   UNL     1       3.941   3.514  19.682  0.00  0.00    +0.000 A 
ATOM      4  C   UNL     1       5.128   3.862  19.052  0.00  0.00    +0.000 A 
ATOM      5  C   UNL     1       5.403   5.192  18.692  0.00  0.00    +0.000 A 
ATOM      6  C   UNL     1       4.370   6.133  18.913  0.00  0.00    +0.000 A 
ENDROOT
BRANCH   1  15
ATOM      7  C   UNL     1      -0.082  10.228  21.833  0.00  0.00    +0.000 A 
ATOM      8  C   UNL     1       0.167   8.871  22.015  0.00  0.00    +0.000 A 
ATOM      9  C   UNL     1       0.870   8.224  21.021  0.00  0.00    +0.000 A 
ATOM     10  C   UNL     1       1.292   8.919  19.888  0.00  0.00    +0.000 A 
ATOM     11  C   UNL     1       0.999  10.256  19.754  0.00  0.00    +0.000 A 
ATOM     12  C   UNL     1       1.439  11.064  18.574  0.00  0.00    +0.000 C 
ATOM     13  N   UNL     1       0.324  10.916  20.724  0.00  0.00    +0.000 NA
ATOM     14  C   UNL     1       2.079   8.025  18.995  0.00  0.00    +0.000 C 
ATOM     15  N   UNL     1       2.185   6.780  19.766  0.00  0.00    +0.000 N 
ATOM     16  C   UNL     1       1.331   6.802  20.967  0.00  0.00    +0.000 C 
BRANCH   7  17
ATOM     17  C   UNL     1      -0.784  11.026  22.901  0.00  0.00    +0.000 C 
BRANCH  17  19
ATOM     18  C   UNL     1      -2.979  12.232  23.144  0.00  0.00    +0.000 C 
ATOM     19  C   UNL     1      -1.731  12.064  22.296  0.00  0.00    +0.000 C 
ENDBRANCH  17  19
ENDBRANCH   7  17
ENDBRANCH   1  15
BRANCH   5  20
ATOM     20  C   UNL     1       6.845   5.629  18.154  0.00  0.00    +0.000 C 
ATOM     21  C   UNL     1       7.827   6.111  19.264  0.00  0.00    +0.000 C 
ATOM     22  O   UNL     1       8.262   7.217  18.438  0.00  0.00    +0.000 OA
ATOM     23  C   UNL     1       7.047   7.086  17.646  0.00  0.00    +0.000 C 
BRANCH  20  24
ATOM     24  C   UNL     1       7.490   4.561  17.253  0.00  0.00    +0.000 C 
BRANCH  24  25
ATOM     25  C   UNL     1       7.112   4.673  15.813  0.00  0.00    +0.000 A 
ATOM     26  N   UNL     1       7.703   5.431  14.911  0.00  0.00    +0.000 NA
ATOM     27  N   UNL     1       7.114   5.193  13.691  0.00  0.00    +0.000 NA
ATOM     28  C   UNL     1       6.176   4.296  13.874  0.00  0.00    +0.000 A 
ATOM     29  N   UNL     1       6.123   3.954  15.190  0.00  0.00    +0.000 N 
ATOM     30  C   UNL     1       5.213   3.006  15.772  0.00  0.00    +0.000 C 
ENDBRANCH  24  25
ENDBRANCH  20  24
ENDBRANCH   5  20
TORSDOF 6
ENDMDL
MODEL 6
REMARK VINA RESULT:      -8.3      3.169      8.702
REMARK  Name = 
REMARK  9 active torsions:
REMARK  status: ('A' for Active; 'I' for Inactive)
REMARK    1  A    between atoms: C_1  and  C_2
REMARK    2  A    between atoms: C_2  and  C_3
REMARK    3  A    between atoms: C_3  and  C_4
REMARK    4  A    between atoms: C_8  and  C_9
REMARK    5  A    between atoms: N_12  and  C_13
REMARK    6  A    between atoms: C_17  and  C_18
REMARK    7  A    between atoms: C_18  and  C_19
REMARK    8  A    between atoms: C_19  and  C_20
REMARK    9  A    between atoms: N_24  and  C_25
REMARK                            x       y       z     vdW  Elec       q    Type
REMARK                         _______ _______ _______ _____ _____    ______ ____
ROOT
ATOM      1  C   UNL     1       1.724   8.155  19.845  0.00  0.00    +0.000 A 
ATOM      2  C   UNL     1       1.492   7.933  21.209  0.00  0.00    +0.000 A 
ATOM      3  C   UNL     1       0.880   8.891  22.020  0.00  0.00    +0.000 A 
ATOM      4  C   UNL     1       0.425  10.078  21.462  0.00  0.00    +0.000 A 
ATOM      5  C   UNL     1       0.546  10.334  20.086  0.00  0.00    +0.000 A 
ATOM      6  C   UNL     1       1.241   9.367  19.322  0.00  0.00    +0.000 A 
ENDROOT
BRANCH   1  15
ATOM      7  C   UNL     1       5.794   5.064  16.849  0.00  0.00    +0.000 A 
ATOM      8  C   UNL     1       5.060   6.243  16.759  0.00  0.00    +0.000 A 
ATOM      9  C   UNL     1       4.023   6.405  17.654  0.00  0.00    +0.000 A 
ATOM     10  C   UNL     1       3.737   5.412  18.590  0.00  0.00    +0.000 A 
ATOM     11  C   UNL     1       4.485   4.259  18.618  0.00  0.00    +0.000 A 
ATOM     12  C   UNL     1       4.243   3.164  19.609  0.00  0.00    +0.000 C 
ATOM     13  N   UNL     1       5.517   4.083  17.760  0.00  0.00    +0.000 NA
ATOM     14  C   UNL     1       2.623   5.843  19.478  0.00  0.00    +0.000 C 
ATOM     15  N   UNL     1       2.367   7.226  19.057  0.00  0.00    +0.000 N 
ATOM     16  C   UNL     1       3.110   7.577  17.834  0.00  0.00    +0.000 C 
BRANCH   7  17
ATOM     17  C   UNL     1       6.985   4.836  15.955  0.00  0.00    +0.000 C 
BRANCH  17  19
ATOM     18  C   UNL     1       6.067   3.804  13.851  0.00  0.00    +0.000 C 
ATOM     19  C   UNL     1       6.635   5.062  14.483  0.00  0.00    +0.000 C 
ENDBRANCH  17  19
ENDBRANCH   7  17
ENDBRANCH   1  15
BRANCH   5  20
ATOM     20  C   UNL     1      -0.154  11.604  19.410  0.00  0.00    +0.000 C 
ATOM     21  C   UNL     1      -1.387  12.150  20.192  0.00  0.00    +0.000 C 
ATOM     22  O   UNL     1      -2.132  12.309  18.962  0.00  0.00    +0.000 OA
ATOM     23  C   UNL     1      -1.229  11.371  18.310  0.00  0.00    +0.000 C 
BRANCH  20  24
ATOM     24  C   UNL     1       0.846  12.725  19.076  0.00  0.00    +0.000 C 
BRANCH  24  25
ATOM     25  C   UNL     1       1.135  13.641  20.219  0.00  0.00    +0.000 A 
ATOM     26  N   UNL     1       1.906  13.373  21.254  0.00  0.00    +0.000 NA
ATOM     27  N   UNL     1       1.980  14.498  22.042  0.00  0.00    +0.000 NA
ATOM     28  C   UNL     1       1.254  15.428  21.471  0.00  0.00    +0.000 A 
ATOM     29  N   UNL     1       0.688  14.932  20.337  0.00  0.00    +0.000 N 
ATOM     30  C   UNL     1      -0.182  15.656  19.451  0.00  0.00    +0.000 C 
ENDBRANCH  24  25
ENDBRANCH  20  24
ENDBRANCH   5  20
TORSDOF 6
ENDMDL
MODEL 7
REMARK VINA RESULT:      -8.2      1.146      1.775
REMARK  Name = 
REMARK  9 active torsions:
REMARK  status: ('A' for Active; 'I' for Inactive)
REMARK    1  A    between atoms: C_1  and  C_2
REMARK    2  A    between atoms: C_2  and  C_3
REMARK    3  A    between atoms: C_3  and  C_4
REMARK    4  A    between atoms: C_8  and  C_9
REMARK    5  A    between atoms: N_12  and  C_13
REMARK    6  A    between atoms: C_17  and  C_18
REMARK    7  A    between atoms: C_18  and  C_19
REMARK    8  A    between atoms: C_19  and  C_20
REMARK    9  A    between atoms: N_24  and  C_25
REMARK                            x       y       z     vdW  Elec       q    Type
REMARK                         _______ _______ _______ _____ _____    ______ ____
ROOT
ATOM      1  C   UNL     1       2.927   6.206  18.318  0.00  0.00    +0.000 A 
ATOM      2  C   UNL     1       2.400   5.007  18.816  0.00  0.00    +0.000 A 
ATOM      3  C   UNL     1       2.765   3.765  18.291  0.00  0.00    +0.000 A 
ATOM      4  C   UNL     1       3.722   3.694  17.288  0.00  0.00    +0.000 A 
ATOM      5  C   UNL     1       4.356   4.848  16.799  0.00  0.00    +0.000 A 
ATOM      6  C   UNL     1       3.898   6.086  17.309  0.00  0.00    +0.000 A 
ENDROOT
BRANCH   1  15
ATOM      7  C   UNL     1       0.115  11.335  19.249  0.00  0.00    +0.000 A 
ATOM      8  C   UNL     1       1.036  10.758  18.380  0.00  0.00    +0.000 A 
ATOM      9  C   UNL     1       1.564   9.538  18.748  0.00  0.00    +0.000 A 
ATOM     10  C   UNL     1       1.182   8.936  19.946  0.00  0.00    +0.000 A 
ATOM     11  C   UNL     1       0.281   9.564  20.773  0.00  0.00    +0.000 A 
ATOM     12  C   UNL     1      -0.187   8.964  22.062  0.00  0.00    +0.000 C 
ATOM     13  N   UNL     1      -0.262  10.755  20.427  0.00  0.00    +0.000 NA
ATOM     14  C   UNL     1       1.834   7.606  20.089  0.00  0.00    +0.000 C 
ATOM     15  N   UNL     1       2.535   7.430  18.810  0.00  0.00    +0.000 N 
ATOM     16  C   UNL     1       2.517   8.661  17.999  0.00  0.00    +0.000 C 
BRANCH   7  17
ATOM     17  C   UNL     1      -0.560  12.635  18.892  0.00  0.00    +0.000 C 
BRANCH  17  19
ATOM     18  C   UNL     1      -0.351  15.143  18.921  0.00  0.00    +0.000 C 
ATOM     19  C   UNL     1       0.390  13.823  19.047  0.00  0.00    +0.000 C 
ENDBRANCH  17  19
ENDBRANCH   7  17
ENDBRANCH   1  15
BRANCH   5  20
ATOM     20  C   UNL     1       5.597   4.754  15.793  0.00  0.00    +0.000 C 
ATOM     21  C   UNL     1       5.202   4.720  14.286  0.00  0.00    +0.000 C 
ATOM     22  O   UNL     1       6.165   3.671  14.028  0.00  0.00    +0.000 OA
ATOM     23  C   UNL     1       6.177   3.352  15.448  0.00  0.00    +0.000 C 
BRANCH  20  24
ATOM     24  C   UNL     1       6.670   5.820  16.074  0.00  0.00    +0.000 C 
BRANCH  24  25
ATOM     25  C   UNL     1       7.221   5.776  17.461  0.00  0.00    +0.000 A 
ATOM     26  N   UNL     1       7.386   4.696  18.198  0.00  0.00    +0.000 NA
ATOM     27  N   UNL     1       7.992   5.064  19.376  0.00  0.00    +0.000 NA
ATOM     28  C   UNL     1       8.185   6.360  19.333  0.00  0.00    +0.000 A 
ATOM     29  N   UNL     1       7.701   6.854  18.162  0.00  0.00    +0.000 N 
ATOM     30  C   UNL     1       7.725   8.235  17.762  0.00  0.00    +0.000 C 
ENDBRANCH  24  25
ENDBRANCH  20  24
ENDBRANCH   5  20
TORSDOF 6
ENDMDL
MODEL 8
REMARK VINA RESULT:      -8.0      2.969      9.065
REMARK  Name = 
REMARK  9 active torsions:
REMARK  status: ('A' for Active; 'I' for Inactive)
REMARK    1  A    between atoms: C_1  and  C_2
REMARK    2  A    between atoms: C_2  and  C_3
REMARK    3  A    between atoms: C_3  and  C_4
REMARK    4  A    between atoms: C_8  and  C_9
REMARK    5  A    between atoms: N_12  and  C_13
REMARK    6  A    between atoms: C_17  and  C_18
REMARK    7  A    between atoms: C_18  and  C_19
REMARK    8  A    between atoms: C_19  and  C_20
REMARK    9  A    between atoms: N_24  and  C_25
REMARK                            x       y       z     vdW  Elec       q    Type
REMARK                         _______ _______ _______ _____ _____    ______ ____
ROOT
ATOM      1  C   UNL     1       1.336   8.686  20.061  0.00  0.00    +0.000 A 
ATOM      2  C   UNL     1       1.265   8.518  21.450  0.00  0.00    +0.000 A 
ATOM      3  C   UNL     1       0.660   9.465  22.279  0.00  0.00    +0.000 A 
ATOM      4  C   UNL     1       0.053  10.582  21.722  0.00  0.00    +0.000 A 
ATOM      5  C   UNL     1       0.010  10.774  20.331  0.00  0.00    +0.000 A 
ATOM      6  C   UNL     1       0.701   9.826  19.540  0.00  0.00    +0.000 A 
ENDROOT
BRANCH   1  15
ATOM      7  C   UNL     1       5.359   5.683  16.917  0.00  0.00    +0.000 A 
ATOM      8  C   UNL     1       4.596   6.845  16.854  0.00  0.00    +0.000 A 
ATOM      9  C   UNL     1       3.590   6.985  17.786  0.00  0.00    +0.000 A 
ATOM     10  C   UNL     1       3.362   5.987  18.734  0.00  0.00    +0.000 A 
ATOM     11  C   UNL     1       4.138   4.852  18.735  0.00  0.00    +0.000 A 
ATOM     12  C   UNL     1       3.959   3.753  19.736  0.00  0.00    +0.000 C 
ATOM     13  N   UNL     1       5.140   4.698  17.839  0.00  0.00    +0.000 NA
ATOM     14  C   UNL     1       2.273   6.394  19.663  0.00  0.00    +0.000 C 
ATOM     15  N   UNL     1       1.969   7.770  19.250  0.00  0.00    +0.000 N 
ATOM     16  C   UNL     1       2.658   8.135  17.999  0.00  0.00    +0.000 C 
BRANCH   7  17
ATOM     17  C   UNL     1       6.521   5.481  15.979  0.00  0.00    +0.000 C 
BRANCH  17  19
ATOM     18  C   UNL     1       6.159   4.042  13.945  0.00  0.00    +0.000 C 
ATOM     19  C   UNL     1       6.546   4.060  15.414  0.00  0.00    +0.000 C 
ENDBRANCH  17  19
ENDBRANCH   7  17
ENDBRANCH   1  15
BRANCH   5  20
ATOM     20  C   UNL     1      -0.860  11.948  19.679  0.00  0.00    +0.000 C 
ATOM     21  C   UNL     1      -0.219  12.597  18.415  0.00  0.00    +0.000 C 
ATOM     22  O   UNL     1      -0.570  13.921  18.882  0.00  0.00    +0.000 OA
ATOM     23  C   UNL     1      -0.703  13.394  20.233  0.00  0.00    +0.000 C 
BRANCH  20  24
ATOM     24  C   UNL     1      -2.320  11.533  19.424  0.00  0.00    +0.000 C 
BRANCH  24  25
ATOM     25  C   UNL     1      -2.586  11.076  18.028  0.00  0.00    +0.000 A 
ATOM     26  N   UNL     1      -1.784  10.340  17.284  0.00  0.00    +0.000 NA
ATOM     27  N   UNL     1      -2.422  10.067  16.097  0.00  0.00    +0.000 NA
ATOM     28  C   UNL     1      -3.599  10.642  16.141  0.00  0.00    +0.000 A 
ATOM     29  N   UNL     1      -3.740  11.303  17.322  0.00  0.00    +0.000 N 
ATOM     30  C   UNL     1      -4.895  12.060  17.724  0.00  0.00    +0.000 C 
ENDBRANCH  24  25
ENDBRANCH  20  24
ENDBRANCH   5  20
TORSDOF 6
ENDMDL
MODEL 9
REMARK VINA RESULT:      -8.0      0.760      1.264
REMARK  Name = 
REMARK  9 active torsions:
REMARK  status: ('A' for Active; 'I' for Inactive)
REMARK    1  A    between atoms: C_1  and  C_2
REMARK    2  A    between atoms: C_2  and  C_3
REMARK    3  A    between atoms: C_3  and  C_4
REMARK    4  A    between atoms: C_8  and  C_9
REMARK    5  A    between atoms: N_12  and  C_13
REMARK    6  A    between atoms: C_17  and  C_18
REMARK    7  A    between atoms: C_18  and  C_19
REMARK    8  A    between atoms: C_19  and  C_20
REMARK    9  A    between atoms: N_24  and  C_25
REMARK                            x       y       z     vdW  Elec       q    Type
REMARK                         _______ _______ _______ _____ _____    ______ ____
ROOT
ATOM      1  C   UNL     1       3.202   6.005  18.607  0.00  0.00    +0.000 A 
ATOM      2  C   UNL     1       2.981   4.863  19.388  0.00  0.00    +0.000 A 
ATOM      3  C   UNL     1       3.498   3.615  19.036  0.00  0.00    +0.000 A 
ATOM      4  C   UNL     1       4.308   3.495  17.915  0.00  0.00    +0.000 A 
ATOM      5  C   UNL     1       4.643   4.612  17.131  0.00  0.00    +0.000 A 
ATOM      6  C   UNL     1       4.033   5.839  17.486  0.00  0.00    +0.000 A 
ENDROOT
BRANCH   1  15
ATOM      7  C   UNL     1      -0.302  10.768  18.963  0.00  0.00    +0.000 A 
ATOM      8  C   UNL     1       0.645  10.192  18.121  0.00  0.00    +0.000 A 
ATOM      9  C   UNL     1       1.373   9.136  18.628  0.00  0.00    +0.000 A 
ATOM     10  C   UNL     1       1.157   8.690  19.932  0.00  0.00    +0.000 A 
ATOM     11  C   UNL     1       0.219   9.312  20.722  0.00  0.00    +0.000 A 
ATOM     12  C   UNL     1      -0.076   8.871  22.122  0.00  0.00    +0.000 C 
ATOM     13  N   UNL     1      -0.517  10.341  20.243  0.00  0.00    +0.000 NA
ATOM     14  C   UNL     1       2.012   7.507  20.224  0.00  0.00    +0.000 C 
ATOM     15  N   UNL     1       2.656   7.226  18.934  0.00  0.00    +0.000 N 
ATOM     16  C   UNL     1       2.404   8.292  17.948  0.00  0.00    +0.000 C 
BRANCH   7  17
ATOM     17  C   UNL     1      -1.187  11.882  18.467  0.00  0.00    +0.000 C 
BRANCH  17  19
ATOM     18  C   UNL     1      -3.568  11.411  17.803  0.00  0.00    +0.000 C 
ATOM     19  C   UNL     1      -2.119  11.406  17.351  0.00  0.00    +0.000 C 
ENDBRANCH  17  19
ENDBRANCH   7  17
ENDBRANCH   1  15
BRANCH   5  20
ATOM     20  C   UNL     1       5.733   4.514  15.965  0.00  0.00    +0.000 C 
ATOM     21  C   UNL     1       5.587   5.600  14.856  0.00  0.00    +0.000 C 
ATOM     22  O   UNL     1       5.817   4.614  13.821  0.00  0.00    +0.000 OA
ATOM     23  C   UNL     1       5.461   3.563  14.763  0.00  0.00    +0.000 C 
BRANCH  20  24
ATOM     24  C   UNL     1       7.173   4.443  16.502  0.00  0.00    +0.000 C 
BRANCH  24  25
ATOM     25  C   UNL     1       7.352   5.077  17.842  0.00  0.00    +0.000 A 
ATOM     26  N   UNL     1       7.390   4.450  19.001  0.00  0.00    +0.000 NA
ATOM     27  N   UNL     1       7.650   5.373  19.986  0.00  0.00    +0.000 NA
ATOM     28  C   UNL     1       7.766   6.544  19.408  0.00  0.00    +0.000 A 
ATOM     29  N   UNL     1       7.567   6.413  18.068  0.00  0.00    +0.000 N 
ATOM     30  C   UNL     1       7.606   7.482  17.108  0.00  0.00    +0.000 C 
ENDBRANCH  24  25
ENDBRANCH  20  24
ENDBRANCH   5  20
TORSDOF 6
ENDMDL
