MODEL 1
REMARK VINA RESULT:      -8.6      0.000      0.000
REMARK  Name = 
REMARK  3 active torsions:
REMARK  status: ('A' for Active; 'I' for Inactive)
REMARK    1  A    between atoms: C_7  and  O_8
REMARK    2  A    between atoms: O_8  and  C_9
REMARK    3  A    between atoms: C_9  and  C_10
REMARK                            x       y       z     vdW  Elec       q    Type
REMARK                         _______ _______ _______ _____ _____    ______ ____
ROOT
ATOM      1  O   UNL     1       3.531   3.051  19.146  0.00  0.00    +0.000 OA
ENDROOT
BRANCH   1   8
ATOM      2  O   UNL     1       8.265   5.714  13.810  0.00  0.00    +0.000 OA
ATOM      3  C   UNL     1       7.365   5.241  14.501  0.00  0.00    +0.000 C 
ATOM      4  C   UNL     1       6.083   4.702  13.908  0.00  0.00    +0.000 C 
ATOM      5  C   UNL     1       5.533   3.543  14.725  0.00  0.00    +0.000 C 
ATOM      6  C   UNL     1       5.471   3.903  16.185  0.00  0.00    +0.000 A 
ATOM      7  C   UNL     1       4.516   3.345  17.045  0.00  0.00    +0.000 A 
ATOM      8  C   UNL     1       4.529   3.638  18.415  0.00  0.00    +0.000 A 
ATOM      9  C   UNL     1       5.526   4.473  18.925  0.00  0.00    +0.000 A 
ATOM     10  C   UNL     1       6.495   5.016  18.078  0.00  0.00    +0.000 A 
ATOM     11  C   UNL     1       6.457   4.743  16.713  0.00  0.00    +0.000 A 
ATOM     12  N   UNL     1       7.423   5.295  15.869  0.00  0.00    +0.000 N 
ATOM     13  H   UNL     1       8.222   5.782  16.256  0.00  0.00    +0.000 HD
ENDBRANCH   1   8
BRANCH   1  14
ATOM     14  C   UNL     1       2.250   3.668  19.111  0.00  0.00    +0.000 C 
BRANCH  14  15
ATOM     15  C   UNL     1       2.143   4.814  20.127  0.00  0.00    +0.000 C 
ATOM     16  O   UNL     1       2.047   4.563  21.333  0.00  0.00    +0.000 OA
ATOM     17  N   UNL     1       2.213   6.118  19.650  0.00  0.00    +0.000 N 
ATOM     18  C   UNL     1       2.385   6.447  18.229  0.00  0.00    +0.000 C 
ATOM     19  C   UNL     1       2.758   7.907  17.961  0.00  0.00    +0.000 C 
ATOM     20  C   UNL     1       1.776   8.802  18.662  0.00  0.00    +0.000 A 
ATOM     21  C   UNL     1       1.270   9.960  18.067  0.00  0.00    +0.000 A 
ATOM     22  C   UNL     1       0.342  10.742  18.753  0.00  0.00    +0.000 A 
ATOM     23  C   UNL     1      -0.070  10.379  20.036  0.00  0.00    +0.000 A 
ATOM     24  C   UNL     1       0.451   9.234  20.643  0.00  0.00    +0.000 A 
ATOM     25  C   UNL     1       1.372   8.436  19.959  0.00  0.00    +0.000 A 
ATOM     26  C   UNL     1       1.989   7.213  20.599  0.00  0.00    +0.000 C 
ENDBRANCH  14  15
ENDBRANCH   1  14
TORSDOF 3
ENDMDL
MODEL 2
REMARK VINA RESULT:      -8.1      4.023      8.919
REMARK  Name = 
REMARK  3 active torsions:
REMARK  status: ('A' for Active; 'I' for Inactive)
REMARK    1  A    between atoms: C_7  and  O_8
REMARK    2  A    between atoms: O_8  and  C_9
REMARK    3  A    between atoms: C_9  and  C_10
REMARK                            x       y       z     vdW  Elec       q    Type
REMARK                         _______ _______ _______ _____ _____    ______ ____
ROOT
ATOM      1  O   UNL     1       1.106  10.274  19.242  0.00  0.00    +0.000 OA
ENDROOT
BRANCH   1   8
ATOM      2  O   UNL     1      -5.867  12.254  16.911  0.00  0.00    +0.000 OA
ATOM      3  C   UNL     1      -4.753  11.781  17.127  0.00  0.00    +0.000 C 
ATOM      4  C   UNL     1      -4.180  10.646  16.309  0.00  0.00    +0.000 C 
ATOM      5  C   UNL     1      -2.667  10.752  16.187  0.00  0.00    +0.000 C 
ATOM      6  C   UNL     1      -2.038  10.961  17.539  0.00  0.00    +0.000 A 
ATOM      7  C   UNL     1      -0.743  10.511  17.829  0.00  0.00    +0.000 A 
ATOM      8  C   UNL     1      -0.152  10.786  19.070  0.00  0.00    +0.000 A 
ATOM      9  C   UNL     1      -0.857  11.542  20.009  0.00  0.00    +0.000 A 
ATOM     10  C   UNL     1      -2.139  12.013  19.719  0.00  0.00    +0.000 A 
ATOM     11  C   UNL     1      -2.731  11.710  18.495  0.00  0.00    +0.000 A 
ATOM     12  N   UNL     1      -4.017  12.176  18.212  0.00  0.00    +0.000 N 
ATOM     13  H   UNL     1      -4.469  12.837  18.832  0.00  0.00    +0.000 HD
ENDBRANCH   1   8
BRANCH   1  14
ATOM     14  C   UNL     1       1.205   8.961  19.781  0.00  0.00    +0.000 C 
BRANCH  14  15
ATOM     15  C   UNL     1       2.148   8.075  18.955  0.00  0.00    +0.000 C 
ATOM     16  O   UNL     1       2.751   8.550  17.986  0.00  0.00    +0.000 OA
ATOM     17  N   UNL     1       2.335   6.761  19.366  0.00  0.00    +0.000 N 
ATOM     18  C   UNL     1       1.678   6.185  20.546  0.00  0.00    +0.000 C 
ATOM     19  C   UNL     1       2.261   4.845  21.002  0.00  0.00    +0.000 C 
ATOM     20  C   UNL     1       2.306   3.905  19.831  0.00  0.00    +0.000 A 
ATOM     21  C   UNL     1       1.965   2.556  19.948  0.00  0.00    +0.000 A 
ATOM     22  C   UNL     1       2.002   1.732  18.824  0.00  0.00    +0.000 A 
ATOM     23  C   UNL     1       2.392   2.249  17.588  0.00  0.00    +0.000 A 
ATOM     24  C   UNL     1       2.756   3.592  17.472  0.00  0.00    +0.000 A 
ATOM     25  C   UNL     1       2.711   4.430  18.590  0.00  0.00    +0.000 A 
ATOM     26  C   UNL     1       3.137   5.878  18.512  0.00  0.00    +0.000 C 
ENDBRANCH  14  15
ENDBRANCH   1  14
TORSDOF 3
ENDMDL
MODEL 3
REMARK VINA RESULT:      -8.0      3.691      6.382
REMARK  Name = 
REMARK  3 active torsions:
REMARK  status: ('A' for Active; 'I' for Inactive)
REMARK    1  A    between atoms: C_7  and  O_8
REMARK    2  A    between atoms: O_8  and  C_9
REMARK    3  A    between atoms: C_9  and  C_10
REMARK                            x       y       z     vdW  Elec       q    Type
REMARK                         _______ _______ _______ _____ _____    ______ ____
ROOT
ATOM      1  O   UNL     1       1.535   8.456  21.297  0.00  0.00    +0.000 OA
ENDROOT
BRANCH   1   8
ATOM      2  O   UNL     1       2.218   1.979  17.352  0.00  0.00    +0.000 OA
ATOM      3  C   UNL     1       1.962   2.910  18.112  0.00  0.00    +0.000 C 
ATOM      4  C   UNL     1       0.996   2.775  19.268  0.00  0.00    +0.000 C 
ATOM      5  C   UNL     1       1.401   3.655  20.441  0.00  0.00    +0.000 C 
ATOM      6  C   UNL     1       1.669   5.063  19.981  0.00  0.00    +0.000 A 
ATOM      7  C   UNL     1       1.468   6.166  20.821  0.00  0.00    +0.000 A 
ATOM      8  C   UNL     1       1.800   7.460  20.395  0.00  0.00    +0.000 A 
ATOM      9  C   UNL     1       2.363   7.637  19.130  0.00  0.00    +0.000 A 
ATOM     10  C   UNL     1       2.587   6.541  18.295  0.00  0.00    +0.000 A 
ATOM     11  C   UNL     1       2.228   5.262  18.715  0.00  0.00    +0.000 A 
ATOM     12  N   UNL     1       2.446   4.169  17.873  0.00  0.00    +0.000 N 
ATOM     13  H   UNL     1       2.978   4.280  17.019  0.00  0.00    +0.000 HD
ENDBRANCH   1   8
BRANCH   1  14
ATOM     14  C   UNL     1       0.494   9.368  20.971  0.00  0.00    +0.000 C 
BRANCH  14  15
ATOM     15  C   UNL     1       0.019  10.153  22.201  0.00  0.00    +0.000 C 
ATOM     16  O   UNL     1       0.476   9.888  23.318  0.00  0.00    +0.000 OA
ATOM     17  N   UNL     1      -0.885  11.191  22.004  0.00  0.00    +0.000 N 
ATOM     18  C   UNL     1      -1.402  11.568  20.682  0.00  0.00    +0.000 C 
ATOM     19  C   UNL     1      -2.119  12.919  20.647  0.00  0.00    +0.000 C 
ATOM     20  C   UNL     1      -3.167  12.947  21.723  0.00  0.00    +0.000 A 
ATOM     21  C   UNL     1      -4.433  13.499  21.513  0.00  0.00    +0.000 A 
ATOM     22  C   UNL     1      -5.377  13.477  22.539  0.00  0.00    +0.000 A 
ATOM     23  C   UNL     1      -5.055  12.919  23.777  0.00  0.00    +0.000 A 
ATOM     24  C   UNL     1      -3.783  12.386  23.997  0.00  0.00    +0.000 A 
ATOM     25  C   UNL     1      -2.833  12.392  22.972  0.00  0.00    +0.000 A 
ATOM     26  C   UNL     1      -1.434  11.863  23.186  0.00  0.00    +0.000 C 
ENDBRANCH  14  15
ENDBRANCH   1  14
TORSDOF 3
ENDMDL
MODEL 4
REMARK VINA RESULT:      -7.9      4.228      9.297
REMARK  Name = 
REMARK  3 active torsions:
REMARK  status: ('A' for Active; 'I' for Inactive)
REMARK    1  A    between atoms: C_7  and  O_8
REMARK    2  A    between atoms: O_8  and  C_9
REMARK    3  A    between atoms: C_9  and  C_10
REMARK                            x       y       z     vdW  Elec       q    Type
REMARK                         _______ _______ _______ _____ _____    ______ ____
ROOT
ATOM      1  O   UNL     1       0.376   9.597  17.800  0.00  0.00    +0.000 OA
ENDROOT
BRANCH   1   8
ATOM      2  O   UNL     1      -6.252  13.076  19.191  0.00  0.00    +0.000 OA
ATOM      3  C   UNL     1      -5.304  12.379  18.839  0.00  0.00    +0.000 C 
ATOM      4  C   UNL     1      -5.460  11.215  17.887  0.00  0.00    +0.000 C 
ATOM      5  C   UNL     1      -4.221  11.030  17.022  0.00  0.00    +0.000 C 
ATOM      6  C   UNL     1      -2.978  11.011  17.871  0.00  0.00    +0.000 A 
ATOM      7  C   UNL     1      -1.835  10.296  17.492  0.00  0.00    +0.000 A 
ATOM      8  C   UNL     1      -0.665  10.358  18.261  0.00  0.00    +0.000 A 
ATOM      9  C   UNL     1      -0.638  11.169  19.398  0.00  0.00    +0.000 A 
ATOM     10  C   UNL     1      -1.766  11.903  19.770  0.00  0.00    +0.000 A 
ATOM     11  C   UNL     1      -2.934  11.812  19.016  0.00  0.00    +0.000 A 
ATOM     12  N   UNL     1      -4.063  12.541  19.397  0.00  0.00    +0.000 N 
ATOM     13  H   UNL     1      -4.001  13.231  20.135  0.00  0.00    +0.000 HD
ENDBRANCH   1   8
BRANCH   1  14
ATOM     14  C   UNL     1       1.415   9.292  18.723  0.00  0.00    +0.000 C 
BRANCH  14  15
ATOM     15  C   UNL     1       2.365   8.217  18.175  0.00  0.00    +0.000 C 
ATOM     16  O   UNL     1       3.097   8.471  17.213  0.00  0.00    +0.000 OA
ATOM     17  N   UNL     1       2.408   6.990  18.828  0.00  0.00    +0.000 N 
ATOM     18  C   UNL     1       1.593   6.678  20.009  0.00  0.00    +0.000 C 
ATOM     19  C   UNL     1       2.022   5.412  20.754  0.00  0.00    +0.000 C 
ATOM     20  C   UNL     1       2.111   4.274  19.779  0.00  0.00    +0.000 A 
ATOM     21  C   UNL     1       1.656   2.990  20.090  0.00  0.00    +0.000 A 
ATOM     22  C   UNL     1       1.742   1.975  19.139  0.00  0.00    +0.000 A 
ATOM     23  C   UNL     1       2.293   2.235  17.883  0.00  0.00    +0.000 A 
ATOM     24  C   UNL     1       2.770   3.511  17.577  0.00  0.00    +0.000 A 
ATOM     25  C   UNL     1       2.678   4.539  18.519  0.00  0.00    +0.000 A 
ATOM     26  C   UNL     1       3.220   5.921  18.237  0.00  0.00    +0.000 C 
ENDBRANCH  14  15
ENDBRANCH   1  14
TORSDOF 3
ENDMDL
MODEL 5
REMARK VINA RESULT:      -7.8      3.341      5.363
REMARK  Name = 
REMARK  3 active torsions:
REMARK  status: ('A' for Active; 'I' for Inactive)
REMARK    1  A    between atoms: C_7  and  O_8
REMARK    2  A    between atoms: O_8  and  C_9
REMARK    3  A    between atoms: C_9  and  C_10
REMARK                            x       y       z     vdW  Elec       q    Type
REMARK                         _______ _______ _______ _____ _____    ______ ____
ROOT
ATOM      1  O   UNL     1       2.520   8.670  17.741  0.00  0.00    +0.000 OA
ENDROOT
BRANCH   1   8
ATOM      2  O   UNL     1       3.702   1.171  18.330  0.00  0.00    +0.000 OA
ATOM      3  C   UNL     1       3.295   2.327  18.236  0.00  0.00    +0.000 C 
ATOM      4  C   UNL     1       1.824   2.672  18.213  0.00  0.00    +0.000 C 
ATOM      5  C   UNL     1       1.555   4.022  18.862  0.00  0.00    +0.000 C 
ATOM      6  C   UNL     1       2.477   5.073  18.304  0.00  0.00    +0.000 A 
ATOM      7  C   UNL     1       2.104   6.422  18.236  0.00  0.00    +0.000 A 
ATOM      8  C   UNL     1       3.009   7.392  17.784  0.00  0.00    +0.000 A 
ATOM      9  C   UNL     1       4.304   7.004  17.430  0.00  0.00    +0.000 A 
ATOM     10  C   UNL     1       4.690   5.665  17.517  0.00  0.00    +0.000 A 
ATOM     11  C   UNL     1       3.775   4.704  17.938  0.00  0.00    +0.000 A 
ATOM     12  N   UNL     1       4.163   3.364  18.015  0.00  0.00    +0.000 N 
ATOM     13  H   UNL     1       5.134   3.106  17.894  0.00  0.00    +0.000 HD
ENDBRANCH   1   8
BRANCH   1  14
ATOM     14  C   UNL     1       1.113   8.831  17.875  0.00  0.00    +0.000 C 
BRANCH  14  15
ATOM     15  C   UNL     1       0.751  10.199  18.469  0.00  0.00    +0.000 C 
ATOM     16  O   UNL     1       1.591  10.834  19.117  0.00  0.00    +0.000 OA
ATOM     17  N   UNL     1      -0.515  10.711  18.207  0.00  0.00    +0.000 N 
ATOM     18  C   UNL     1      -1.514  10.007  17.392  0.00  0.00    +0.000 C 
ATOM     19  C   UNL     1      -2.701  10.873  16.964  0.00  0.00    +0.000 C 
ATOM     20  C   UNL     1      -3.287  11.538  18.177  0.00  0.00    +0.000 A 
ATOM     21  C   UNL     1      -4.666  11.660  18.365  0.00  0.00    +0.000 A 
ATOM     22  C   UNL     1      -5.156  12.265  19.520  0.00  0.00    +0.000 A 
ATOM     23  C   UNL     1      -4.275  12.762  20.481  0.00  0.00    +0.000 A 
ATOM     24  C   UNL     1      -2.896  12.663  20.286  0.00  0.00    +0.000 A 
ATOM     25  C   UNL     1      -2.393  12.046  19.137  0.00  0.00    +0.000 A 
ATOM     26  C   UNL     1      -0.907  11.958  18.871  0.00  0.00    +0.000 C 
ENDBRANCH  14  15
ENDBRANCH   1  14
TORSDOF 3
ENDMDL
MODEL 6
REMARK VINA RESULT:      -7.7      5.483      6.981
REMARK  Name = 
REMARK  3 active torsions:
REMARK  status: ('A' for Active; 'I' for Inactive)
REMARK    1  A    between atoms: C_7  and  O_8
REMARK    2  A    between atoms: O_8  and  C_9
REMARK    3  A    between atoms: C_9  and  C_10
REMARK                            x       y       z     vdW  Elec       q    Type
REMARK                         _______ _______ _______ _____ _____    ______ ____
ROOT
ATOM      1  O   UNL     1       7.670   7.180  16.621  0.00  0.00    +0.000 OA
ENDROOT
BRANCH   1   8
ATOM      2  O   UNL     1       1.498   2.861  17.726  0.00  0.00    +0.000 OA
ATOM      3  C   UNL     1       2.365   3.725  17.618  0.00  0.00    +0.000 C 
ATOM      4  C   UNL     1       2.122   5.171  17.986  0.00  0.00    +0.000 C 
ATOM      5  C   UNL     1       3.384   5.832  18.520  0.00  0.00    +0.000 C 
ATOM      6  C   UNL     1       4.546   5.584  17.596  0.00  0.00    +0.000 A 
ATOM      7  C   UNL     1       5.605   6.494  17.479  0.00  0.00    +0.000 A 
ATOM      8  C   UNL     1       6.712   6.203  16.671  0.00  0.00    +0.000 A 
ATOM      9  C   UNL     1       6.765   4.978  16.002  0.00  0.00    +0.000 A 
ATOM     10  C   UNL     1       5.724   4.056  16.131  0.00  0.00    +0.000 A 
ATOM     11  C   UNL     1       4.614   4.366  16.913  0.00  0.00    +0.000 A 
ATOM     12  N   UNL     1       3.571   3.444  17.032  0.00  0.00    +0.000 N 
ATOM     13  H   UNL     1       3.672   2.507  16.663  0.00  0.00    +0.000 HD
ENDBRANCH   1   8
BRANCH   1  14
ATOM     14  C   UNL     1       7.372   8.415  17.261  0.00  0.00    +0.000 C 
BRANCH  14  15
ATOM     15  C   UNL     1       8.367   8.727  18.387  0.00  0.00    +0.000 C 
ATOM     16  O   UNL     1       8.797   7.816  19.103  0.00  0.00    +0.000 OA
ATOM     17  N   UNL     1       8.801  10.040  18.529  0.00  0.00    +0.000 N 
ATOM     18  C   UNL     1       8.354  11.134  17.657  0.00  0.00    +0.000 C 
ATOM     19  C   UNL     1       9.185  12.414  17.776  0.00  0.00    +0.000 C 
ATOM     20  C   UNL     1       9.276  12.809  19.222  0.00  0.00    +0.000 A 
ATOM     21  C   UNL     1       9.170  14.138  19.638  0.00  0.00    +0.000 A 
ATOM     22  C   UNL     1       9.238  14.446  20.996  0.00  0.00    +0.000 A 
ATOM     23  C   UNL     1       9.428  13.433  21.937  0.00  0.00    +0.000 A 
ATOM     24  C   UNL     1       9.557  12.106  21.522  0.00  0.00    +0.000 A 
ATOM     25  C   UNL     1       9.478  11.784  20.165  0.00  0.00    +0.000 A 
ATOM     26  C   UNL     1       9.655  10.365  19.676  0.00  0.00    +0.000 C 
ENDBRANCH  14  15
ENDBRANCH   1  14
TORSDOF 3
ENDMDL
MODEL 7
REMARK VINA RESULT:      -7.7      3.455      5.860
REMARK  Name = 
REMARK  3 active torsions:
REMARK  status: ('A' for Active; 'I' for Inactive)
REMARK    1  A    between atoms: C_7  and  O_8
REMARK    2  A    between atoms: O_8  and  C_9
REMARK    3  A    between atoms: C_9  and  C_10
REMARK                            x       y       z     vdW  Elec       q    Type
REMARK                         _______ _______ _______ _____ _____    ______ ____
ROOT
ATOM      1  O   UNL     1       1.682   8.585  19.658  0.00  0.00    +0.000 OA
ENDROOT
BRANCH   1   8
ATOM      2  O   UNL     1       3.784   1.302  18.935  0.00  0.00    +0.000 OA
ATOM      3  C   UNL     1       3.286   2.397  19.186  0.00  0.00    +0.000 C 
ATOM      4  C   UNL     1       2.111   2.561  20.124  0.00  0.00    +0.000 C 
ATOM      5  C   UNL     1       2.172   3.885  20.871  0.00  0.00    +0.000 C 
ATOM      6  C   UNL     1       2.404   5.025  19.915  0.00  0.00    +0.000 A 
ATOM      7  C   UNL     1       1.928   6.317  20.175  0.00  0.00    +0.000 A 
ATOM      8  C   UNL     1       2.224   7.377  19.308  0.00  0.00    +0.000 A 
ATOM      9  C   UNL     1       3.028   7.139  18.190  0.00  0.00    +0.000 A 
ATOM     10  C   UNL     1       3.525   5.859  17.936  0.00  0.00    +0.000 A 
ATOM     11  C   UNL     1       3.201   4.806  18.788  0.00  0.00    +0.000 A 
ATOM     12  N   UNL     1       3.694   3.525  18.524  0.00  0.00    +0.000 N 
ATOM     13  H   UNL     1       4.385   3.383  17.799  0.00  0.00    +0.000 HD
ENDBRANCH   1   8
BRANCH   1  14
ATOM     14  C   UNL     1       1.104   9.363  18.617  0.00  0.00    +0.000 C 
BRANCH  14  15
ATOM     15  C   UNL     1       0.397  10.611  19.165  0.00  0.00    +0.000 C 
ATOM     16  O   UNL     1       0.918  11.267  20.073  0.00  0.00    +0.000 OA
ATOM     17  N   UNL     1      -0.799  10.997  18.572  0.00  0.00    +0.000 N 
ATOM     18  C   UNL     1      -1.413  10.272  17.452  0.00  0.00    +0.000 C 
ATOM     19  C   UNL     1      -2.537  11.035  16.748  0.00  0.00    +0.000 C 
ATOM     20  C   UNL     1      -3.533  11.498  17.772  0.00  0.00    +0.000 A 
ATOM     21  C   UNL     1      -4.911  11.440  17.548  0.00  0.00    +0.000 A 
ATOM     22  C   UNL     1      -5.793  11.861  18.542  0.00  0.00    +0.000 A 
ATOM     23  C   UNL     1      -5.303  12.354  19.752  0.00  0.00    +0.000 A 
ATOM     24  C   UNL     1      -3.926  12.435  19.970  0.00  0.00    +0.000 A 
ATOM     25  C   UNL     1      -3.033  12.003  18.985  0.00  0.00    +0.000 A 
ATOM     26  C   UNL     1      -1.537  12.115  19.169  0.00  0.00    +0.000 C 
ENDBRANCH  14  15
ENDBRANCH   1  14
TORSDOF 3
ENDMDL
MODEL 8
REMARK VINA RESULT:      -7.7      3.281      5.495
REMARK  Name = 
REMARK  3 active torsions:
REMARK  status: ('A' for Active; 'I' for Inactive)
REMARK    1  A    between atoms: C_7  and  O_8
REMARK    2  A    between atoms: O_8  and  C_9
REMARK    3  A    between atoms: C_9  and  C_10
REMARK                            x       y       z     vdW  Elec       q    Type
REMARK                         _______ _______ _______ _____ _____    ______ ____
ROOT
ATOM      1  O   UNL     1       1.731   8.505  20.011  0.00  0.00    +0.000 OA
ENDROOT
BRANCH   1   8
ATOM      2  O   UNL     1       3.712   1.389  18.165  0.00  0.00    +0.000 OA
ATOM      3  C   UNL     1       3.553   2.597  18.322  0.00  0.00    +0.000 C 
ATOM      4  C   UNL     1       4.376   3.628  17.582  0.00  0.00    +0.000 C 
ATOM      5  C   UNL     1       3.572   4.889  17.304  0.00  0.00    +0.000 C 
ATOM      6  C   UNL     1       2.895   5.377  18.557  0.00  0.00    +0.000 A 
ATOM      7  C   UNL     1       2.619   6.734  18.768  0.00  0.00    +0.000 A 
ATOM      8  C   UNL     1       1.919   7.153  19.907  0.00  0.00    +0.000 A 
ATOM      9  C   UNL     1       1.470   6.197  20.822  0.00  0.00    +0.000 A 
ATOM     10  C   UNL     1       1.723   4.840  20.608  0.00  0.00    +0.000 A 
ATOM     11  C   UNL     1       2.445   4.436  19.487  0.00  0.00    +0.000 A 
ATOM     12  N   UNL     1       2.702   3.078  19.282  0.00  0.00    +0.000 N 
ATOM     13  H   UNL     1       2.260   2.380  19.867  0.00  0.00    +0.000 HD
ENDBRANCH   1   8
BRANCH   1  14
ATOM     14  C   UNL     1       1.461   9.217  18.810  0.00  0.00    +0.000 C 
BRANCH  14  15
ATOM     15  C   UNL     1       0.764  10.557  19.087  0.00  0.00    +0.000 C 
ATOM     16  O   UNL     1       1.329  11.417  19.771  0.00  0.00    +0.000 OA
ATOM     17  N   UNL     1      -0.477  10.781  18.503  0.00  0.00    +0.000 N 
ATOM     18  C   UNL     1      -1.148   9.801  17.638  0.00  0.00    +0.000 C 
ATOM     19  C   UNL     1      -2.333  10.364  16.850  0.00  0.00    +0.000 C 
ATOM     20  C   UNL     1      -3.269  11.056  17.798  0.00  0.00    +0.000 A 
ATOM     21  C   UNL     1      -4.657  10.937  17.692  0.00  0.00    +0.000 A 
ATOM     22  C   UNL     1      -5.480  11.583  18.613  0.00  0.00    +0.000 A 
ATOM     23  C   UNL     1      -4.922  12.358  19.630  0.00  0.00    +0.000 A 
ATOM     24  C   UNL     1      -3.536  12.498  19.726  0.00  0.00    +0.000 A 
ATOM     25  C   UNL     1      -2.701  11.845  18.815  0.00  0.00    +0.000 A 
ATOM     26  C   UNL     1      -1.199  12.006  18.862  0.00  0.00    +0.000 C 
ENDBRANCH  14  15
ENDBRANCH   1  14
TORSDOF 3
ENDMDL
MODEL 9
REMARK VINA RESULT:      -7.6      1.196      1.353
REMARK  Name = 
REMARK  3 active torsions:
REMARK  status: ('A' for Active; 'I' for Inactive)
REMARK    1  A    between atoms: C_7  and  O_8
REMARK    2  A    between atoms: O_8  and  C_9
REMARK    3  A    between atoms: C_9  and  C_10
REMARK                            x       y       z     vdW  Elec       q    Type
REMARK                         _______ _______ _______ _____ _____    ______ ____
ROOT
ATOM      1  O   UNL     1       2.292   2.056  18.881  0.00  0.00    +0.000 OA
ENDROOT
BRANCH   1   8
ATOM      2  O   UNL     1       7.887   6.179  15.771  0.00  0.00    +0.000 OA
ATOM      3  C   UNL     1       6.868   5.572  16.092  0.00  0.00    +0.000 C 
ATOM      4  C   UNL     1       5.633   5.539  15.221  0.00  0.00    +0.000 C 
ATOM      5  C   UNL     1       4.884   4.221  15.362  0.00  0.00    +0.000 C 
ATOM      6  C   UNL     1       4.665   3.886  16.812  0.00  0.00    +0.000 A 
ATOM      7  C   UNL     1       3.562   3.134  17.239  0.00  0.00    +0.000 A 
ATOM      8  C   UNL     1       3.423   2.770  18.585  0.00  0.00    +0.000 A 
ATOM      9  C   UNL     1       4.413   3.140  19.498  0.00  0.00    +0.000 A 
ATOM     10  C   UNL     1       5.526   3.871  19.077  0.00  0.00    +0.000 A 
ATOM     11  C   UNL     1       5.642   4.253  17.743  0.00  0.00    +0.000 A 
ATOM     12  N   UNL     1       6.753   4.992  17.328  0.00  0.00    +0.000 N 
ATOM     13  H   UNL     1       7.533   5.138  17.956  0.00  0.00    +0.000 HD
ENDBRANCH   1   8
BRANCH   1  14
ATOM     14  C   UNL     1       1.109   2.797  19.151  0.00  0.00    +0.000 C 
BRANCH  14  15
ATOM     15  C   UNL     1       1.329   3.840  20.255  0.00  0.00    +0.000 C 
ATOM     16  O   UNL     1       1.236   3.512  21.443  0.00  0.00    +0.000 OA
ATOM     17  N   UNL     1       1.687   5.128  19.874  0.00  0.00    +0.000 N 
ATOM     18  C   UNL     1       1.863   5.534  18.474  0.00  0.00    +0.000 C 
ATOM     19  C   UNL     1       2.561   6.883  18.291  0.00  0.00    +0.000 C 
ATOM     20  C   UNL     1       1.858   7.917  19.124  0.00  0.00    +0.000 A 
ATOM     21  C   UNL     1       1.617   9.210  18.654  0.00  0.00    +0.000 A 
ATOM     22  C   UNL     1       0.939  10.124  19.460  0.00  0.00    +0.000 A 
ATOM     23  C   UNL     1       0.516   9.754  20.737  0.00  0.00    +0.000 A 
ATOM     24  C   UNL     1       0.776   8.469  21.219  0.00  0.00    +0.000 A 
ATOM     25  C   UNL     1       1.444   7.541  20.414  0.00  0.00    +0.000 A 
ATOM     26  C   UNL     1       1.780   6.156  20.917  0.00  0.00    +0.000 C 
ENDBRANCH  14  15
ENDBRANCH   1  14
TORSDOF 3
ENDMDL
