MODEL 1
REMARK VINA RESULT:      -8.6      0.000      0.000
REMARK  Name = 
REMARK  5 active torsions:
REMARK  status: ('A' for Active; 'I' for Inactive)
REMARK    1  A    between atoms: C_1  and  N_2
REMARK    2  A    between atoms: C_3  and  C_4
REMARK    3  A    between atoms: C_7  and  N_8
REMARK    4  A    between atoms: C_9  and  C_11
REMARK    5  A    between atoms: C_15  and  C_16
REMARK                            x       y       z     vdW  Elec       q    Type
REMARK                         _______ _______ _______ _____ _____    ______ ____
ROOT
ATOM      1  C   UNL     1       0.979   9.756  19.888  0.00  0.00    +0.000 A 
ATOM      2  C   UNL     1       1.251   9.970  18.536  0.00  0.00    +0.000 A 
ATOM      3  C   UNL     1       1.866   8.991  17.757  0.00  0.00    +0.000 A 
ATOM      4  C   UNL     1       2.284   7.782  18.310  0.00  0.00    +0.000 A 
ATOM      5  C   UNL     1       2.099   7.588  19.684  0.00  0.00    +0.000 A 
ATOM      6  C   UNL     1       1.447   8.566  20.463  0.00  0.00    +0.000 A 
ENDROOT
BRANCH   1   9
ATOM      7  C   UNL     1       1.745  12.809  20.244  0.00  0.00    +0.000 C 
ATOM      8  N   UNL     1       0.662  12.088  20.872  0.00  0.00    +0.000 N 
ATOM      9  C   UNL     1       0.276  10.769  20.692  0.00  0.00    +0.000 A 
ATOM     10  N   UNL     1      -0.836  10.535  21.373  0.00  0.00    +0.000 NA
ATOM     11  C   UNL     1      -1.104  11.677  22.085  0.00  0.00    +0.000 A 
ATOM     12  C   UNL     1      -2.120  11.941  23.015  0.00  0.00    +0.000 A 
ATOM     13  C   UNL     1      -2.166  13.200  23.632  0.00  0.00    +0.000 A 
ATOM     14  C   UNL     1      -1.225  14.182  23.320  0.00  0.00    +0.000 A 
ATOM     15  C   UNL     1      -0.209  13.939  22.390  0.00  0.00    +0.000 A 
ATOM     16  C   UNL     1      -0.180  12.670  21.796  0.00  0.00    +0.000 A 
ENDBRANCH   1   9
BRANCH   4  17
ATOM     17  N   UNL     1       2.908   6.765  17.544  0.00  0.00    +0.000 N 
ATOM     18  C   UNL     1       4.265   6.690  17.256  0.00  0.00    +0.000 C 
ATOM     19  O   UNL     1       5.103   7.543  17.522  0.00  0.00    +0.000 OA
ATOM     20  H   UNL     1       2.303   6.033  17.195  0.00  0.00    +0.000 HD
BRANCH  18  21
ATOM     21  C   UNL     1       4.673   5.435  16.515  0.00  0.00    +0.000 C 
ATOM     22  C   UNL     1       5.837   5.675  15.579  0.00  0.00    +0.000 C 
ATOM     23  C   UNL     1       6.429   4.289  15.453  0.00  0.00    +0.000 C 
ATOM     24  O   UNL     1       6.208   3.622  16.701  0.00  0.00    +0.000 OA
ATOM     25  C   UNL     1       5.280   4.408  17.480  0.00  0.00    +0.000 C 
BRANCH  25  26
ATOM     26  C   UNL     1       4.221   3.546  18.115  0.00  0.00    +0.000 A 
ATOM     27  C   UNL     1       3.101   3.091  17.416  0.00  0.00    +0.000 A 
ATOM     28  C   UNL     1       2.124   2.353  18.079  0.00  0.00    +0.000 A 
ATOM     29  C   UNL     1       2.299   2.096  19.427  0.00  0.00    +0.000 A 
ATOM     30  N   UNL     1       3.366   2.513  20.138  0.00  0.00    +0.000 NA
ATOM     31  C   UNL     1       4.303   3.221  19.467  0.00  0.00    +0.000 A 
ENDBRANCH  25  26
ENDBRANCH  18  21
ENDBRANCH   4  17
TORSDOF 4
ENDMDL
MODEL 2
REMARK VINA RESULT:      -8.5      3.186     10.017
REMARK  Name = 
REMARK  5 active torsions:
REMARK  status: ('A' for Active; 'I' for Inactive)
REMARK    1  A    between atoms: C_1  and  N_2
REMARK    2  A    between atoms: C_3  and  C_4
REMARK    3  A    between atoms: C_7  and  N_8
REMARK    4  A    between atoms: C_9  and  C_11
REMARK    5  A    between atoms: C_15  and  C_16
REMARK                            x       y       z     vdW  Elec       q    Type
REMARK                         _______ _______ _______ _____ _____    ______ ____
ROOT
ATOM      1  C   UNL     1       2.452   7.667  18.617  0.00  0.00    +0.000 A 
ATOM      2  C   UNL     1       2.179   7.438  19.966  0.00  0.00    +0.000 A 
ATOM      3  C   UNL     1       1.253   8.217  20.660  0.00  0.00    +0.000 A 
ATOM      4  C   UNL     1       0.605   9.289  20.049  0.00  0.00    +0.000 A 
ATOM      5  C   UNL     1       0.935   9.586  18.721  0.00  0.00    +0.000 A 
ATOM      6  C   UNL     1       1.846   8.778  18.012  0.00  0.00    +0.000 A 
ENDROOT
BRANCH   1   9
ATOM      7  C   UNL     1       2.051   4.629  17.817  0.00  0.00    +0.000 C 
ATOM      8  N   UNL     1       3.208   5.462  17.579  0.00  0.00    +0.000 N 
ATOM      9  C   UNL     1       3.385   6.805  17.873  0.00  0.00    +0.000 A 
ATOM     10  N   UNL     1       4.549   7.215  17.389  0.00  0.00    +0.000 NA
ATOM     11  C   UNL     1       5.173   6.103  16.882  0.00  0.00    +0.000 A 
ATOM     12  C   UNL     1       6.451   5.965  16.320  0.00  0.00    +0.000 A 
ATOM     13  C   UNL     1       6.870   4.698  15.890  0.00  0.00    +0.000 A 
ATOM     14  C   UNL     1       6.029   3.591  16.008  0.00  0.00    +0.000 A 
ATOM     15  C   UNL     1       4.750   3.711  16.559  0.00  0.00    +0.000 A 
ATOM     16  C   UNL     1       4.359   4.986  16.991  0.00  0.00    +0.000 A 
ENDBRANCH   1   9
BRANCH   4  17
ATOM     17  N   UNL     1      -0.344  10.096  20.725  0.00  0.00    +0.000 N 
ATOM     18  C   UNL     1      -0.102  11.362  21.244  0.00  0.00    +0.000 C 
ATOM     19  O   UNL     1       0.987  11.920  21.296  0.00  0.00    +0.000 OA
ATOM     20  H   UNL     1      -1.274   9.709  20.819  0.00  0.00    +0.000 HD
BRANCH  18  21
ATOM     21  C   UNL     1      -1.328  12.043  21.814  0.00  0.00    +0.000 C 
ATOM     22  C   UNL     1      -1.000  12.904  23.013  0.00  0.00    +0.000 C 
ATOM     23  C   UNL     1      -2.144  13.894  23.010  0.00  0.00    +0.000 C 
ATOM     24  O   UNL     1      -2.519  14.099  21.644  0.00  0.00    +0.000 OA
ATOM     25  C   UNL     1      -1.868  13.095  20.836  0.00  0.00    +0.000 C 
BRANCH  25  26
ATOM     26  C   UNL     1      -2.816  12.490  19.834  0.00  0.00    +0.000 A 
ATOM     27  C   UNL     1      -2.379  11.906  18.643  0.00  0.00    +0.000 A 
ATOM     28  C   UNL     1      -3.311  11.424  17.727  0.00  0.00    +0.000 A 
ATOM     29  C   UNL     1      -4.655  11.548  18.032  0.00  0.00    +0.000 A 
ATOM     30  N   UNL     1      -5.117  12.101  19.171  0.00  0.00    +0.000 NA
ATOM     31  C   UNL     1      -4.191  12.553  20.046  0.00  0.00    +0.000 A 
ENDBRANCH  25  26
ENDBRANCH  18  21
ENDBRANCH   4  17
TORSDOF 4
ENDMDL
MODEL 3
REMARK VINA RESULT:      -8.4      1.783      3.223
REMARK  Name = 
REMARK  5 active torsions:
REMARK  status: ('A' for Active; 'I' for Inactive)
REMARK    1  A    between atoms: C_1  and  N_2
REMARK    2  A    between atoms: C_3  and  C_4
REMARK    3  A    between atoms: C_7  and  N_8
REMARK    4  A    between atoms: C_9  and  C_11
REMARK    5  A    between atoms: C_15  and  C_16
REMARK                            x       y       z     vdW  Elec       q    Type
REMARK                         _______ _______ _______ _____ _____    ______ ____
ROOT
ATOM      1  C   UNL     1       1.096   9.342  19.943  0.00  0.00    +0.000 A 
ATOM      2  C   UNL     1       1.673   9.190  18.681  0.00  0.00    +0.000 A 
ATOM      3  C   UNL     1       2.262   7.986  18.295  0.00  0.00    +0.000 A 
ATOM      4  C   UNL     1       2.347   6.906  19.172  0.00  0.00    +0.000 A 
ATOM      5  C   UNL     1       1.852   7.074  20.471  0.00  0.00    +0.000 A 
ATOM      6  C   UNL     1       1.227   8.280  20.849  0.00  0.00    +0.000 A 
ENDROOT
BRANCH   1   9
ATOM      7  C   UNL     1      -1.598  10.521  18.765  0.00  0.00    +0.000 C 
ATOM      8  N   UNL     1      -0.731  11.113  19.757  0.00  0.00    +0.000 N 
ATOM      9  C   UNL     1       0.423  10.594  20.325  0.00  0.00    +0.000 A 
ATOM     10  N   UNL     1       0.855  11.409  21.276  0.00  0.00    +0.000 NA
ATOM     11  C   UNL     1       0.040  12.513  21.243  0.00  0.00    +0.000 A 
ATOM     12  C   UNL     1       0.102  13.700  21.987  0.00  0.00    +0.000 A 
ATOM     13  C   UNL     1      -0.849  14.702  21.747  0.00  0.00    +0.000 A 
ATOM     14  C   UNL     1      -1.850  14.521  20.791  0.00  0.00    +0.000 A 
ATOM     15  C   UNL     1      -1.931  13.341  20.044  0.00  0.00    +0.000 A 
ATOM     16  C   UNL     1      -0.962  12.360  20.297  0.00  0.00    +0.000 A 
ENDBRANCH   1   9
BRANCH   4  17
ATOM     17  N   UNL     1       2.935   5.669  18.809  0.00  0.00    +0.000 N 
ATOM     18  C   UNL     1       4.200   5.236  19.186  0.00  0.00    +0.000 C 
ATOM     19  O   UNL     1       5.036   5.899  19.788  0.00  0.00    +0.000 OA
ATOM     20  H   UNL     1       2.369   5.056  18.237  0.00  0.00    +0.000 HD
BRANCH  18  21
ATOM     21  C   UNL     1       4.528   3.824  18.749  0.00  0.00    +0.000 C 
ATOM     22  C   UNL     1       3.678   2.793  19.458  0.00  0.00    +0.000 C 
ATOM     23  C   UNL     1       3.719   1.633  18.488  0.00  0.00    +0.000 C 
ATOM     24  O   UNL     1       3.812   2.188  17.172  0.00  0.00    +0.000 OA
ATOM     25  C   UNL     1       4.109   3.596  17.291  0.00  0.00    +0.000 C 
BRANCH  25  26
ATOM     26  C   UNL     1       5.188   4.018  16.328  0.00  0.00    +0.000 A 
ATOM     27  C   UNL     1       5.018   3.979  14.942  0.00  0.00    +0.000 A 
ATOM     28  C   UNL     1       6.077   4.319  14.106  0.00  0.00    +0.000 A 
ATOM     29  C   UNL     1       7.280   4.684  14.685  0.00  0.00    +0.000 A 
ATOM     30  N   UNL     1       7.484   4.738  16.017  0.00  0.00    +0.000 NA
ATOM     31  C   UNL     1       6.436   4.410  16.806  0.00  0.00    +0.000 A 
ENDBRANCH  25  26
ENDBRANCH  18  21
ENDBRANCH   4  17
TORSDOF 4
ENDMDL
MODEL 4
REMARK VINA RESULT:      -8.3      1.760      2.595
REMARK  Name = 
REMARK  5 active torsions:
REMARK  status: ('A' for Active; 'I' for Inactive)
REMARK    1  A    between atoms: C_1  and  N_2
REMARK    2  A    between atoms: C_3  and  C_4
REMARK    3  A    between atoms: C_7  and  N_8
REMARK    4  A    between atoms: C_9  and  C_11
REMARK    5  A    between atoms: C_15  and  C_16
REMARK                            x       y       z     vdW  Elec       q    Type
REMARK                         _______ _______ _______ _____ _____    ______ ____
ROOT
ATOM      1  C   UNL     1      -0.159  10.830  21.507  0.00  0.00    +0.000 A 
ATOM      2  C   UNL     1       0.499   9.837  22.234  0.00  0.00    +0.000 A 
ATOM      3  C   UNL     1       1.239   8.842  21.597  0.00  0.00    +0.000 A 
ATOM      4  C   UNL     1       1.306   8.766  20.207  0.00  0.00    +0.000 A 
ATOM      5  C   UNL     1       0.579   9.703  19.462  0.00  0.00    +0.000 A 
ATOM      6  C   UNL     1      -0.142  10.728  20.108  0.00  0.00    +0.000 A 
ENDROOT
BRANCH   1   9
ATOM      7  C   UNL     1       0.672  13.878  21.722  0.00  0.00    +0.000 C 
ATOM      8  N   UNL     1      -0.478  13.230  22.309  0.00  0.00    +0.000 N 
ATOM      9  C   UNL     1      -0.890  11.912  22.186  0.00  0.00    +0.000 A 
ATOM     10  N   UNL     1      -2.058  11.754  22.791  0.00  0.00    +0.000 NA
ATOM     11  C   UNL     1      -2.344  12.948  23.404  0.00  0.00    +0.000 A 
ATOM     12  C   UNL     1      -3.420  13.300  24.232  0.00  0.00    +0.000 A 
ATOM     13  C   UNL     1      -3.473  14.598  24.759  0.00  0.00    +0.000 A 
ATOM     14  C   UNL     1      -2.481  15.532  24.459  0.00  0.00    +0.000 A 
ATOM     15  C   UNL     1      -1.405  15.201  23.630  0.00  0.00    +0.000 A 
ATOM     16  C   UNL     1      -1.369  13.894  23.124  0.00  0.00    +0.000 A 
ENDBRANCH   1   9
BRANCH   4  17
ATOM     17  N   UNL     1       2.054   7.771  19.529  0.00  0.00    +0.000 N 
ATOM     18  C   UNL     1       2.559   7.882  18.239  0.00  0.00    +0.000 C 
ATOM     19  O   UNL     1       2.340   8.800  17.459  0.00  0.00    +0.000 OA
ATOM     20  H   UNL     1       2.237   6.921  20.044  0.00  0.00    +0.000 HD
BRANCH  18  21
ATOM     21  C   UNL     1       3.417   6.712  17.808  0.00  0.00    +0.000 C 
ATOM     22  C   UNL     1       4.832   7.130  17.477  0.00  0.00    +0.000 C 
ATOM     23  C   UNL     1       5.596   5.840  17.683  0.00  0.00    +0.000 C 
ATOM     24  O   UNL     1       4.933   5.121  18.729  0.00  0.00    +0.000 OA
ATOM     25  C   UNL     1       3.660   5.755  18.982  0.00  0.00    +0.000 C 
BRANCH  25  26
ATOM     26  C   UNL     1       2.554   4.742  19.115  0.00  0.00    +0.000 A 
ATOM     27  C   UNL     1       2.029   4.359  20.352  0.00  0.00    +0.000 A 
ATOM     28  C   UNL     1       1.053   3.368  20.412  0.00  0.00    +0.000 A 
ATOM     29  C   UNL     1       0.634   2.787  19.227  0.00  0.00    +0.000 A 
ATOM     30  N   UNL     1       1.113   3.130  18.014  0.00  0.00    +0.000 NA
ATOM     31  C   UNL     1       2.054   4.100  17.985  0.00  0.00    +0.000 A 
ENDBRANCH  25  26
ENDBRANCH  18  21
ENDBRANCH   4  17
TORSDOF 4
ENDMDL
MODEL 5
REMARK VINA RESULT:      -8.3      1.954      3.032
REMARK  Name = 
REMARK  5 active torsions:
REMARK  status: ('A' for Active; 'I' for Inactive)
REMARK    1  A    between atoms: C_1  and  N_2
REMARK    2  A    between atoms: C_3  and  C_4
REMARK    3  A    between atoms: C_7  and  N_8
REMARK    4  A    between atoms: C_9  and  C_11
REMARK    5  A    between atoms: C_15  and  C_16
REMARK                            x       y       z     vdW  Elec       q    Type
REMARK                         _______ _______ _______ _____ _____    ______ ____
ROOT
ATOM      1  C   UNL     1       0.477  10.263  21.054  0.00  0.00    +0.000 A 
ATOM      2  C   UNL     1       0.759  10.230  19.687  0.00  0.00    +0.000 A 
ATOM      3  C   UNL     1       1.381   9.127  19.102  0.00  0.00    +0.000 A 
ATOM      4  C   UNL     1       1.796   8.039  19.868  0.00  0.00    +0.000 A 
ATOM      5  C   UNL     1       1.600   8.097  21.253  0.00  0.00    +0.000 A 
ATOM      6  C   UNL     1       0.942   9.197  21.838  0.00  0.00    +0.000 A 
ENDROOT
BRANCH   1   9
ATOM      7  C   UNL     1       1.331  13.312  21.003  0.00  0.00    +0.000 C 
ATOM      8  N   UNL     1       0.189  12.724  21.663  0.00  0.00    +0.000 N 
ATOM      9  C   UNL     1      -0.233  11.403  21.656  0.00  0.00    +0.000 A 
ATOM     10  N   UNL     1      -1.389  11.304  22.295  0.00  0.00    +0.000 NA
ATOM     11  C   UNL     1      -1.656  12.546  22.814  0.00  0.00    +0.000 A 
ATOM     12  C   UNL     1      -2.712  12.973  23.633  0.00  0.00    +0.000 A 
ATOM     13  C   UNL     1      -2.747  14.309  24.054  0.00  0.00    +0.000 A 
ATOM     14  C   UNL     1      -1.755  15.208  23.659  0.00  0.00    +0.000 A 
ATOM     15  C   UNL     1      -0.698  14.802  22.838  0.00  0.00    +0.000 A 
ATOM     16  C   UNL     1      -0.681  13.459  22.439  0.00  0.00    +0.000 A 
ENDBRANCH   1   9
BRANCH   4  17
ATOM     17  N   UNL     1       2.426   6.902  19.303  0.00  0.00    +0.000 N 
ATOM     18  C   UNL     1       2.395   5.618  19.833  0.00  0.00    +0.000 C 
ATOM     19  O   UNL     1       1.920   5.299  20.916  0.00  0.00    +0.000 OA
ATOM     20  H   UNL     1       2.926   7.051  18.437  0.00  0.00    +0.000 HD
BRANCH  18  21
ATOM     21  C   UNL     1       3.058   4.572  18.963  0.00  0.00    +0.000 C 
ATOM     22  C   UNL     1       2.052   3.720  18.223  0.00  0.00    +0.000 C 
ATOM     23  C   UNL     1       2.862   3.232  17.041  0.00  0.00    +0.000 C 
ATOM     24  O   UNL     1       3.798   4.267  16.718  0.00  0.00    +0.000 OA
ATOM     25  C   UNL     1       3.801   5.231  17.793  0.00  0.00    +0.000 C 
BRANCH  25  26
ATOM     26  C   UNL     1       5.202   5.631  18.175  0.00  0.00    +0.000 A 
ATOM     27  C   UNL     1       5.986   6.474  17.385  0.00  0.00    +0.000 A 
ATOM     28  C   UNL     1       7.297   6.752  17.761  0.00  0.00    +0.000 A 
ATOM     29  C   UNL     1       7.785   6.171  18.918  0.00  0.00    +0.000 A 
ATOM     30  N   UNL     1       7.060   5.356  19.710  0.00  0.00    +0.000 NA
ATOM     31  C   UNL     1       5.788   5.109  19.326  0.00  0.00    +0.000 A 
ENDBRANCH  25  26
ENDBRANCH  18  21
ENDBRANCH   4  17
TORSDOF 4
ENDMDL
MODEL 6
REMARK VINA RESULT:      -8.3      0.777      1.381
REMARK  Name = 
REMARK  5 active torsions:
REMARK  status: ('A' for Active; 'I' for Inactive)
REMARK    1  A    between atoms: C_1  and  N_2
REMARK    2  A    between atoms: C_3  and  C_4
REMARK    3  A    between atoms: C_7  and  N_8
REMARK    4  A    between atoms: C_9  and  C_11
REMARK    5  A    between atoms: C_15  and  C_16
REMARK                            x       y       z     vdW  Elec       q    Type
REMARK                         _______ _______ _______ _____ _____    ______ ____
ROOT
ATOM      1  C   UNL     1       0.877   9.605  19.837  0.00  0.00    +0.000 A 
ATOM      2  C   UNL     1       1.146   9.821  18.485  0.00  0.00    +0.000 A 
ATOM      3  C   UNL     1       1.822   8.872  17.719  0.00  0.00    +0.000 A 
ATOM      4  C   UNL     1       2.306   7.694  18.287  0.00  0.00    +0.000 A 
ATOM      5  C   UNL     1       2.122   7.503  19.662  0.00  0.00    +0.000 A 
ATOM      6  C   UNL     1       1.409   8.449  20.427  0.00  0.00    +0.000 A 
ENDROOT
BRANCH   1   9
ATOM      7  C   UNL     1      -0.290   9.234  22.758  0.00  0.00    +0.000 C 
ATOM      8  N   UNL     1      -0.433  10.377  21.885  0.00  0.00    +0.000 N 
ATOM      9  C   UNL     1       0.111  10.582  20.627  0.00  0.00    +0.000 A 
ATOM     10  N   UNL     1      -0.172  11.810  20.216  0.00  0.00    +0.000 NA
ATOM     11  C   UNL     1      -0.999  12.357  21.165  0.00  0.00    +0.000 A 
ATOM     12  C   UNL     1      -1.644  13.602  21.188  0.00  0.00    +0.000 A 
ATOM     13  C   UNL     1      -2.466  13.921  22.278  0.00  0.00    +0.000 A 
ATOM     14  C   UNL     1      -2.634  13.022  23.332  0.00  0.00    +0.000 A 
ATOM     15  C   UNL     1      -1.993  11.779  23.330  0.00  0.00    +0.000 A 
ATOM     16  C   UNL     1      -1.185  11.481  22.224  0.00  0.00    +0.000 A 
ENDBRANCH   1   9
BRANCH   4  17
ATOM     17  N   UNL     1       2.992   6.708  17.535  0.00  0.00    +0.000 N 
ATOM     18  C   UNL     1       4.351   6.719  17.243  0.00  0.00    +0.000 C 
ATOM     19  O   UNL     1       5.132   7.630  17.490  0.00  0.00    +0.000 OA
ATOM     20  H   UNL     1       2.436   5.933  17.201  0.00  0.00    +0.000 HD
BRANCH  18  21
ATOM     21  C   UNL     1       4.838   5.481  16.520  0.00  0.00    +0.000 C 
ATOM     22  C   UNL     1       6.039   5.764  15.645  0.00  0.00    +0.000 C 
ATOM     23  C   UNL     1       6.684   4.399  15.546  0.00  0.00    +0.000 C 
ATOM     24  O   UNL     1       6.422   3.721  16.780  0.00  0.00    +0.000 OA
ATOM     25  C   UNL     1       5.430   4.472  17.512  0.00  0.00    +0.000 C 
BRANCH  25  26
ATOM     26  C   UNL     1       4.370   3.571  18.091  0.00  0.00    +0.000 A 
ATOM     27  C   UNL     1       3.302   3.084  17.336  0.00  0.00    +0.000 A 
ATOM     28  C   UNL     1       2.319   2.310  17.946  0.00  0.00    +0.000 A 
ATOM     29  C   UNL     1       2.435   2.052  19.301  0.00  0.00    +0.000 A 
ATOM     30  N   UNL     1       3.452   2.500  20.065  0.00  0.00    +0.000 NA
ATOM     31  C   UNL     1       4.396   3.242  19.444  0.00  0.00    +0.000 A 
ENDBRANCH  25  26
ENDBRANCH  18  21
ENDBRANCH   4  17
TORSDOF 4
ENDMDL
MODEL 7
REMARK VINA RESULT:      -8.3      0.555      1.632
REMARK  Name = 
REMARK  5 active torsions:
REMARK  status: ('A' for Active; 'I' for Inactive)
REMARK    1  A    between atoms: C_1  and  N_2
REMARK    2  A    between atoms: C_3  and  C_4
REMARK    3  A    between atoms: C_7  and  N_8
REMARK    4  A    between atoms: C_9  and  C_11
REMARK    5  A    between atoms: C_15  and  C_16
REMARK                            x       y       z     vdW  Elec       q    Type
REMARK                         _______ _______ _______ _____ _____    ______ ____
ROOT
ATOM      1  C   UNL     1       1.159   9.737  20.004  0.00  0.00    +0.000 A 
ATOM      2  C   UNL     1       1.534   8.516  20.566  0.00  0.00    +0.000 A 
ATOM      3  C   UNL     1       2.128   7.516  19.796  0.00  0.00    +0.000 A 
ATOM      4  C   UNL     1       2.320   7.675  18.424  0.00  0.00    +0.000 A 
ATOM      5  C   UNL     1       1.868   8.860  17.831  0.00  0.00    +0.000 A 
ATOM      6  C   UNL     1       1.298   9.883  18.616  0.00  0.00    +0.000 A 
ENDROOT
BRANCH   1   9
ATOM      7  C   UNL     1      -0.660   9.428  22.578  0.00  0.00    +0.000 C 
ATOM      8  N   UNL     1      -0.249  10.650  21.926  0.00  0.00    +0.000 N 
ATOM      9  C   UNL     1       0.587  10.812  20.832  0.00  0.00    +0.000 A 
ATOM     10  N   UNL     1       0.797  12.103  20.621  0.00  0.00    +0.000 NA
ATOM     11  C   UNL     1       0.001  12.777  21.512  0.00  0.00    +0.000 A 
ATOM     12  C   UNL     1      -0.211  14.155  21.667  0.00  0.00    +0.000 A 
ATOM     13  C   UNL     1      -1.105  14.598  22.652  0.00  0.00    +0.000 A 
ATOM     14  C   UNL     1      -1.767  13.687  23.477  0.00  0.00    +0.000 A 
ATOM     15  C   UNL     1      -1.562  12.310  23.342  0.00  0.00    +0.000 A 
ATOM     16  C   UNL     1      -0.672  11.893  22.343  0.00  0.00    +0.000 A 
ENDBRANCH   1   9
BRANCH   4  17
ATOM     17  N   UNL     1       2.924   6.681  17.615  0.00  0.00    +0.000 N 
ATOM     18  C   UNL     1       4.262   6.651  17.240  0.00  0.00    +0.000 C 
ATOM     19  O   UNL     1       5.088   7.530  17.455  0.00  0.00    +0.000 OA
ATOM     20  H   UNL     1       2.322   5.932  17.303  0.00  0.00    +0.000 HD
BRANCH  18  21
ATOM     21  C   UNL     1       4.661   5.413  16.468  0.00  0.00    +0.000 C 
ATOM     22  C   UNL     1       5.809   5.674  15.518  0.00  0.00    +0.000 C 
ATOM     23  C   UNL     1       6.403   4.292  15.355  0.00  0.00    +0.000 C 
ATOM     24  O   UNL     1       6.203   3.601  16.593  0.00  0.00    +0.000 OA
ATOM     25  C   UNL     1       5.286   4.368  17.402  0.00  0.00    +0.000 C 
BRANCH  25  26
ATOM     26  C   UNL     1       4.240   3.490  18.037  0.00  0.00    +0.000 A 
ATOM     27  C   UNL     1       3.098   3.066  17.354  0.00  0.00    +0.000 A 
ATOM     28  C   UNL     1       2.136   2.310  18.019  0.00  0.00    +0.000 A 
ATOM     29  C   UNL     1       2.346   2.007  19.353  0.00  0.00    +0.000 A 
ATOM     30  N   UNL     1       3.435   2.395  20.047  0.00  0.00    +0.000 NA
ATOM     31  C   UNL     1       4.357   3.120  19.375  0.00  0.00    +0.000 A 
ENDBRANCH  25  26
ENDBRANCH  18  21
ENDBRANCH   4  17
TORSDOF 4
ENDMDL
MODEL 8
REMARK VINA RESULT:      -8.3      2.080      3.441
REMARK  Name = 
REMARK  5 active torsions:
REMARK  status: ('A' for Active; 'I' for Inactive)
REMARK    1  A    between atoms: C_1  and  N_2
REMARK    2  A    between atoms: C_3  and  C_4
REMARK    3  A    between atoms: C_7  and  N_8
REMARK    4  A    between atoms: C_9  and  C_11
REMARK    5  A    between atoms: C_15  and  C_16
REMARK                            x       y       z     vdW  Elec       q    Type
REMARK                         _______ _______ _______ _____ _____    ______ ____
ROOT
ATOM      1  C   UNL     1       1.101  10.113  19.428  0.00  0.00    +0.000 A 
ATOM      2  C   UNL     1       1.001   9.302  20.559  0.00  0.00    +0.000 A 
ATOM      3  C   UNL     1       1.552   8.021  20.584  0.00  0.00    +0.000 A 
ATOM      4  C   UNL     1       2.177   7.479  19.462  0.00  0.00    +0.000 A 
ATOM      5  C   UNL     1       2.207   8.247  18.291  0.00  0.00    +0.000 A 
ATOM      6  C   UNL     1       1.678   9.554  18.278  0.00  0.00    +0.000 A 
ENDROOT
BRANCH   1   9
ATOM      7  C   UNL     1       2.450  12.702  18.200  0.00  0.00    +0.000 C 
ATOM      8  N   UNL     1       1.204  12.612  18.926  0.00  0.00    +0.000 N 
ATOM      9  C   UNL     1       0.570  11.486  19.426  0.00  0.00    +0.000 A 
ATOM     10  N   UNL     1      -0.608  11.826  19.928  0.00  0.00    +0.000 NA
ATOM     11  C   UNL     1      -0.683  13.194  19.853  0.00  0.00    +0.000 A 
ATOM     12  C   UNL     1      -1.681  14.068  20.307  0.00  0.00    +0.000 A 
ATOM     13  C   UNL     1      -1.508  15.448  20.128  0.00  0.00    +0.000 A 
ATOM     14  C   UNL     1      -0.368  15.949  19.498  0.00  0.00    +0.000 A 
ATOM     15  C   UNL     1       0.634  15.092  19.032  0.00  0.00    +0.000 A 
ATOM     16  C   UNL     1       0.442  13.718  19.233  0.00  0.00    +0.000 A 
ENDBRANCH   1   9
BRANCH   4  17
ATOM     17  N   UNL     1       2.752   6.184  19.456  0.00  0.00    +0.000 N 
ATOM     18  C   UNL     1       2.406   5.153  18.592  0.00  0.00    +0.000 C 
ATOM     19  O   UNL     1       1.483   5.170  17.786  0.00  0.00    +0.000 OA
ATOM     20  H   UNL     1       3.481   6.015  20.136  0.00  0.00    +0.000 HD
BRANCH  18  21
ATOM     21  C   UNL     1       3.261   3.912  18.734  0.00  0.00    +0.000 C 
ATOM     22  C   UNL     1       2.486   2.743  19.300  0.00  0.00    +0.000 C 
ATOM     23  C   UNL     1       3.283   1.562  18.792  0.00  0.00    +0.000 C 
ATOM     24  O   UNL     1       3.833   1.940  17.525  0.00  0.00    +0.000 OA
ATOM     25  C   UNL     1       3.654   3.363  17.356  0.00  0.00    +0.000 C 
BRANCH  25  26
ATOM     26  C   UNL     1       4.904   4.020  16.830  0.00  0.00    +0.000 A 
ATOM     27  C   UNL     1       5.161   4.163  15.465  0.00  0.00    +0.000 A 
ATOM     28  C   UNL     1       6.365   4.720  15.043  0.00  0.00    +0.000 A 
ATOM     29  C   UNL     1       7.279   5.112  16.004  0.00  0.00    +0.000 A 
ATOM     30  N   UNL     1       7.068   4.994  17.331  0.00  0.00    +0.000 NA
ATOM     31  C   UNL     1       5.888   4.458  17.713  0.00  0.00    +0.000 A 
ENDBRANCH  25  26
ENDBRANCH  18  21
ENDBRANCH   4  17
TORSDOF 4
ENDMDL
MODEL 9
REMARK VINA RESULT:      -8.2      1.948      3.261
REMARK  Name = 
REMARK  5 active torsions:
REMARK  status: ('A' for Active; 'I' for Inactive)
REMARK    1  A    between atoms: C_1  and  N_2
REMARK    2  A    between atoms: C_3  and  C_4
REMARK    3  A    between atoms: C_7  and  N_8
REMARK    4  A    between atoms: C_9  and  C_11
REMARK    5  A    between atoms: C_15  and  C_16
REMARK                            x       y       z     vdW  Elec       q    Type
REMARK                         _______ _______ _______ _____ _____    ______ ____
ROOT
ATOM      1  C   UNL     1       0.696   9.861  19.943  0.00  0.00    +0.000 A 
ATOM      2  C   UNL     1       1.294   9.531  18.726  0.00  0.00    +0.000 A 
ATOM      3  C   UNL     1       1.997   8.337  18.565  0.00  0.00    +0.000 A 
ATOM      4  C   UNL     1       2.177   7.453  19.626  0.00  0.00    +0.000 A 
ATOM      5  C   UNL     1       1.659   7.812  20.877  0.00  0.00    +0.000 A 
ATOM      6  C   UNL     1       0.920   9.004  21.030  0.00  0.00    +0.000 A 
ENDROOT
BRANCH   1   9
ATOM      7  C   UNL     1       1.771  12.787  20.499  0.00  0.00    +0.000 C 
ATOM      8  N   UNL     1       0.397  12.355  20.386  0.00  0.00    +0.000 N 
ATOM      9  C   UNL     1      -0.096  11.093  20.092  0.00  0.00    +0.000 A 
ATOM     10  N   UNL     1      -1.414  11.148  19.973  0.00  0.00    +0.000 NA
ATOM     11  C   UNL     1      -1.782  12.428  20.305  0.00  0.00    +0.000 A 
ATOM     12  C   UNL     1      -3.059  12.999  20.411  0.00  0.00    +0.000 A 
ATOM     13  C   UNL     1      -3.171  14.343  20.794  0.00  0.00    +0.000 A 
ATOM     14  C   UNL     1      -2.033  15.108  21.056  0.00  0.00    +0.000 A 
ATOM     15  C   UNL     1      -0.753  14.557  20.948  0.00  0.00    +0.000 A 
ATOM     16  C   UNL     1      -0.668  13.210  20.574  0.00  0.00    +0.000 A 
ENDBRANCH   1   9
BRANCH   4  17
ATOM     17  N   UNL     1       2.881   6.230  19.494  0.00  0.00    +0.000 N 
ATOM     18  C   UNL     1       2.312   4.963  19.542  0.00  0.00    +0.000 C 
ATOM     19  O   UNL     1       1.146   4.710  19.817  0.00  0.00    +0.000 OA
ATOM     20  H   UNL     1       3.878   6.302  19.339  0.00  0.00    +0.000 HD
BRANCH  18  21
ATOM     21  C   UNL     1       3.283   3.837  19.257  0.00  0.00    +0.000 C 
ATOM     22  C   UNL     1       2.621   2.479  19.324  0.00  0.00    +0.000 C 
ATOM     23  C   UNL     1       3.532   1.642  18.453  0.00  0.00    +0.000 C 
ATOM     24  O   UNL     1       4.051   2.506  17.436  0.00  0.00    +0.000 OA
ATOM     25  C   UNL     1       3.736   3.870  17.791  0.00  0.00    +0.000 C 
BRANCH  25  26
ATOM     26  C   UNL     1       4.920   4.781  17.594  0.00  0.00    +0.000 A 
ATOM     27  C   UNL     1       6.025   4.775  18.447  0.00  0.00    +0.000 A 
ATOM     28  C   UNL     1       7.057   5.688  18.249  0.00  0.00    +0.000 A 
ATOM     29  C   UNL     1       6.946   6.585  17.201  0.00  0.00    +0.000 A 
ATOM     30  N   UNL     1       5.899   6.621  16.353  0.00  0.00    +0.000 NA
ATOM     31  C   UNL     1       4.915   5.718  16.563  0.00  0.00    +0.000 A 
ENDBRANCH  25  26
ENDBRANCH  18  21
ENDBRANCH   4  17
TORSDOF 4
ENDMDL
