MODEL 1
REMARK VINA RESULT:      -9.3      0.000      0.000
REMARK  Name = 
REMARK  7 active torsions:
REMARK  status: ('A' for Active; 'I' for Inactive)
REMARK    1  A    between atoms: C_1  and  N_2
REMARK    2  A    between atoms: C_6  and  C_7
REMARK    3  A    between atoms: C_7  and  N_8
REMARK    4  A    between atoms: C_7  and  C_23
REMARK    5  A    between atoms: N_8  and  S_9
REMARK    6  A    between atoms: S_9  and  C_12
REMARK    7  A    between atoms: N_21  and  C_22
REMARK                            x       y       z     vdW  Elec       q    Type
REMARK                         _______ _______ _______ _____ _____    ______ ____
ROOT
ATOM      1  N   UNL     1       4.336   5.992  19.492  0.00  0.00    +0.000 NA
ATOM      2  H   UNL     1       4.162   6.091  20.494  0.00  0.00    +0.000 HD
ENDROOT
BRANCH   1   3
ATOM      3  S   UNL     1       5.554   4.837  19.316  0.00  0.00    +0.000 S 
ATOM      4  O   UNL     1       6.767   5.473  19.785  0.00  0.00    +0.000 OA
ATOM      5  O   UNL     1       5.147   3.540  19.795  0.00  0.00    +0.000 OA
BRANCH   3   6
ATOM      6  C   UNL     1       5.741   4.679  17.560  0.00  0.00    +0.000 A 
ATOM      7  C   UNL     1       4.913   3.753  16.883  0.00  0.00    +0.000 A 
ATOM      8  C   UNL     1       5.068   3.526  15.518  0.00  0.00    +0.000 A 
ATOM      9  C   UNL     1       6.070   4.230  14.893  0.00  0.00    +0.000 A 
ATOM     10  C   UNL     1       6.892   5.124  15.555  0.00  0.00    +0.000 A 
ATOM     11  C   UNL     1       6.760   5.373  16.903  0.00  0.00    +0.000 A 
ATOM     12  O   UNL     1       7.840   5.689  14.717  0.00  0.00    +0.000 OA
ATOM     13  C   UNL     1       7.554   5.089  13.480  0.00  0.00    +0.000 A 
ATOM     14  O   UNL     1       8.186   5.333  12.461  0.00  0.00    +0.000 OA
ATOM     15  N   UNL     1       6.491   4.218  13.589  0.00  0.00    +0.000 N 
ATOM     16  C   UNL     1       5.921   3.411  12.548  0.00  0.00    +0.000 C 
ENDBRANCH   3   6
ENDBRANCH   1   3
BRANCH   1  17
ATOM     17  C   UNL     1       3.079   5.917  18.717  0.00  0.00    +0.000 C 
BRANCH  17  23
ATOM     18  C   UNL     1       1.532   7.597  20.971  0.00  0.00    +0.000 C 
ATOM     19  N   UNL     1       1.915   8.035  19.652  0.00  0.00    +0.000 N 
ATOM     20  C   UNL     1       1.750   9.316  19.191  0.00  0.00    +0.000 A 
ATOM     21  C   UNL     1       2.006   9.250  17.846  0.00  0.00    +0.000 A 
ATOM     22  N   UNL     1       2.306   7.968  17.486  0.00  0.00    +0.000 NA
ATOM     23  C   UNL     1       2.445   7.292  18.616  0.00  0.00    +0.000 A 
ENDBRANCH  17  23
BRANCH  17  24
ATOM     24  C   UNL     1       2.185   4.755  19.125  0.00  0.00    +0.000 A 
ATOM     25  C   UNL     1       1.978   4.490  20.494  0.00  0.00    +0.000 A 
ATOM     26  C   UNL     1       1.245   3.375  20.906  0.00  0.00    +0.000 A 
ATOM     27  C   UNL     1       0.688   2.519  19.960  0.00  0.00    +0.000 A 
ATOM     28  C   UNL     1       0.832   2.797  18.604  0.00  0.00    +0.000 A 
ATOM     29  C   UNL     1       1.564   3.914  18.188  0.00  0.00    +0.000 A 
ENDBRANCH  17  24
ENDBRANCH   1  17
TORSDOF 5
ENDMDL
MODEL 2
REMARK VINA RESULT:      -8.9      0.572      1.188
REMARK  Name = 
REMARK  7 active torsions:
REMARK  status: ('A' for Active; 'I' for Inactive)
REMARK    1  A    between atoms: C_1  and  N_2
REMARK    2  A    between atoms: C_6  and  C_7
REMARK    3  A    between atoms: C_7  and  N_8
REMARK    4  A    between atoms: C_7  and  C_23
REMARK    5  A    between atoms: N_8  and  S_9
REMARK    6  A    between atoms: S_9  and  C_12
REMARK    7  A    between atoms: N_21  and  C_22
REMARK                            x       y       z     vdW  Elec       q    Type
REMARK                         _______ _______ _______ _____ _____    ______ ____
ROOT
ATOM      1  N   UNL     1       4.513   5.685  19.717  0.00  0.00    +0.000 NA
ATOM      2  H   UNL     1       4.336   5.686  20.724  0.00  0.00    +0.000 HD
ENDROOT
BRANCH   1   3
ATOM      3  S   UNL     1       5.731   4.553  19.431  0.00  0.00    +0.000 S 
ATOM      4  O   UNL     1       6.955   5.171  19.895  0.00  0.00    +0.000 OA
ATOM      5  O   UNL     1       5.349   3.227  19.846  0.00  0.00    +0.000 OA
BRANCH   3   6
ATOM      6  C   UNL     1       5.857   4.501  17.664  0.00  0.00    +0.000 A 
ATOM      7  C   UNL     1       5.015   3.607  16.962  0.00  0.00    +0.000 A 
ATOM      8  C   UNL     1       5.123   3.463  15.582  0.00  0.00    +0.000 A 
ATOM      9  C   UNL     1       6.097   4.214  14.965  0.00  0.00    +0.000 A 
ATOM     10  C   UNL     1       6.933   5.077  15.650  0.00  0.00    +0.000 A 
ATOM     11  C   UNL     1       6.846   5.244  17.014  0.00  0.00    +0.000 A 
ATOM     12  O   UNL     1       7.846   5.701  14.815  0.00  0.00    +0.000 OA
ATOM     13  C   UNL     1       7.522   5.171  13.555  0.00  0.00    +0.000 A 
ATOM     14  O   UNL     1       8.115   5.483  12.531  0.00  0.00    +0.000 OA
ATOM     15  N   UNL     1       6.471   4.284  13.649  0.00  0.00    +0.000 N 
ATOM     16  C   UNL     1       5.873   3.533  12.582  0.00  0.00    +0.000 C 
ENDBRANCH   3   6
ENDBRANCH   1   3
BRANCH   1  17
ATOM     17  C   UNL     1       3.257   5.687  18.937  0.00  0.00    +0.000 C 
BRANCH  17  23
ATOM     18  C   UNL     1       4.038   7.909  16.758  0.00  0.00    +0.000 C 
ATOM     19  N   UNL     1       2.994   7.976  17.751  0.00  0.00    +0.000 N 
ATOM     20  C   UNL     1       2.089   9.002  17.844  0.00  0.00    +0.000 A 
ATOM     21  C   UNL     1       1.448   8.807  19.041  0.00  0.00    +0.000 A 
ATOM     22  N   UNL     1       1.950   7.705  19.671  0.00  0.00    +0.000 NA
ATOM     23  C   UNL     1       2.735   7.104  18.790  0.00  0.00    +0.000 A 
ENDBRANCH  17  23
BRANCH  17  24
ATOM     24  C   UNL     1       2.270   4.613  19.375  0.00  0.00    +0.000 A 
ATOM     25  C   UNL     1       2.133   4.320  20.746  0.00  0.00    +0.000 A 
ATOM     26  C   UNL     1       1.312   3.275  21.178  0.00  0.00    +0.000 A 
ATOM     27  C   UNL     1       0.599   2.521  20.249  0.00  0.00    +0.000 A 
ATOM     28  C   UNL     1       0.677   2.834  18.895  0.00  0.00    +0.000 A 
ATOM     29  C   UNL     1       1.496   3.881  18.461  0.00  0.00    +0.000 A 
ENDBRANCH  17  24
ENDBRANCH   1  17
TORSDOF 5
ENDMDL
MODEL 3
REMARK VINA RESULT:      -8.7      1.458      3.871
REMARK  Name = 
REMARK  7 active torsions:
REMARK  status: ('A' for Active; 'I' for Inactive)
REMARK    1  A    between atoms: C_1  and  N_2
REMARK    2  A    between atoms: C_6  and  C_7
REMARK    3  A    between atoms: C_7  and  N_8
REMARK    4  A    between atoms: C_7  and  C_23
REMARK    5  A    between atoms: N_8  and  S_9
REMARK    6  A    between atoms: S_9  and  C_12
REMARK    7  A    between atoms: N_21  and  C_22
REMARK                            x       y       z     vdW  Elec       q    Type
REMARK                         _______ _______ _______ _____ _____    ______ ____
ROOT
ATOM      1  N   UNL     1       3.913   5.598  18.792  0.00  0.00    +0.000 NA
ATOM      2  H   UNL     1       4.155   6.463  18.304  0.00  0.00    +0.000 HD
ENDROOT
BRANCH   1   3
ATOM      3  S   UNL     1       5.335   4.702  18.943  0.00  0.00    +0.000 S 
ATOM      4  O   UNL     1       6.227   5.518  19.738  0.00  0.00    +0.000 OA
ATOM      5  O   UNL     1       5.076   3.323  19.271  0.00  0.00    +0.000 OA
BRANCH   3   6
ATOM      6  C   UNL     1       6.013   4.701  17.305  0.00  0.00    +0.000 A 
ATOM      7  C   UNL     1       7.024   5.643  17.002  0.00  0.00    +0.000 A 
ATOM      8  C   UNL     1       7.538   5.744  15.713  0.00  0.00    +0.000 A 
ATOM      9  C   UNL     1       6.994   4.902  14.772  0.00  0.00    +0.000 A 
ATOM     10  C   UNL     1       5.995   3.990  15.060  0.00  0.00    +0.000 A 
ATOM     11  C   UNL     1       5.470   3.864  16.327  0.00  0.00    +0.000 A 
ATOM     12  O   UNL     1       5.595   3.274  13.944  0.00  0.00    +0.000 OA
ATOM     13  C   UNL     1       6.417   3.797  12.932  0.00  0.00    +0.000 A 
ATOM     14  O   UNL     1       6.367   3.414  11.771  0.00  0.00    +0.000 OA
ATOM     15  N   UNL     1       7.256   4.769  13.433  0.00  0.00    +0.000 N 
ATOM     16  C   UNL     1       8.222   5.540  12.703  0.00  0.00    +0.000 C 
ENDBRANCH   3   6
ENDBRANCH   1   3
BRANCH   1  17
ATOM     17  C   UNL     1       3.027   5.847  19.949  0.00  0.00    +0.000 C 
BRANCH  17  23
ATOM     18  C   UNL     1       1.286   3.916  18.067  0.00  0.00    +0.000 C 
ATOM     19  N   UNL     1       1.659   3.704  19.444  0.00  0.00    +0.000 N 
ATOM     20  C   UNL     1       1.394   2.554  20.142  0.00  0.00    +0.000 A 
ATOM     21  C   UNL     1       1.686   2.851  21.448  0.00  0.00    +0.000 A 
ATOM     22  N   UNL     1       2.106   4.146  21.555  0.00  0.00    +0.000 NA
ATOM     23  C   UNL     1       2.277   4.579  20.315  0.00  0.00    +0.000 A 
ENDBRANCH  17  23
BRANCH  17  24
ATOM     24  C   UNL     1       2.222   7.134  19.831  0.00  0.00    +0.000 A 
ATOM     25  C   UNL     1       2.244   7.852  18.619  0.00  0.00    +0.000 A 
ATOM     26  C   UNL     1       1.599   9.086  18.504  0.00  0.00    +0.000 A 
ATOM     27  C   UNL     1       0.905   9.612  19.590  0.00  0.00    +0.000 A 
ATOM     28  C   UNL     1       0.824   8.889  20.777  0.00  0.00    +0.000 A 
ATOM     29  C   UNL     1       1.466   7.653  20.894  0.00  0.00    +0.000 A 
ENDBRANCH  17  24
ENDBRANCH   1  17
TORSDOF 5
ENDMDL
MODEL 4
REMARK VINA RESULT:      -8.7      0.539      1.489
REMARK  Name = 
REMARK  7 active torsions:
REMARK  status: ('A' for Active; 'I' for Inactive)
REMARK    1  A    between atoms: C_1  and  N_2
REMARK    2  A    between atoms: C_6  and  C_7
REMARK    3  A    between atoms: C_7  and  N_8
REMARK    4  A    between atoms: C_7  and  C_23
REMARK    5  A    between atoms: N_8  and  S_9
REMARK    6  A    between atoms: S_9  and  C_12
REMARK    7  A    between atoms: N_21  and  C_22
REMARK                            x       y       z     vdW  Elec       q    Type
REMARK                         _______ _______ _______ _____ _____    ______ ____
ROOT
ATOM      1  N   UNL     1       4.412   6.037  19.603  0.00  0.00    +0.000 NA
ATOM      2  H   UNL     1       4.516   6.339  20.573  0.00  0.00    +0.000 HD
ENDROOT
BRANCH   1   3
ATOM      3  S   UNL     1       5.437   4.714  19.386  0.00  0.00    +0.000 S 
ATOM      4  O   UNL     1       6.720   5.122  19.918  0.00  0.00    +0.000 OA
ATOM      5  O   UNL     1       4.815   3.474  19.780  0.00  0.00    +0.000 OA
BRANCH   3   6
ATOM      6  C   UNL     1       5.650   4.623  17.629  0.00  0.00    +0.000 A 
ATOM      7  C   UNL     1       4.821   3.736  16.902  0.00  0.00    +0.000 A 
ATOM      8  C   UNL     1       4.994   3.561  15.532  0.00  0.00    +0.000 A 
ATOM      9  C   UNL     1       6.016   4.276  14.952  0.00  0.00    +0.000 A 
ATOM     10  C   UNL     1       6.839   5.132  15.661  0.00  0.00    +0.000 A 
ATOM     11  C   UNL     1       6.688   5.329  17.016  0.00  0.00    +0.000 A 
ATOM     12  O   UNL     1       7.807   5.717  14.862  0.00  0.00    +0.000 OA
ATOM     13  C   UNL     1       7.533   5.170  13.597  0.00  0.00    +0.000 A 
ATOM     14  O   UNL     1       8.185   5.446  12.599  0.00  0.00    +0.000 OA
ATOM     15  N   UNL     1       6.457   4.310  13.655  0.00  0.00    +0.000 N 
ATOM     16  C   UNL     1       5.894   3.553  12.573  0.00  0.00    +0.000 C 
ENDBRANCH   3   6
ENDBRANCH   1   3
BRANCH   1  17
ATOM     17  C   UNL     1       2.994   5.996  19.187  0.00  0.00    +0.000 C 
BRANCH  17  23
ATOM     18  C   UNL     1       2.688   8.690  17.470  0.00  0.00    +0.000 C 
ATOM     19  N   UNL     1       2.072   8.376  18.736  0.00  0.00    +0.000 N 
ATOM     20  C   UNL     1       1.154   9.179  19.363  0.00  0.00    +0.000 A 
ATOM     21  C   UNL     1       1.014   8.650  20.620  0.00  0.00    +0.000 A 
ATOM     22  N   UNL     1       1.827   7.564  20.768  0.00  0.00    +0.000 NA
ATOM     23  C   UNL     1       2.302   7.294  19.562  0.00  0.00    +0.000 A 
ENDBRANCH  17  23
BRANCH  17  24
ATOM     24  C   UNL     1       2.295   4.693  19.546  0.00  0.00    +0.000 A 
ATOM     25  C   UNL     1       1.753   3.895  18.519  0.00  0.00    +0.000 A 
ATOM     26  C   UNL     1       1.019   2.744  18.817  0.00  0.00    +0.000 A 
ATOM     27  C   UNL     1       0.832   2.360  20.142  0.00  0.00    +0.000 A 
ATOM     28  C   UNL     1       1.410   3.105  21.167  0.00  0.00    +0.000 A 
ATOM     29  C   UNL     1       2.147   4.255  20.872  0.00  0.00    +0.000 A 
ENDBRANCH  17  24
ENDBRANCH   1  17
TORSDOF 5
ENDMDL
MODEL 5
REMARK VINA RESULT:      -8.6      2.572      7.006
REMARK  Name = 
REMARK  7 active torsions:
REMARK  status: ('A' for Active; 'I' for Inactive)
REMARK    1  A    between atoms: C_1  and  N_2
REMARK    2  A    between atoms: C_6  and  C_7
REMARK    3  A    between atoms: C_7  and  N_8
REMARK    4  A    between atoms: C_7  and  C_23
REMARK    5  A    between atoms: N_8  and  S_9
REMARK    6  A    between atoms: S_9  and  C_12
REMARK    7  A    between atoms: N_21  and  C_22
REMARK                            x       y       z     vdW  Elec       q    Type
REMARK                         _______ _______ _______ _____ _____    ______ ____
ROOT
ATOM      1  N   UNL     1       4.455   4.604  16.315  0.00  0.00    +0.000 NA
ATOM      2  H   UNL     1       3.976   4.157  15.531  0.00  0.00    +0.000 HD
ENDROOT
BRANCH   1   3
ATOM      3  S   UNL     1       3.825   3.926  17.727  0.00  0.00    +0.000 S 
ATOM      4  O   UNL     1       2.699   3.121  17.305  0.00  0.00    +0.000 OA
ATOM      5  O   UNL     1       4.857   3.395  18.582  0.00  0.00    +0.000 OA
BRANCH   3   6
ATOM      6  C   UNL     1       3.132   5.310  18.591  0.00  0.00    +0.000 A 
ATOM      7  C   UNL     1       2.645   5.101  19.903  0.00  0.00    +0.000 A 
ATOM      8  C   UNL     1       2.018   6.129  20.601  0.00  0.00    +0.000 A 
ATOM      9  C   UNL     1       1.887   7.326  19.936  0.00  0.00    +0.000 A 
ATOM     10  C   UNL     1       2.347   7.529  18.648  0.00  0.00    +0.000 A 
ATOM     11  C   UNL     1       2.975   6.533  17.934  0.00  0.00    +0.000 A 
ATOM     12  O   UNL     1       2.076   8.808  18.186  0.00  0.00    +0.000 OA
ATOM     13  C   UNL     1       1.415   9.395  19.278  0.00  0.00    +0.000 A 
ATOM     14  O   UNL     1       1.006  10.548  19.265  0.00  0.00    +0.000 OA
ATOM     15  N   UNL     1       1.307   8.505  20.325  0.00  0.00    +0.000 N 
ATOM     16  C   UNL     1       0.683   8.735  21.597  0.00  0.00    +0.000 C 
ENDBRANCH   3   6
ENDBRANCH   1   3
BRANCH   1  17
ATOM     17  C   UNL     1       5.912   4.705  16.087  0.00  0.00    +0.000 C 
BRANCH  17  23
ATOM     18  C   UNL     1       7.969   4.694  18.550  0.00  0.00    +0.000 C 
ATOM     19  N   UNL     1       7.473   5.835  17.821  0.00  0.00    +0.000 N 
ATOM     20  C   UNL     1       7.903   7.121  18.022  0.00  0.00    +0.000 A 
ATOM     21  C   UNL     1       7.026   7.907  17.321  0.00  0.00    +0.000 A 
ATOM     22  N   UNL     1       6.078   7.134  16.717  0.00  0.00    +0.000 NA
ATOM     23  C   UNL     1       6.481   5.880  16.861  0.00  0.00    +0.000 A 
ENDBRANCH  17  23
BRANCH  17  24
ATOM     24  C   UNL     1       6.307   4.565  14.624  0.00  0.00    +0.000 A 
ATOM     25  C   UNL     1       5.559   3.716  13.785  0.00  0.00    +0.000 A 
ATOM     26  C   UNL     1       5.949   3.486  12.464  0.00  0.00    +0.000 A 
ATOM     27  C   UNL     1       7.080   4.116  11.953  0.00  0.00    +0.000 A 
ATOM     28  C   UNL     1       7.799   5.004  12.749  0.00  0.00    +0.000 A 
ATOM     29  C   UNL     1       7.409   5.238  14.071  0.00  0.00    +0.000 A 
ENDBRANCH  17  24
ENDBRANCH   1  17
TORSDOF 5
ENDMDL
MODEL 6
REMARK VINA RESULT:      -8.5      2.569      7.091
REMARK  Name = 
REMARK  7 active torsions:
REMARK  status: ('A' for Active; 'I' for Inactive)
REMARK    1  A    between atoms: C_1  and  N_2
REMARK    2  A    between atoms: C_6  and  C_7
REMARK    3  A    between atoms: C_7  and  N_8
REMARK    4  A    between atoms: C_7  and  C_23
REMARK    5  A    between atoms: N_8  and  S_9
REMARK    6  A    between atoms: S_9  and  C_12
REMARK    7  A    between atoms: N_21  and  C_22
REMARK                            x       y       z     vdW  Elec       q    Type
REMARK                         _______ _______ _______ _____ _____    ______ ____
ROOT
ATOM      1  N   UNL     1       4.549   4.488  16.496  0.00  0.00    +0.000 NA
ATOM      2  H   UNL     1       3.963   4.337  15.673  0.00  0.00    +0.000 HD
ENDROOT
BRANCH   1   3
ATOM      3  S   UNL     1       3.732   3.818  17.812  0.00  0.00    +0.000 S 
ATOM      4  O   UNL     1       2.591   3.125  17.252  0.00  0.00    +0.000 OA
ATOM      5  O   UNL     1       4.629   3.174  18.739  0.00  0.00    +0.000 OA
BRANCH   3   6
ATOM      6  C   UNL     1       3.071   5.225  18.664  0.00  0.00    +0.000 A 
ATOM      7  C   UNL     1       2.570   5.038  19.973  0.00  0.00    +0.000 A 
ATOM      8  C   UNL     1       1.966   6.086  20.661  0.00  0.00    +0.000 A 
ATOM      9  C   UNL     1       1.872   7.282  19.989  0.00  0.00    +0.000 A 
ATOM     10  C   UNL     1       2.345   7.465  18.703  0.00  0.00    +0.000 A 
ATOM     11  C   UNL     1       2.952   6.449  17.999  0.00  0.00    +0.000 A 
ATOM     12  O   UNL     1       2.113   8.748  18.232  0.00  0.00    +0.000 OA
ATOM     13  C   UNL     1       1.461   9.359  19.316  0.00  0.00    +0.000 A 
ATOM     14  O   UNL     1       1.083  10.523  19.293  0.00  0.00    +0.000 OA
ATOM     15  N   UNL     1       1.322   8.479  20.368  0.00  0.00    +0.000 N 
ATOM     16  C   UNL     1       0.695   8.733  21.633  0.00  0.00    +0.000 C 
ENDBRANCH   3   6
ENDBRANCH   1   3
BRANCH   1  17
ATOM     17  C   UNL     1       5.969   4.179  16.227  0.00  0.00    +0.000 C 
BRANCH  17  23
ATOM     18  C   UNL     1       6.140   7.313  16.892  0.00  0.00    +0.000 C 
ATOM     19  N   UNL     1       6.797   6.229  17.580  0.00  0.00    +0.000 N 
ATOM     20  C   UNL     1       7.541   6.382  18.721  0.00  0.00    +0.000 A 
ATOM     21  C   UNL     1       8.175   5.180  18.901  0.00  0.00    +0.000 A 
ATOM     22  N   UNL     1       7.844   4.317  17.896  0.00  0.00    +0.000 NA
ATOM     23  C   UNL     1       6.859   4.895  17.226  0.00  0.00    +0.000 A 
ENDBRANCH  17  23
BRANCH  17  24
ATOM     24  C   UNL     1       6.342   4.274  14.754  0.00  0.00    +0.000 A 
ATOM     25  C   UNL     1       5.621   3.517  13.810  0.00  0.00    +0.000 A 
ATOM     26  C   UNL     1       5.996   3.502  12.464  0.00  0.00    +0.000 A 
ATOM     27  C   UNL     1       7.082   4.261  12.036  0.00  0.00    +0.000 A 
ATOM     28  C   UNL     1       7.770   5.061  12.945  0.00  0.00    +0.000 A 
ATOM     29  C   UNL     1       7.395   5.079  14.291  0.00  0.00    +0.000 A 
ENDBRANCH  17  24
ENDBRANCH   1  17
TORSDOF 5
ENDMDL
MODEL 7
REMARK VINA RESULT:      -8.4      1.105      3.238
REMARK  Name = 
REMARK  7 active torsions:
REMARK  status: ('A' for Active; 'I' for Inactive)
REMARK    1  A    between atoms: C_1  and  N_2
REMARK    2  A    between atoms: C_6  and  C_7
REMARK    3  A    between atoms: C_7  and  N_8
REMARK    4  A    between atoms: C_7  and  C_23
REMARK    5  A    between atoms: N_8  and  S_9
REMARK    6  A    between atoms: S_9  and  C_12
REMARK    7  A    between atoms: N_21  and  C_22
REMARK                            x       y       z     vdW  Elec       q    Type
REMARK                         _______ _______ _______ _____ _____    ______ ____
ROOT
ATOM      1  N   UNL     1       4.236   6.107  19.246  0.00  0.00    +0.000 NA
ATOM      2  H   UNL     1       4.767   6.909  19.591  0.00  0.00    +0.000 HD
ENDROOT
BRANCH   1   3
ATOM      3  S   UNL     1       5.314   4.813  19.136  0.00  0.00    +0.000 S 
ATOM      4  O   UNL     1       6.560   5.294  19.693  0.00  0.00    +0.000 OA
ATOM      5  O   UNL     1       4.720   3.573  19.570  0.00  0.00    +0.000 OA
BRANCH   3   6
ATOM      6  C   UNL     1       5.598   4.642  17.395  0.00  0.00    +0.000 A 
ATOM      7  C   UNL     1       4.824   3.695  16.683  0.00  0.00    +0.000 A 
ATOM      8  C   UNL     1       5.056   3.458  15.331  0.00  0.00    +0.000 A 
ATOM      9  C   UNL     1       6.078   4.174  14.754  0.00  0.00    +0.000 A 
ATOM     10  C   UNL     1       6.848   5.089  15.450  0.00  0.00    +0.000 A 
ATOM     11  C   UNL     1       6.638   5.348  16.787  0.00  0.00    +0.000 A 
ATOM     12  O   UNL     1       7.830   5.664  14.659  0.00  0.00    +0.000 OA
ATOM     13  C   UNL     1       7.622   5.047  13.414  0.00  0.00    +0.000 A 
ATOM     14  O   UNL     1       8.303   5.293  12.428  0.00  0.00    +0.000 OA
ATOM     15  N   UNL     1       6.569   4.158  13.475  0.00  0.00    +0.000 N 
ATOM     16  C   UNL     1       6.071   3.332  12.413  0.00  0.00    +0.000 C 
ENDBRANCH   3   6
ENDBRANCH   1   3
BRANCH   1  17
ATOM     17  C   UNL     1       2.931   5.973  19.929  0.00  0.00    +0.000 C 
BRANCH  17  23
ATOM     18  C   UNL     1       2.035   3.383  21.598  0.00  0.00    +0.000 C 
ATOM     19  N   UNL     1       1.721   3.701  20.226  0.00  0.00    +0.000 N 
ATOM     20  C   UNL     1       0.880   2.956  19.439  0.00  0.00    +0.000 A 
ATOM     21  C   UNL     1       1.048   3.448  18.170  0.00  0.00    +0.000 A 
ATOM     22  N   UNL     1       1.971   4.453  18.171  0.00  0.00    +0.000 NA
ATOM     23  C   UNL     1       2.213   4.727  19.444  0.00  0.00    +0.000 A 
ENDBRANCH  17  23
BRANCH  17  24
ATOM     24  C   UNL     1       2.138   7.271  19.978  0.00  0.00    +0.000 A 
ATOM     25  C   UNL     1       1.410   7.591  21.142  0.00  0.00    +0.000 A 
ATOM     26  C   UNL     1       0.592   8.723  21.188  0.00  0.00    +0.000 A 
ATOM     27  C   UNL     1       0.504   9.564  20.083  0.00  0.00    +0.000 A 
ATOM     28  C   UNL     1       1.261   9.295  18.946  0.00  0.00    +0.000 A 
ATOM     29  C   UNL     1       2.082   8.165  18.897  0.00  0.00    +0.000 A 
ENDBRANCH  17  24
ENDBRANCH   1  17
TORSDOF 5
ENDMDL
MODEL 8
REMARK VINA RESULT:      -8.3      1.448      3.670
REMARK  Name = 
REMARK  7 active torsions:
REMARK  status: ('A' for Active; 'I' for Inactive)
REMARK    1  A    between atoms: C_1  and  N_2
REMARK    2  A    between atoms: C_6  and  C_7
REMARK    3  A    between atoms: C_7  and  N_8
REMARK    4  A    between atoms: C_7  and  C_23
REMARK    5  A    between atoms: N_8  and  S_9
REMARK    6  A    between atoms: S_9  and  C_12
REMARK    7  A    between atoms: N_21  and  C_22
REMARK                            x       y       z     vdW  Elec       q    Type
REMARK                         _______ _______ _______ _____ _____    ______ ____
ROOT
ATOM      1  N   UNL     1       4.222   5.959  19.018  0.00  0.00    +0.000 NA
ATOM      2  H   UNL     1       4.656   6.874  19.155  0.00  0.00    +0.000 HD
ENDROOT
BRANCH   1   3
ATOM      3  S   UNL     1       5.458   4.812  19.079  0.00  0.00    +0.000 S 
ATOM      4  O   UNL     1       6.519   5.422  19.853  0.00  0.00    +0.000 OA
ATOM      5  O   UNL     1       4.962   3.493  19.384  0.00  0.00    +0.000 OA
BRANCH   3   6
ATOM      6  C   UNL     1       6.057   4.741  17.412  0.00  0.00    +0.000 A 
ATOM      7  C   UNL     1       7.102   5.620  17.042  0.00  0.00    +0.000 A 
ATOM      8  C   UNL     1       7.559   5.667  15.728  0.00  0.00    +0.000 A 
ATOM      9  C   UNL     1       6.926   4.838  14.832  0.00  0.00    +0.000 A 
ATOM     10  C   UNL     1       5.893   3.989  15.187  0.00  0.00    +0.000 A 
ATOM     11  C   UNL     1       5.423   3.917  16.480  0.00  0.00    +0.000 A 
ATOM     12  O   UNL     1       5.402   3.274  14.106  0.00  0.00    +0.000 OA
ATOM     13  C   UNL     1       6.202   3.732  13.046  0.00  0.00    +0.000 A 
ATOM     14  O   UNL     1       6.077   3.329  11.898  0.00  0.00    +0.000 OA
ATOM     15  N   UNL     1       7.116   4.665  13.486  0.00  0.00    +0.000 N 
ATOM     16  C   UNL     1       8.087   5.367  12.695  0.00  0.00    +0.000 C 
ENDBRANCH   3   6
ENDBRANCH   1   3
BRANCH   1  17
ATOM     17  C   UNL     1       2.986   5.810  19.815  0.00  0.00    +0.000 C 
BRANCH  17  23
ATOM     18  C   UNL     1       2.114   3.340  21.669  0.00  0.00    +0.000 C 
ATOM     19  N   UNL     1       1.784   3.561  20.283  0.00  0.00    +0.000 N 
ATOM     20  C   UNL     1       0.935   2.763  19.559  0.00  0.00    +0.000 A 
ATOM     21  C   UNL     1       1.087   3.166  18.257  0.00  0.00    +0.000 A 
ATOM     22  N   UNL     1       2.008   4.170  18.178  0.00  0.00    +0.000 NA
ATOM     23  C   UNL     1       2.265   4.532  19.426  0.00  0.00    +0.000 A 
ENDBRANCH  17  23
BRANCH  17  24
ATOM     24  C   UNL     1       2.162   7.087  19.901  0.00  0.00    +0.000 A 
ATOM     25  C   UNL     1       2.132   7.964  18.799  0.00  0.00    +0.000 A 
ATOM     26  C   UNL     1       1.468   9.191  18.876  0.00  0.00    +0.000 A 
ATOM     27  C   UNL     1       0.807   9.552  20.046  0.00  0.00    +0.000 A 
ATOM     28  C   UNL     1       0.777   8.672  21.125  0.00  0.00    +0.000 A 
ATOM     29  C   UNL     1       1.438   7.443  21.050  0.00  0.00    +0.000 A 
ENDBRANCH  17  24
ENDBRANCH   1  17
TORSDOF 5
ENDMDL
MODEL 9
REMARK VINA RESULT:      -8.3      1.210      3.615
REMARK  Name = 
REMARK  7 active torsions:
REMARK  status: ('A' for Active; 'I' for Inactive)
REMARK    1  A    between atoms: C_1  and  N_2
REMARK    2  A    between atoms: C_6  and  C_7
REMARK    3  A    between atoms: C_7  and  N_8
REMARK    4  A    between atoms: C_7  and  C_23
REMARK    5  A    between atoms: N_8  and  S_9
REMARK    6  A    between atoms: S_9  and  C_12
REMARK    7  A    between atoms: N_21  and  C_22
REMARK                            x       y       z     vdW  Elec       q    Type
REMARK                         _______ _______ _______ _____ _____    ______ ____
ROOT
ATOM      1  N   UNL     1       3.772   5.678  18.944  0.00  0.00    +0.000 NA
ATOM      2  H   UNL     1       4.003   6.590  18.546  0.00  0.00    +0.000 HD
ENDROOT
BRANCH   1   3
ATOM      3  S   UNL     1       5.188   4.760  18.929  0.00  0.00    +0.000 S 
ATOM      4  O   UNL     1       6.202   5.597  19.535  0.00  0.00    +0.000 OA
ATOM      5  O   UNL     1       4.963   3.406  19.370  0.00  0.00    +0.000 OA
BRANCH   3   6
ATOM      6  C   UNL     1       5.610   4.656  17.211  0.00  0.00    +0.000 A 
ATOM      7  C   UNL     1       4.988   3.654  16.431  0.00  0.00    +0.000 A 
ATOM      8  C   UNL     1       5.338   3.471  15.096  0.00  0.00    +0.000 A 
ATOM      9  C   UNL     1       6.322   4.298  14.606  0.00  0.00    +0.000 A 
ATOM     10  C   UNL     1       6.944   5.269  15.369  0.00  0.00    +0.000 A 
ATOM     11  C   UNL     1       6.616   5.476  16.691  0.00  0.00    +0.000 A 
ATOM     12  O   UNL     1       7.917   5.955  14.661  0.00  0.00    +0.000 OA
ATOM     13  C   UNL     1       7.861   5.348  13.395  0.00  0.00    +0.000 A 
ATOM     14  O   UNL     1       8.582   5.683  12.465  0.00  0.00    +0.000 OA
ATOM     15  N   UNL     1       6.901   4.358  13.365  0.00  0.00    +0.000 N 
ATOM     16  C   UNL     1       6.565   3.510  12.258  0.00  0.00    +0.000 C 
ENDBRANCH   3   6
ENDBRANCH   1   3
BRANCH   1  17
ATOM     17  C   UNL     1       2.940   5.801  20.160  0.00  0.00    +0.000 C 
BRANCH  17  23
ATOM     18  C   UNL     1       1.276   3.889  18.192  0.00  0.00    +0.000 C 
ATOM     19  N   UNL     1       1.676   3.622  19.552  0.00  0.00    +0.000 N 
ATOM     20  C   UNL     1       1.476   2.424  20.189  0.00  0.00    +0.000 A 
ATOM     21  C   UNL     1       1.769   2.665  21.507  0.00  0.00    +0.000 A 
ATOM     22  N   UNL     1       2.124   3.972  21.680  0.00  0.00    +0.000 NA
ATOM     23  C   UNL     1       2.259   4.479  20.464  0.00  0.00    +0.000 A 
ENDBRANCH  17  23
BRANCH  17  24
ATOM     24  C   UNL     1       2.083   7.059  20.184  0.00  0.00    +0.000 A 
ATOM     25  C   UNL     1       2.107   7.930  19.077  0.00  0.00    +0.000 A 
ATOM     26  C   UNL     1       1.412   9.142  19.103  0.00  0.00    +0.000 A 
ATOM     27  C   UNL     1       0.665   9.492  20.224  0.00  0.00    +0.000 A 
ATOM     28  C   UNL     1       0.583   8.616  21.303  0.00  0.00    +0.000 A 
ATOM     29  C   UNL     1       1.276   7.403  21.280  0.00  0.00    +0.000 A 
ENDBRANCH  17  24
ENDBRANCH   1  17
TORSDOF 5
ENDMDL
