MODEL 1
REMARK VINA RESULT:      -8.1      0.000      0.000
REMARK  Name = 
REMARK  2 active torsions:
REMARK  status: ('A' for Active; 'I' for Inactive)
REMARK    1  A    between atoms: N_15  and  C_16
REMARK    2  A    between atoms: C_16  and  C_17
REMARK                            x       y       z     vdW  Elec       q    Type
REMARK                         _______ _______ _______ _____ _____    ______ ____
ROOT
ATOM      1  O   UNL     1       2.352   3.287  16.864  0.00  0.00    +0.000 OA
ATOM      2  C   UNL     1       2.684   4.135  17.676  0.00  0.00    +0.000 C 
ATOM      3  N   UNL     1       1.874   5.177  18.061  0.00  0.00    +0.000 N 
ATOM      4  C   UNL     1       2.527   6.032  19.018  0.00  0.00    +0.000 C 
ATOM      5  C   UNL     1       2.055   5.719  20.454  0.00  0.00    +0.000 C 
ATOM      6  C   UNL     1       1.461   6.996  21.059  0.00  0.00    +0.000 C 
ATOM      7  C   UNL     1       1.590   8.008  19.969  0.00  0.00    +0.000 A 
ATOM      8  C   UNL     1       1.143   9.320  20.025  0.00  0.00    +0.000 A 
ATOM      9  C   UNL     1       1.304  10.126  18.901  0.00  0.00    +0.000 A 
ATOM     10  C   UNL     1       1.915   9.614  17.748  0.00  0.00    +0.000 A 
ATOM     11  C   UNL     1       2.378   8.289  17.709  0.00  0.00    +0.000 A 
ATOM     12  C   UNL     1       2.209   7.485  18.828  0.00  0.00    +0.000 A 
ATOM     13  C   UNL     1       3.968   5.535  18.845  0.00  0.00    +0.000 C 
ATOM     14  O   UNL     1       4.989   6.111  19.196  0.00  0.00    +0.000 OA
ATOM     15  N   UNL     1       3.905   4.289  18.265  0.00  0.00    +0.000 N 
ATOM     16  H   UNL     1       0.931   5.288  17.713  0.00  0.00    +0.000 HD
ENDROOT
BRANCH  15  17
ATOM     17  C   UNL     1       5.053   3.493  17.893  0.00  0.00    +0.000 C 
BRANCH  17  18
ATOM     18  C   UNL     1       5.623   3.811  16.531  0.00  0.00    +0.000 A 
ATOM     19  N   UNL     1       5.282   3.311  15.357  0.00  0.00    +0.000 NA
ATOM     20  C   UNL     1       6.059   3.886  14.346  0.00  0.00    +0.000 A 
ATOM     21  C   UNL     1       6.018   3.586  12.963  0.00  0.00    +0.000 A 
ATOM     22  C   UNL     1       6.901   4.224  12.075  0.00  0.00    +0.000 A 
ATOM     23  C   UNL     1       7.811   5.169  12.539  0.00  0.00    +0.000 A 
ATOM     24  C   UNL     1       7.851   5.508  13.893  0.00  0.00    +0.000 A 
ATOM     25  C   UNL     1       6.973   4.852  14.774  0.00  0.00    +0.000 A 
ATOM     26  S   UNL     1       6.822   5.054  16.470  0.00  0.00    +0.000 S 
ENDBRANCH  17  18
ENDBRANCH  15  17
TORSDOF 2
ENDMDL
MODEL 2
REMARK VINA RESULT:      -8.0      3.824      8.019
REMARK  Name = 
REMARK  2 active torsions:
REMARK  status: ('A' for Active; 'I' for Inactive)
REMARK    1  A    between atoms: N_15  and  C_16
REMARK    2  A    between atoms: C_16  and  C_17
REMARK                            x       y       z     vdW  Elec       q    Type
REMARK                         _______ _______ _______ _____ _____    ______ ____
ROOT
ATOM      1  O   UNL     1       1.518   8.166  21.603  0.00  0.00    +0.000 OA
ATOM      2  C   UNL     1       1.773   7.819  20.461  0.00  0.00    +0.000 C 
ATOM      3  N   UNL     1       2.398   6.636  20.147  0.00  0.00    +0.000 N 
ATOM      4  C   UNL     1       2.585   6.494  18.727  0.00  0.00    +0.000 C 
ATOM      5  C   UNL     1       1.508   5.573  18.115  0.00  0.00    +0.000 C 
ATOM      6  C   UNL     1       2.209   4.400  17.421  0.00  0.00    +0.000 C 
ATOM      7  C   UNL     1       3.661   4.656  17.653  0.00  0.00    +0.000 A 
ATOM      8  C   UNL     1       4.704   3.834  17.251  0.00  0.00    +0.000 A 
ATOM      9  C   UNL     1       6.005   4.199  17.584  0.00  0.00    +0.000 A 
ATOM     10  C   UNL     1       6.245   5.379  18.303  0.00  0.00    +0.000 A 
ATOM     11  C   UNL     1       5.183   6.212  18.690  0.00  0.00    +0.000 A 
ATOM     12  C   UNL     1       3.885   5.842  18.363  0.00  0.00    +0.000 A 
ATOM     13  C   UNL     1       2.308   7.941  18.299  0.00  0.00    +0.000 C 
ATOM     14  O   UNL     1       2.615   8.461  17.235  0.00  0.00    +0.000 OA
ATOM     15  N   UNL     1       1.602   8.540  19.316  0.00  0.00    +0.000 N 
ATOM     16  H   UNL     1       2.660   5.958  20.851  0.00  0.00    +0.000 HD
ENDROOT
BRANCH  15  17
ATOM     17  C   UNL     1       1.182   9.923  19.324  0.00  0.00    +0.000 C 
BRANCH  17  18
ATOM     18  C   UNL     1      -0.141  10.184  18.642  0.00  0.00    +0.000 A 
ATOM     19  N   UNL     1      -0.588   9.697  17.497  0.00  0.00    +0.000 NA
ATOM     20  C   UNL     1      -1.871  10.191  17.236  0.00  0.00    +0.000 A 
ATOM     21  C   UNL     1      -2.668   9.933  16.095  0.00  0.00    +0.000 A 
ATOM     22  C   UNL     1      -3.926  10.544  15.959  0.00  0.00    +0.000 A 
ATOM     23  C   UNL     1      -4.412  11.392  16.949  0.00  0.00    +0.000 A 
ATOM     24  C   UNL     1      -3.660  11.639  18.099  0.00  0.00    +0.000 A 
ATOM     25  C   UNL     1      -2.397  11.034  18.217  0.00  0.00    +0.000 A 
ATOM     26  S   UNL     1      -1.265  11.177  19.499  0.00  0.00    +0.000 S 
ENDBRANCH  17  18
ENDBRANCH  15  17
TORSDOF 2
ENDMDL
MODEL 3
REMARK VINA RESULT:      -7.3      6.435     11.275
REMARK  Name = 
REMARK  2 active torsions:
REMARK  status: ('A' for Active; 'I' for Inactive)
REMARK    1  A    between atoms: N_15  and  C_16
REMARK    2  A    between atoms: C_16  and  C_17
REMARK                            x       y       z     vdW  Elec       q    Type
REMARK                         _______ _______ _______ _____ _____    ______ ____
ROOT
ATOM      1  O   UNL     1       0.685  13.749  20.377  0.00  0.00    +0.000 OA
ATOM      2  C   UNL     1       0.331  12.585  20.278  0.00  0.00    +0.000 C 
ATOM      3  N   UNL     1       1.200  11.520  20.324  0.00  0.00    +0.000 N 
ATOM      4  C   UNL     1       0.512  10.266  20.167  0.00  0.00    +0.000 C 
ATOM      5  C   UNL     1       0.295   9.577  21.532  0.00  0.00    +0.000 C 
ATOM      6  C   UNL     1       0.958   8.196  21.489  0.00  0.00    +0.000 C 
ATOM      7  C   UNL     1       1.548   8.119  20.120  0.00  0.00    +0.000 A 
ATOM      8  C   UNL     1       2.299   7.066  19.619  0.00  0.00    +0.000 A 
ATOM      9  C   UNL     1       2.814   7.169  18.330  0.00  0.00    +0.000 A 
ATOM     10  C   UNL     1       2.564   8.314  17.560  0.00  0.00    +0.000 A 
ATOM     11  C   UNL     1       1.788   9.367  18.071  0.00  0.00    +0.000 A 
ATOM     12  C   UNL     1       1.282   9.265  19.361  0.00  0.00    +0.000 A 
ATOM     13  C   UNL     1      -0.835  10.791  19.652  0.00  0.00    +0.000 C 
ATOM     14  O   UNL     1      -1.699  10.146  19.073  0.00  0.00    +0.000 OA
ATOM     15  N   UNL     1      -0.920  12.117  20.006  0.00  0.00    +0.000 N 
ATOM     16  H   UNL     1       2.193  11.637  20.476  0.00  0.00    +0.000 HD
ENDROOT
BRANCH  15  17
ATOM     17  C   UNL     1      -2.020  12.991  19.667  0.00  0.00    +0.000 C 
BRANCH  17  18
ATOM     18  C   UNL     1      -3.203  12.906  20.603  0.00  0.00    +0.000 A 
ATOM     19  N   UNL     1      -4.451  12.570  20.326  0.00  0.00    +0.000 NA
ATOM     20  C   UNL     1      -5.227  12.613  21.490  0.00  0.00    +0.000 A 
ATOM     21  C   UNL     1      -6.615  12.355  21.599  0.00  0.00    +0.000 A 
ATOM     22  C   UNL     1      -7.262  12.484  22.839  0.00  0.00    +0.000 A 
ATOM     23  C   UNL     1      -6.547  12.847  23.976  0.00  0.00    +0.000 A 
ATOM     24  C   UNL     1      -5.172  13.075  23.903  0.00  0.00    +0.000 A 
ATOM     25  C   UNL     1      -4.538  12.958  22.654  0.00  0.00    +0.000 A 
ATOM     26  S   UNL     1      -2.883  13.200  22.275  0.00  0.00    +0.000 S 
ENDBRANCH  17  18
ENDBRANCH  15  17
TORSDOF 2
ENDMDL
MODEL 4
REMARK VINA RESULT:      -7.3      6.512     11.371
REMARK  Name = 
REMARK  2 active torsions:
REMARK  status: ('A' for Active; 'I' for Inactive)
REMARK    1  A    between atoms: N_15  and  C_16
REMARK    2  A    between atoms: C_16  and  C_17
REMARK                            x       y       z     vdW  Elec       q    Type
REMARK                         _______ _______ _______ _____ _____    ______ ____
ROOT
ATOM      1  O   UNL     1       0.598  13.721  20.570  0.00  0.00    +0.000 OA
ATOM      2  C   UNL     1       0.258  12.558  20.417  0.00  0.00    +0.000 C 
ATOM      3  N   UNL     1       1.133  11.499  20.460  0.00  0.00    +0.000 N 
ATOM      4  C   UNL     1       0.461  10.246  20.232  0.00  0.00    +0.000 C 
ATOM      5  C   UNL     1       0.197   9.508  21.563  0.00  0.00    +0.000 C 
ATOM      6  C   UNL     1       0.873   8.134  21.497  0.00  0.00    +0.000 C 
ATOM      7  C   UNL     1       1.517   8.109  20.151  0.00  0.00    +0.000 A 
ATOM      8  C   UNL     1       2.295   7.079  19.643  0.00  0.00    +0.000 A 
ATOM      9  C   UNL     1       2.858   7.231  18.379  0.00  0.00    +0.000 A 
ATOM     10  C   UNL     1       2.629   8.401  17.641  0.00  0.00    +0.000 A 
ATOM     11  C   UNL     1       1.825   9.430  18.158  0.00  0.00    +0.000 A 
ATOM     12  C   UNL     1       1.271   9.279  19.422  0.00  0.00    +0.000 A 
ATOM     13  C   UNL     1      -0.869  10.779  19.684  0.00  0.00    +0.000 C 
ATOM     14  O   UNL     1      -1.704  10.149  19.049  0.00  0.00    +0.000 OA
ATOM     15  N   UNL     1      -0.979  12.092  20.080  0.00  0.00    +0.000 N 
ATOM     16  H   UNL     1       2.118  11.617  20.654  0.00  0.00    +0.000 HD
ENDROOT
BRANCH  15  17
ATOM     17  C   UNL     1      -2.071  12.970  19.729  0.00  0.00    +0.000 C 
BRANCH  17  18
ATOM     18  C   UNL     1      -3.264  12.890  20.653  0.00  0.00    +0.000 A 
ATOM     19  N   UNL     1      -3.312  13.091  21.958  0.00  0.00    +0.000 NA
ATOM     20  C   UNL     1      -4.621  12.922  22.421  0.00  0.00    +0.000 A 
ATOM     21  C   UNL     1      -5.071  13.017  23.760  0.00  0.00    +0.000 A 
ATOM     22  C   UNL     1      -6.419  12.775  24.072  0.00  0.00    +0.000 A 
ATOM     23  C   UNL     1      -7.331  12.460  23.070  0.00  0.00    +0.000 A 
ATOM     24  C   UNL     1      -6.922  12.392  21.737  0.00  0.00    +0.000 A 
ATOM     25  C   UNL     1      -5.567  12.620  21.439  0.00  0.00    +0.000 A 
ATOM     26  S   UNL     1      -4.793  12.581  19.909  0.00  0.00    +0.000 S 
ENDBRANCH  17  18
ENDBRANCH  15  17
TORSDOF 2
ENDMDL
MODEL 5
REMARK VINA RESULT:      -7.1      5.905     10.403
REMARK  Name = 
REMARK  2 active torsions:
REMARK  status: ('A' for Active; 'I' for Inactive)
REMARK    1  A    between atoms: N_15  and  C_16
REMARK    2  A    between atoms: C_16  and  C_17
REMARK                            x       y       z     vdW  Elec       q    Type
REMARK                         _______ _______ _______ _____ _____    ______ ____
ROOT
ATOM      1  O   UNL     1       0.880  13.292  18.985  0.00  0.00    +0.000 OA
ATOM      2  C   UNL     1       0.560  12.115  19.044  0.00  0.00    +0.000 C 
ATOM      3  N   UNL     1       1.421  11.112  19.421  0.00  0.00    +0.000 N 
ATOM      4  C   UNL     1       0.782   9.823  19.386  0.00  0.00    +0.000 C 
ATOM      5  C   UNL     1       0.350   9.379  20.801  0.00  0.00    +0.000 C 
ATOM      6  C   UNL     1       1.026   8.040  21.116  0.00  0.00    +0.000 C 
ATOM      7  C   UNL     1       1.835   7.745  19.896  0.00  0.00    +0.000 A 
ATOM      8  C   UNL     1       2.669   6.651  19.722  0.00  0.00    +0.000 A 
ATOM      9  C   UNL     1       3.388   6.544  18.534  0.00  0.00    +0.000 A 
ATOM     10  C   UNL     1       3.256   7.524  17.540  0.00  0.00    +0.000 A 
ATOM     11  C   UNL     1       2.395   8.619  17.720  0.00  0.00    +0.000 A 
ATOM     12  C   UNL     1       1.685   8.726  18.909  0.00  0.00    +0.000 A 
ATOM     13  C   UNL     1      -0.468  10.193  18.575  0.00  0.00    +0.000 C 
ATOM     14  O   UNL     1      -1.217   9.421  17.993  0.00  0.00    +0.000 OA
ATOM     15  N   UNL     1      -0.624  11.556  18.664  0.00  0.00    +0.000 N 
ATOM     16  H   UNL     1       2.374  11.294  19.706  0.00  0.00    +0.000 HD
ENDROOT
BRANCH  15  17
ATOM     17  C   UNL     1      -1.663  12.312  18.001  0.00  0.00    +0.000 C 
BRANCH  17  18
ATOM     18  C   UNL     1      -3.043  12.136  18.590  0.00  0.00    +0.000 A 
ATOM     19  N   UNL     1      -3.499  12.552  19.758  0.00  0.00    +0.000 NA
ATOM     20  C   UNL     1      -4.841  12.184  19.906  0.00  0.00    +0.000 A 
ATOM     21  C   UNL     1      -5.669  12.415  21.031  0.00  0.00    +0.000 A 
ATOM     22  C   UNL     1      -6.992  11.941  21.044  0.00  0.00    +0.000 A 
ATOM     23  C   UNL     1      -7.509  11.257  19.948  0.00  0.00    +0.000 A 
ATOM     24  C   UNL     1      -6.725  11.044  18.813  0.00  0.00    +0.000 A 
ATOM     25  C   UNL     1      -5.398  11.509  18.818  0.00  0.00    +0.000 A 
ATOM     26  S   UNL     1      -4.218  11.369  17.582  0.00  0.00    +0.000 S 
ENDBRANCH  17  18
ENDBRANCH  15  17
TORSDOF 2
ENDMDL
MODEL 6
REMARK VINA RESULT:      -7.1      3.809      8.436
REMARK  Name = 
REMARK  2 active torsions:
REMARK  status: ('A' for Active; 'I' for Inactive)
REMARK    1  A    between atoms: N_15  and  C_16
REMARK    2  A    between atoms: C_16  and  C_17
REMARK                            x       y       z     vdW  Elec       q    Type
REMARK                         _______ _______ _______ _____ _____    ______ ____
ROOT
ATOM      1  O   UNL     1       1.354   8.514  21.562  0.00  0.00    +0.000 OA
ATOM      2  C   UNL     1       1.655   8.090  20.458  0.00  0.00    +0.000 C 
ATOM      3  N   UNL     1       2.203   6.848  20.243  0.00  0.00    +0.000 N 
ATOM      4  C   UNL     1       2.471   6.619  18.848  0.00  0.00    +0.000 C 
ATOM      5  C   UNL     1       1.366   5.753  18.206  0.00  0.00    +0.000 C 
ATOM      6  C   UNL     1       2.016   4.495  17.618  0.00  0.00    +0.000 C 
ATOM      7  C   UNL     1       3.465   4.651  17.938  0.00  0.00    +0.000 A 
ATOM      8  C   UNL     1       4.463   3.732  17.648  0.00  0.00    +0.000 A 
ATOM      9  C   UNL     1       5.765   4.013  18.053  0.00  0.00    +0.000 A 
ATOM     10  C   UNL     1       6.051   5.207  18.731  0.00  0.00    +0.000 A 
ATOM     11  C   UNL     1       5.035   6.138  19.005  0.00  0.00    +0.000 A 
ATOM     12  C   UNL     1       3.736   5.851  18.606  0.00  0.00    +0.000 A 
ATOM     13  C   UNL     1       2.340   8.059  18.335  0.00  0.00    +0.000 C 
ATOM     14  O   UNL     1       2.756   8.499  17.272  0.00  0.00    +0.000 OA
ATOM     15  N   UNL     1       1.618   8.762  19.271  0.00  0.00    +0.000 N 
ATOM     16  H   UNL     1       2.363   6.189  20.994  0.00  0.00    +0.000 HD
ENDROOT
BRANCH  15  17
ATOM     17  C   UNL     1       1.310  10.172  19.186  0.00  0.00    +0.000 C 
BRANCH  17  18
ATOM     18  C   UNL     1      -0.146  10.484  18.934  0.00  0.00    +0.000 A 
ATOM     19  N   UNL     1      -0.920  11.361  19.549  0.00  0.00    +0.000 NA
ATOM     20  C   UNL     1      -2.206  11.335  18.997  0.00  0.00    +0.000 A 
ATOM     21  C   UNL     1      -3.325  12.100  19.407  0.00  0.00    +0.000 A 
ATOM     22  C   UNL     1      -4.568  11.926  18.776  0.00  0.00    +0.000 A 
ATOM     23  C   UNL     1      -4.711  11.018  17.731  0.00  0.00    +0.000 A 
ATOM     24  C   UNL     1      -3.616  10.275  17.286  0.00  0.00    +0.000 A 
ATOM     25  C   UNL     1      -2.381  10.446  17.935  0.00  0.00    +0.000 A 
ATOM     26  S   UNL     1      -0.892   9.658  17.612  0.00  0.00    +0.000 S 
ENDBRANCH  17  18
ENDBRANCH  15  17
TORSDOF 2
ENDMDL
MODEL 7
REMARK VINA RESULT:      -7.0      5.908     10.376
REMARK  Name = 
REMARK  2 active torsions:
REMARK  status: ('A' for Active; 'I' for Inactive)
REMARK    1  A    between atoms: N_15  and  C_16
REMARK    2  A    between atoms: C_16  and  C_17
REMARK                            x       y       z     vdW  Elec       q    Type
REMARK                         _______ _______ _______ _____ _____    ______ ____
ROOT
ATOM      1  O   UNL     1       0.957  13.269  19.250  0.00  0.00    +0.000 OA
ATOM      2  C   UNL     1       0.616  12.097  19.257  0.00  0.00    +0.000 C 
ATOM      3  N   UNL     1       1.454  11.063  19.599  0.00  0.00    +0.000 N 
ATOM      4  C   UNL     1       0.792   9.789  19.504  0.00  0.00    +0.000 C 
ATOM      5  C   UNL     1       0.339   9.294  20.895  0.00  0.00    +0.000 C 
ATOM      6  C   UNL     1       0.988   7.931  21.160  0.00  0.00    +0.000 C 
ATOM      7  C   UNL     1       1.803   7.672  19.936  0.00  0.00    +0.000 A 
ATOM      8  C   UNL     1       2.619   6.571  19.723  0.00  0.00    +0.000 A 
ATOM      9  C   UNL     1       3.348   6.501  18.539  0.00  0.00    +0.000 A 
ATOM     10  C   UNL     1       3.243   7.524  17.585  0.00  0.00    +0.000 A 
ATOM     11  C   UNL     1       2.400   8.626  17.804  0.00  0.00    +0.000 A 
ATOM     12  C   UNL     1       1.680   8.697  18.990  0.00  0.00    +0.000 A 
ATOM     13  C   UNL     1      -0.442  10.215  18.698  0.00  0.00    +0.000 C 
ATOM     14  O   UNL     1      -1.200   9.483  18.077  0.00  0.00    +0.000 OA
ATOM     15  N   UNL     1      -0.575  11.577  18.843  0.00  0.00    +0.000 N 
ATOM     16  H   UNL     1       2.408  11.215  19.900  0.00  0.00    +0.000 HD
ENDROOT
BRANCH  15  17
ATOM     17  C   UNL     1      -1.593  12.378  18.202  0.00  0.00    +0.000 C 
BRANCH  17  18
ATOM     18  C   UNL     1      -2.984  12.196  18.765  0.00  0.00    +0.000 A 
ATOM     19  N   UNL     1      -4.009  11.550  18.238  0.00  0.00    +0.000 NA
ATOM     20  C   UNL     1      -5.112  11.621  19.096  0.00  0.00    +0.000 A 
ATOM     21  C   UNL     1      -6.403  11.085  18.870  0.00  0.00    +0.000 A 
ATOM     22  C   UNL     1      -7.423  11.280  19.816  0.00  0.00    +0.000 A 
ATOM     23  C   UNL     1      -7.175  11.982  20.991  0.00  0.00    +0.000 A 
ATOM     24  C   UNL     1      -5.902  12.492  21.254  0.00  0.00    +0.000 A 
ATOM     25  C   UNL     1      -4.893  12.305  20.293  0.00  0.00    +0.000 A 
ATOM     26  S   UNL     1      -3.263  12.836  20.345  0.00  0.00    +0.000 S 
ENDBRANCH  17  18
ENDBRANCH  15  17
TORSDOF 2
ENDMDL
MODEL 8
REMARK VINA RESULT:      -6.9      4.961      7.799
REMARK  Name = 
REMARK  2 active torsions:
REMARK  status: ('A' for Active; 'I' for Inactive)
REMARK    1  A    between atoms: N_15  and  C_16
REMARK    2  A    between atoms: C_16  and  C_17
REMARK                            x       y       z     vdW  Elec       q    Type
REMARK                         _______ _______ _______ _____ _____    ______ ____
ROOT
ATOM      1  O   UNL     1      -1.226  10.992  17.864  0.00  0.00    +0.000 OA
ATOM      2  C   UNL     1      -0.637  11.785  18.581  0.00  0.00    +0.000 C 
ATOM      3  N   UNL     1      -0.230  13.030  18.165  0.00  0.00    +0.000 N 
ATOM      4  C   UNL     1       0.452  13.744  19.212  0.00  0.00    +0.000 C 
ATOM      5  C   UNL     1      -0.486  14.766  19.889  0.00  0.00    +0.000 C 
ATOM      6  C   UNL     1       0.139  16.160  19.757  0.00  0.00    +0.000 C 
ATOM      7  C   UNL     1       1.406  15.921  19.005  0.00  0.00    +0.000 A 
ATOM      8  C   UNL     1       2.303  16.896  18.599  0.00  0.00    +0.000 A 
ATOM      9  C   UNL     1       3.422  16.508  17.867  0.00  0.00    +0.000 A 
ATOM     10  C   UNL     1       3.631  15.155  17.561  0.00  0.00    +0.000 A 
ATOM     11  C   UNL     1       2.723  14.174  17.993  0.00  0.00    +0.000 A 
ATOM     12  C   UNL     1       1.604  14.565  18.717  0.00  0.00    +0.000 A 
ATOM     13  C   UNL     1       0.703  12.578  20.178  0.00  0.00    +0.000 C 
ATOM     14  O   UNL     1       1.507  12.551  21.100  0.00  0.00    +0.000 OA
ATOM     15  N   UNL     1      -0.183  11.578  19.851  0.00  0.00    +0.000 N 
ATOM     16  H   UNL     1      -0.423  13.381  17.236  0.00  0.00    +0.000 HD
ENDROOT
BRANCH  15  17
ATOM     17  C   UNL     1      -0.243  10.287  20.497  0.00  0.00    +0.000 C 
BRANCH  17  18
ATOM     18  C   UNL     1       0.745   9.273  19.968  0.00  0.00    +0.000 A 
ATOM     19  N   UNL     1       1.422   9.295  18.834  0.00  0.00    +0.000 NA
ATOM     20  C   UNL     1       2.235   8.160  18.740  0.00  0.00    +0.000 A 
ATOM     21  C   UNL     1       3.081   7.805  17.661  0.00  0.00    +0.000 A 
ATOM     22  C   UNL     1       3.805   6.601  17.699  0.00  0.00    +0.000 A 
ATOM     23  C   UNL     1       3.717   5.756  18.800  0.00  0.00    +0.000 A 
ATOM     24  C   UNL     1       2.916   6.098  19.891  0.00  0.00    +0.000 A 
ATOM     25  C   UNL     1       2.183   7.297  19.836  0.00  0.00    +0.000 A 
ATOM     26  S   UNL     1       1.117   7.947  21.011  0.00  0.00    +0.000 S 
ENDBRANCH  17  18
ENDBRANCH  15  17
TORSDOF 2
ENDMDL
MODEL 9
REMARK VINA RESULT:      -6.9      5.193      7.948
REMARK  Name = 
REMARK  2 active torsions:
REMARK  status: ('A' for Active; 'I' for Inactive)
REMARK    1  A    between atoms: N_15  and  C_16
REMARK    2  A    between atoms: C_16  and  C_17
REMARK                            x       y       z     vdW  Elec       q    Type
REMARK                         _______ _______ _______ _____ _____    ______ ____
ROOT
ATOM      1  O   UNL     1       0.682  13.467  18.391  0.00  0.00    +0.000 OA
ATOM      2  C   UNL     1      -0.149  12.573  18.399  0.00  0.00    +0.000 C 
ATOM      3  N   UNL     1      -1.440  12.732  17.953  0.00  0.00    +0.000 N 
ATOM      4  C   UNL     1      -2.203  11.520  18.093  0.00  0.00    +0.000 C 
ATOM      5  C   UNL     1      -2.302  10.768  16.748  0.00  0.00    +0.000 C 
ATOM      6  C   UNL     1      -3.783  10.601  16.393  0.00  0.00    +0.000 C 
ATOM      7  C   UNL     1      -4.504  11.262  17.521  0.00  0.00    +0.000 A 
ATOM      8  C   UNL     1      -5.879  11.412  17.628  0.00  0.00    +0.000 A 
ATOM      9  C   UNL     1      -6.391  12.093  18.729  0.00  0.00    +0.000 A 
ATOM     10  C   UNL     1      -5.525  12.604  19.707  0.00  0.00    +0.000 A 
ATOM     11  C   UNL     1      -4.136  12.432  19.596  0.00  0.00    +0.000 A 
ATOM     12  C   UNL     1      -3.628  11.759  18.493  0.00  0.00    +0.000 A 
ATOM     13  C   UNL     1      -1.264  10.748  19.030  0.00  0.00    +0.000 C 
ATOM     14  O   UNL     1      -1.550   9.774  19.713  0.00  0.00    +0.000 OA
ATOM     15  N   UNL     1      -0.018  11.321  18.924  0.00  0.00    +0.000 N 
ATOM     16  H   UNL     1      -1.774  13.601  17.558  0.00  0.00    +0.000 HD
ENDROOT
BRANCH  15  17
ATOM     17  C   UNL     1       1.143  10.914  19.681  0.00  0.00    +0.000 C 
BRANCH  17  18
ATOM     18  C   UNL     1       1.504   9.453  19.543  0.00  0.00    +0.000 A 
ATOM     19  N   UNL     1       2.017   8.826  18.499  0.00  0.00    +0.000 NA
ATOM     20  C   UNL     1       2.204   7.472  18.799  0.00  0.00    +0.000 A 
ATOM     21  C   UNL     1       2.697   6.467  17.932  0.00  0.00    +0.000 A 
ATOM     22  C   UNL     1       2.784   5.135  18.372  0.00  0.00    +0.000 A 
ATOM     23  C   UNL     1       2.408   4.791  19.666  0.00  0.00    +0.000 A 
ATOM     24  C   UNL     1       1.950   5.768  20.552  0.00  0.00    +0.000 A 
ATOM     25  C   UNL     1       1.851   7.094  20.096  0.00  0.00    +0.000 A 
ATOM     26  S   UNL     1       1.308   8.476  20.954  0.00  0.00    +0.000 S 
ENDBRANCH  17  18
ENDBRANCH  15  17
TORSDOF 2
ENDMDL
