MODEL 1
REMARK VINA RESULT:      -8.4      0.000      0.000
REMARK  Name = 
REMARK  4 active torsions:
REMARK  status: ('A' for Active; 'I' for Inactive)
REMARK    1  A    between atoms: C_1  and  C_2
REMARK    2  A    between atoms: C_2  and  C_3
REMARK    3  A    between atoms: C_13  and  C_15
REMARK    4  A    between atoms: C_20  and  C_21
REMARK                            x       y       z     vdW  Elec       q    Type
REMARK                         _______ _______ _______ _____ _____    ______ ____
ROOT
ATOM      1  C   UNL     1       1.667  11.972  18.857  0.00  0.00    +0.000 C 
ATOM      2  C   UNL     1       1.073  10.548  18.926  0.00  0.00    +0.000 C 
ATOM      3  C   UNL     1       1.882   9.658  17.954  0.00  0.00    +0.000 C 
ATOM      4  C   UNL     1       1.506   8.187  18.070  0.00  0.00    +0.000 C 
ATOM      5  N   UNL     1       1.664   7.691  19.433  0.00  0.00    +0.000 N 
ATOM      6  C   UNL     1       2.248   6.464  19.804  0.00  0.00    +0.000 C 
ATOM      7  O   UNL     1       2.436   6.188  20.988  0.00  0.00    +0.000 OA
ATOM      8  C   UNL     1       1.001   8.485  20.468  0.00  0.00    +0.000 C 
ATOM      9  C   UNL     1       1.342   9.974  20.348  0.00  0.00    +0.000 C 
ENDROOT
BRANCH   6  10
ATOM     10  C   UNL     1       2.591   5.510  18.753  0.00  0.00    +0.000 A 
ATOM     11  C   UNL     1       1.929   4.316  18.391  0.00  0.00    +0.000 A 
ATOM     12  N   UNL     1       2.476   3.689  17.354  0.00  0.00    +0.000 NA
ATOM     13  N   UNL     1       3.583   4.413  17.089  0.00  0.00    +0.000 N 
ATOM     14  C   UNL     1       4.519   4.135  16.104  0.00  0.00    +0.000 A 
ATOM     15  C   UNL     1       5.604   4.910  15.956  0.00  0.00    +0.000 A 
ATOM     16  C   UNL     1       5.686   6.043  16.930  0.00  0.00    +0.000 A 
ATOM     17  N   UNL     1       4.801   6.347  17.841  0.00  0.00    +0.000 NA
ATOM     18  C   UNL     1       3.714   5.518  17.937  0.00  0.00    +0.000 A 
BRANCH  15  19
ATOM     19  C   UNL     1       6.657   4.695  14.941  0.00  0.00    +0.000 C 
ATOM     20  N   UNL     1       6.481   3.689  14.041  0.00  0.00    +0.000 N 
ATOM     21  O   UNL     1       7.659   5.400  14.895  0.00  0.00    +0.000 OA
ATOM     22  H   UNL     1       5.684   3.076  13.988  0.00  0.00    +0.000 HD
ATOM     23  H   UNL     1       7.211   3.565  13.349  0.00  0.00    +0.000 HD
ENDBRANCH  15  19
ENDBRANCH   6  10
BRANCH   2  24
ATOM     24  C   UNL     1      -0.424  10.663  18.555  0.00  0.00    +0.000 A 
ATOM     25  C   UNL     1      -1.324  11.393  19.353  0.00  0.00    +0.000 A 
ATOM     26  C   UNL     1      -2.669  11.539  18.999  0.00  0.00    +0.000 A 
ATOM     27  C   UNL     1      -3.153  10.969  17.827  0.00  0.00    +0.000 A 
ATOM     28  C   UNL     1      -2.285  10.254  17.013  0.00  0.00    +0.000 A 
ATOM     29 CL   UNL     1      -2.866   9.556  15.551  0.00  0.00    +0.000 Cl
ATOM     30  C   UNL     1      -0.938  10.105  17.365  0.00  0.00    +0.000 A 
ENDBRANCH   2  24
TORSDOF 3
ENDMDL
MODEL 2
REMARK VINA RESULT:      -8.3      2.516      3.223
REMARK  Name = 
REMARK  4 active torsions:
REMARK  status: ('A' for Active; 'I' for Inactive)
REMARK    1  A    between atoms: C_1  and  C_2
REMARK    2  A    between atoms: C_2  and  C_3
REMARK    3  A    between atoms: C_13  and  C_15
REMARK    4  A    between atoms: C_20  and  C_21
REMARK                            x       y       z     vdW  Elec       q    Type
REMARK                         _______ _______ _______ _____ _____    ______ ____
ROOT
ATOM      1  C   UNL     1      -0.463  13.505  18.888  0.00  0.00    +0.000 C 
ATOM      2  C   UNL     1      -0.659  11.976  18.975  0.00  0.00    +0.000 C 
ATOM      3  C   UNL     1       0.545  11.311  18.267  0.00  0.00    +0.000 C 
ATOM      4  C   UNL     1       0.557   9.799  18.448  0.00  0.00    +0.000 C 
ATOM      5  N   UNL     1       0.549   9.419  19.857  0.00  0.00    +0.000 N 
ATOM      6  C   UNL     1       1.345   8.419  20.448  0.00  0.00    +0.000 C 
ATOM      7  O   UNL     1       1.344   8.252  21.666  0.00  0.00    +0.000 OA
ATOM      8  C   UNL     1      -0.505  10.035  20.663  0.00  0.00    +0.000 C 
ATOM      9  C   UNL     1      -0.554  11.554  20.471  0.00  0.00    +0.000 C 
ENDROOT
BRANCH   6  10
ATOM     10  C   UNL     1       2.144   7.560  19.579  0.00  0.00    +0.000 A 
ATOM     11  C   UNL     1       2.725   7.863  18.327  0.00  0.00    +0.000 A 
ATOM     12  N   UNL     1       3.432   6.865  17.806  0.00  0.00    +0.000 NA
ATOM     13  N   UNL     1       3.232   5.845  18.666  0.00  0.00    +0.000 N 
ATOM     14  C   UNL     1       3.738   4.561  18.535  0.00  0.00    +0.000 A 
ATOM     15  C   UNL     1       3.440   3.615  19.439  0.00  0.00    +0.000 A 
ATOM     16  C   UNL     1       2.540   4.080  20.539  0.00  0.00    +0.000 A 
ATOM     17  N   UNL     1       2.079   5.292  20.704  0.00  0.00    +0.000 NA
ATOM     18  C   UNL     1       2.425   6.211  19.748  0.00  0.00    +0.000 A 
BRANCH  15  19
ATOM     19  C   UNL     1       3.927   2.220  19.386  0.00  0.00    +0.000 C 
ATOM     20  N   UNL     1       3.316   1.363  18.522  0.00  0.00    +0.000 N 
ATOM     21  O   UNL     1       4.857   1.837  20.085  0.00  0.00    +0.000 OA
ATOM     22  H   UNL     1       2.562   1.592  17.895  0.00  0.00    +0.000 HD
ATOM     23  H   UNL     1       3.671   0.414  18.496  0.00  0.00    +0.000 HD
ENDBRANCH  15  19
ENDBRANCH   6  10
BRANCH   2  24
ATOM     24  C   UNL     1      -2.018  11.654  18.313  0.00  0.00    +0.000 A 
ATOM     25  C   UNL     1      -3.235  11.910  18.973  0.00  0.00    +0.000 A 
ATOM     26  C   UNL     1      -4.469  11.662  18.361  0.00  0.00    +0.000 A 
ATOM     27  C   UNL     1      -4.523  11.165  17.064  0.00  0.00    +0.000 A 
ATOM     28  C   UNL     1      -3.338  10.916  16.385  0.00  0.00    +0.000 A 
ATOM     29 CL   UNL     1      -3.390  10.313  14.773  0.00  0.00    +0.000 Cl
ATOM     30  C   UNL     1      -2.102  11.160  16.994  0.00  0.00    +0.000 A 
ENDBRANCH   2  24
TORSDOF 3
ENDMDL
MODEL 3
REMARK VINA RESULT:      -8.1      1.179      1.484
REMARK  Name = 
REMARK  4 active torsions:
REMARK  status: ('A' for Active; 'I' for Inactive)
REMARK    1  A    between atoms: C_1  and  C_2
REMARK    2  A    between atoms: C_2  and  C_3
REMARK    3  A    between atoms: C_13  and  C_15
REMARK    4  A    between atoms: C_20  and  C_21
REMARK                            x       y       z     vdW  Elec       q    Type
REMARK                         _______ _______ _______ _____ _____    ______ ____
ROOT
ATOM      1  C   UNL     1       1.695  12.004  18.841  0.00  0.00    +0.000 C 
ATOM      2  C   UNL     1       1.092  10.584  18.919  0.00  0.00    +0.000 C 
ATOM      3  C   UNL     1       1.903   9.681  17.960  0.00  0.00    +0.000 C 
ATOM      4  C   UNL     1       1.518   8.213  18.087  0.00  0.00    +0.000 C 
ATOM      5  N   UNL     1       1.666   7.728  19.455  0.00  0.00    +0.000 N 
ATOM      6  C   UNL     1       2.241   6.501  19.840  0.00  0.00    +0.000 C 
ATOM      7  O   UNL     1       2.420   6.235  21.027  0.00  0.00    +0.000 OA
ATOM      8  C   UNL     1       1.000   8.534  20.478  0.00  0.00    +0.000 C 
ATOM      9  C   UNL     1       1.350  10.020  20.348  0.00  0.00    +0.000 C 
ENDROOT
BRANCH   6  10
ATOM     10  C   UNL     1       2.585   5.537  18.800  0.00  0.00    +0.000 A 
ATOM     11  C   UNL     1       1.937   4.327  18.464  0.00  0.00    +0.000 A 
ATOM     12  N   UNL     1       2.481   3.693  17.430  0.00  0.00    +0.000 NA
ATOM     13  N   UNL     1       3.573   4.429  17.139  0.00  0.00    +0.000 N 
ATOM     14  C   UNL     1       4.501   4.150  16.148  0.00  0.00    +0.000 A 
ATOM     15  C   UNL     1       5.572   4.940  15.973  0.00  0.00    +0.000 A 
ATOM     16  C   UNL     1       5.648   6.088  16.929  0.00  0.00    +0.000 A 
ATOM     17  N   UNL     1       4.770   6.393  17.847  0.00  0.00    +0.000 NA
ATOM     18  C   UNL     1       3.697   5.549  17.969  0.00  0.00    +0.000 A 
BRANCH  15  19
ATOM     19  C   UNL     1       6.615   4.725  14.948  0.00  0.00    +0.000 C 
ATOM     20  N   UNL     1       7.683   5.569  14.937  0.00  0.00    +0.000 N 
ATOM     21  O   UNL     1       6.538   3.812  14.134  0.00  0.00    +0.000 OA
ATOM     22  H   UNL     1       7.843   6.330  15.577  0.00  0.00    +0.000 HD
ATOM     23  H   UNL     1       8.391   5.399  14.232  0.00  0.00    +0.000 HD
ENDBRANCH  15  19
ENDBRANCH   6  10
BRANCH   2  24
ATOM     24  C   UNL     1      -0.401  10.703  18.538  0.00  0.00    +0.000 A 
ATOM     25  C   UNL     1      -0.951   9.951  17.482  0.00  0.00    +0.000 A 
ATOM     26  C   UNL     1      -2.311  10.021  17.161  0.00  0.00    +0.000 A 
ATOM     27  C   UNL     1      -3.166  10.834  17.897  0.00  0.00    +0.000 A 
ATOM     28  C   UNL     1      -2.653  11.576  18.952  0.00  0.00    +0.000 A 
ATOM     29 CL   UNL     1      -3.702  12.577  19.880  0.00  0.00    +0.000 Cl
ATOM     30  C   UNL     1      -1.293  11.511  19.274  0.00  0.00    +0.000 A 
ENDBRANCH   2  24
TORSDOF 3
ENDMDL
MODEL 4
REMARK VINA RESULT:      -8.1      2.727      3.528
REMARK  Name = 
REMARK  4 active torsions:
REMARK  status: ('A' for Active; 'I' for Inactive)
REMARK    1  A    between atoms: C_1  and  C_2
REMARK    2  A    between atoms: C_2  and  C_3
REMARK    3  A    between atoms: C_13  and  C_15
REMARK    4  A    between atoms: C_20  and  C_21
REMARK                            x       y       z     vdW  Elec       q    Type
REMARK                         _______ _______ _______ _____ _____    ______ ____
ROOT
ATOM      1  C   UNL     1      -0.416  13.629  18.977  0.00  0.00    +0.000 C 
ATOM      2  C   UNL     1      -0.631  12.101  19.047  0.00  0.00    +0.000 C 
ATOM      3  C   UNL     1       0.557  11.430  18.316  0.00  0.00    +0.000 C 
ATOM      4  C   UNL     1       0.550   9.915  18.476  0.00  0.00    +0.000 C 
ATOM      5  N   UNL     1       0.554   9.517  19.879  0.00  0.00    +0.000 N 
ATOM      6  C   UNL     1       1.344   8.499  20.448  0.00  0.00    +0.000 C 
ATOM      7  O   UNL     1       1.355   8.315  21.664  0.00  0.00    +0.000 OA
ATOM      8  C   UNL     1      -0.483  10.135  20.706  0.00  0.00    +0.000 C 
ATOM      9  C   UNL     1      -0.514  11.657  20.535  0.00  0.00    +0.000 C 
ENDROOT
BRANCH   6  10
ATOM     10  C   UNL     1       2.121   7.641  19.558  0.00  0.00    +0.000 A 
ATOM     11  C   UNL     1       2.691   7.953  18.303  0.00  0.00    +0.000 A 
ATOM     12  N   UNL     1       3.379   6.953  17.761  0.00  0.00    +0.000 NA
ATOM     13  N   UNL     1       3.176   5.925  18.610  0.00  0.00    +0.000 N 
ATOM     14  C   UNL     1       3.663   4.636  18.456  0.00  0.00    +0.000 A 
ATOM     15  C   UNL     1       3.364   3.682  19.351  0.00  0.00    +0.000 A 
ATOM     16  C   UNL     1       2.483   4.144  20.468  0.00  0.00    +0.000 A 
ATOM     17  N   UNL     1       2.040   5.360  20.654  0.00  0.00    +0.000 NA
ATOM     18  C   UNL     1       2.387   6.287  19.707  0.00  0.00    +0.000 A 
BRANCH  15  19
ATOM     19  C   UNL     1       3.832   2.282  19.274  0.00  0.00    +0.000 C 
ATOM     20  N   UNL     1       4.994   1.961  19.906  0.00  0.00    +0.000 N 
ATOM     21  O   UNL     1       3.198   1.425  18.670  0.00  0.00    +0.000 OA
ATOM     22  H   UNL     1       5.569   2.590  20.442  0.00  0.00    +0.000 HD
ATOM     23  H   UNL     1       5.292   0.994  19.847  0.00  0.00    +0.000 HD
ENDBRANCH  15  19
ENDBRANCH   6  10
BRANCH   2  24
ATOM     24  C   UNL     1      -2.001  11.805  18.396  0.00  0.00    +0.000 A 
ATOM     25  C   UNL     1      -2.098  11.300  17.086  0.00  0.00    +0.000 A 
ATOM     26  C   UNL     1      -3.333  10.988  16.508  0.00  0.00    +0.000 A 
ATOM     27  C   UNL     1      -4.510  11.158  17.229  0.00  0.00    +0.000 A 
ATOM     28  C   UNL     1      -4.443  11.642  18.528  0.00  0.00    +0.000 A 
ATOM     29 CL   UNL     1      -5.890  11.844  19.438  0.00  0.00    +0.000 Cl
ATOM     30  C   UNL     1      -3.209  11.957  19.109  0.00  0.00    +0.000 A 
ENDBRANCH   2  24
TORSDOF 3
ENDMDL
MODEL 5
REMARK VINA RESULT:      -7.7      2.454      3.336
REMARK  Name = 
REMARK  4 active torsions:
REMARK  status: ('A' for Active; 'I' for Inactive)
REMARK    1  A    between atoms: C_1  and  C_2
REMARK    2  A    between atoms: C_2  and  C_3
REMARK    3  A    between atoms: C_13  and  C_15
REMARK    4  A    between atoms: C_20  and  C_21
REMARK                            x       y       z     vdW  Elec       q    Type
REMARK                         _______ _______ _______ _____ _____    ______ ____
ROOT
ATOM      1  C   UNL     1      -0.817  13.882  19.913  0.00  0.00    +0.000 C 
ATOM      2  C   UNL     1      -0.975  12.349  19.811  0.00  0.00    +0.000 C 
ATOM      3  C   UNL     1       0.198  11.816  18.955  0.00  0.00    +0.000 C 
ATOM      4  C   UNL     1       0.251  10.294  18.936  0.00  0.00    +0.000 C 
ATOM      5  N   UNL     1       0.337   9.735  20.281  0.00  0.00    +0.000 N 
ATOM      6  C   UNL     1       1.188   8.690  20.690  0.00  0.00    +0.000 C 
ATOM      7  O   UNL     1       1.265   8.368  21.875  0.00  0.00    +0.000 OA
ATOM      8  C   UNL     1      -0.679  10.212  21.220  0.00  0.00    +0.000 C 
ATOM      9  C   UNL     1      -0.771  11.741  21.231  0.00  0.00    +0.000 C 
ENDROOT
BRANCH   6  10
ATOM     10  C   UNL     1       1.950   7.974  19.672  0.00  0.00    +0.000 A 
ATOM     11  C   UNL     1       2.437   8.448  18.433  0.00  0.00    +0.000 A 
ATOM     12  N   UNL     1       3.135   7.548  17.749  0.00  0.00    +0.000 NA
ATOM     13  N   UNL     1       3.021   6.424  18.486  0.00  0.00    +0.000 N 
ATOM     14  C   UNL     1       3.553   5.184  18.164  0.00  0.00    +0.000 A 
ATOM     15  C   UNL     1       3.343   4.125  18.960  0.00  0.00    +0.000 A 
ATOM     16  C   UNL     1       2.506   4.419  20.164  0.00  0.00    +0.000 A 
ATOM     17  N   UNL     1       2.025   5.584  20.508  0.00  0.00    +0.000 NA
ATOM     18  C   UNL     1       2.280   6.625  19.654  0.00  0.00    +0.000 A 
BRANCH  15  19
ATOM     19  C   UNL     1       3.864   2.765  18.703  0.00  0.00    +0.000 C 
ATOM     20  N   UNL     1       4.905   2.326  19.462  0.00  0.00    +0.000 N 
ATOM     21  O   UNL     1       3.376   2.042  17.842  0.00  0.00    +0.000 OA
ATOM     22  H   UNL     1       5.355   2.838  20.203  0.00  0.00    +0.000 HD
ATOM     23  H   UNL     1       5.241   1.388  19.274  0.00  0.00    +0.000 HD
ENDBRANCH  15  19
ENDBRANCH   6  10
BRANCH   2  24
ATOM     24  C   UNL     1      -2.365  12.076  19.192  0.00  0.00    +0.000 A 
ATOM     25  C   UNL     1      -3.550  12.416  19.871  0.00  0.00    +0.000 A 
ATOM     26  C   UNL     1      -4.810  12.213  19.297  0.00  0.00    +0.000 A 
ATOM     27  C   UNL     1      -4.921  11.678  18.019  0.00  0.00    +0.000 A 
ATOM     28  C   UNL     1      -3.769  11.346  17.321  0.00  0.00    +0.000 A 
ATOM     29 CL   UNL     1      -3.891  10.695  15.732  0.00  0.00    +0.000 Cl
ATOM     30  C   UNL     1      -2.507  11.545  17.893  0.00  0.00    +0.000 A 
ENDBRANCH   2  24
TORSDOF 3
ENDMDL
MODEL 6
REMARK VINA RESULT:      -7.4      2.945      5.142
REMARK  Name = 
REMARK  4 active torsions:
REMARK  status: ('A' for Active; 'I' for Inactive)
REMARK    1  A    between atoms: C_1  and  C_2
REMARK    2  A    between atoms: C_2  and  C_3
REMARK    3  A    between atoms: C_13  and  C_15
REMARK    4  A    between atoms: C_20  and  C_21
REMARK                            x       y       z     vdW  Elec       q    Type
REMARK                         _______ _______ _______ _____ _____    ______ ____
ROOT
ATOM      1  C   UNL     1      -3.761  10.403  14.932  0.00  0.00    +0.000 C 
ATOM      2  C   UNL     1      -3.346  10.712  16.387  0.00  0.00    +0.000 C 
ATOM      3  C   UNL     1      -2.590   9.475  16.928  0.00  0.00    +0.000 C 
ATOM      4  C   UNL     1      -1.971   9.731  18.296  0.00  0.00    +0.000 C 
ATOM      5  N   UNL     1      -1.074  10.882  18.281  0.00  0.00    +0.000 N 
ATOM      6  C   UNL     1       0.197  10.948  18.883  0.00  0.00    +0.000 C 
ATOM      7  O   UNL     1       0.923  11.927  18.717  0.00  0.00    +0.000 OA
ATOM      8  C   UNL     1      -1.644  12.110  17.726  0.00  0.00    +0.000 C 
ATOM      9  C   UNL     1      -2.301  11.867  16.363  0.00  0.00    +0.000 C 
ENDROOT
BRANCH   6  10
ATOM     10  C   UNL     1       0.620   9.844  19.739  0.00  0.00    +0.000 A 
ATOM     11  C   UNL     1       0.429   9.678  21.129  0.00  0.00    +0.000 A 
ATOM     12  N   UNL     1       0.903   8.531  21.605  0.00  0.00    +0.000 NA
ATOM     13  N   UNL     1       1.517   7.971  20.543  0.00  0.00    +0.000 N 
ATOM     14  C   UNL     1       2.206   6.768  20.545  0.00  0.00    +0.000 A 
ATOM     15  C   UNL     1       2.810   6.326  19.431  0.00  0.00    +0.000 A 
ATOM     16  C   UNL     1       2.669   7.239  18.254  0.00  0.00    +0.000 A 
ATOM     17  N   UNL     1       1.997   8.359  18.218  0.00  0.00    +0.000 NA
ATOM     18  C   UNL     1       1.399   8.750  19.387  0.00  0.00    +0.000 A 
BRANCH  15  19
ATOM     19  C   UNL     1       3.568   5.061  19.332  0.00  0.00    +0.000 C 
ATOM     20  N   UNL     1       4.928   5.129  19.340  0.00  0.00    +0.000 N 
ATOM     21  O   UNL     1       3.002   3.977  19.255  0.00  0.00    +0.000 OA
ATOM     22  H   UNL     1       5.478   5.968  19.422  0.00  0.00    +0.000 HD
ATOM     23  H   UNL     1       5.428   4.249  19.280  0.00  0.00    +0.000 HD
ENDBRANCH  15  19
ENDBRANCH   6  10
BRANCH   2  24
ATOM     24  C   UNL     1      -4.639  11.035  17.170  0.00  0.00    +0.000 A 
ATOM     25  C   UNL     1      -5.339  12.240  16.966  0.00  0.00    +0.000 A 
ATOM     26  C   UNL     1      -6.534  12.518  17.638  0.00  0.00    +0.000 A 
ATOM     27  C   UNL     1      -7.074  11.593  18.524  0.00  0.00    +0.000 A 
ATOM     28  C   UNL     1      -6.412  10.391  18.735  0.00  0.00    +0.000 A 
ATOM     29 CL   UNL     1      -7.076   9.230  19.818  0.00  0.00    +0.000 Cl
ATOM     30  C   UNL     1      -5.215  10.110  18.066  0.00  0.00    +0.000 A 
ENDBRANCH   2  24
TORSDOF 3
ENDMDL
MODEL 7
REMARK VINA RESULT:      -7.4      2.789      3.807
REMARK  Name = 
REMARK  4 active torsions:
REMARK  status: ('A' for Active; 'I' for Inactive)
REMARK    1  A    between atoms: C_1  and  C_2
REMARK    2  A    between atoms: C_2  and  C_3
REMARK    3  A    between atoms: C_13  and  C_15
REMARK    4  A    between atoms: C_20  and  C_21
REMARK                            x       y       z     vdW  Elec       q    Type
REMARK                         _______ _______ _______ _____ _____    ______ ____
ROOT
ATOM      1  C   UNL     1      -1.076  14.058  20.015  0.00  0.00    +0.000 C 
ATOM      2  C   UNL     1      -1.198  12.520  19.945  0.00  0.00    +0.000 C 
ATOM      3  C   UNL     1      -0.064  12.004  19.027  0.00  0.00    +0.000 C 
ATOM      4  C   UNL     1       0.030  10.483  19.027  0.00  0.00    +0.000 C 
ATOM      5  N   UNL     1       0.211   9.949  20.373  0.00  0.00    +0.000 N 
ATOM      6  C   UNL     1       1.113   8.934  20.746  0.00  0.00    +0.000 C 
ATOM      7  O   UNL     1       1.269   8.633  21.928  0.00  0.00    +0.000 OA
ATOM      8  C   UNL     1      -0.760  10.414  21.364  0.00  0.00    +0.000 C 
ATOM      9  C   UNL     1      -0.893  11.940  21.358  0.00  0.00    +0.000 C 
ENDROOT
BRANCH   6  10
ATOM     10  C   UNL     1       1.833   8.222  19.694  0.00  0.00    +0.000 A 
ATOM     11  C   UNL     1       2.227   8.687  18.420  0.00  0.00    +0.000 A 
ATOM     12  N   UNL     1       2.909   7.795  17.709  0.00  0.00    +0.000 NA
ATOM     13  N   UNL     1       2.877   6.683  18.470  0.00  0.00    +0.000 N 
ATOM     14  C   UNL     1       3.426   5.454  18.137  0.00  0.00    +0.000 A 
ATOM     15  C   UNL     1       3.299   4.403  18.963  0.00  0.00    +0.000 A 
ATOM     16  C   UNL     1       2.530   4.696  20.212  0.00  0.00    +0.000 A 
ATOM     17  N   UNL     1       2.034   5.852  20.564  0.00  0.00    +0.000 NA
ATOM     18  C   UNL     1       2.203   6.884  19.679  0.00  0.00    +0.000 A 
BRANCH  15  19
ATOM     19  C   UNL     1       3.846   3.056  18.697  0.00  0.00    +0.000 C 
ATOM     20  N   UNL     1       4.951   2.667  19.389  0.00  0.00    +0.000 N 
ATOM     21  O   UNL     1       3.323   2.299  17.887  0.00  0.00    +0.000 OA
ATOM     22  H   UNL     1       5.434   3.209  20.086  0.00  0.00    +0.000 HD
ATOM     23  H   UNL     1       5.304   1.736  19.197  0.00  0.00    +0.000 HD
ENDBRANCH  15  19
ENDBRANCH   6  10
BRANCH   2  24
ATOM     24  C   UNL     1      -2.614  12.200  19.414  0.00  0.00    +0.000 A 
ATOM     25  C   UNL     1      -2.804  11.490  18.214  0.00  0.00    +0.000 A 
ATOM     26  C   UNL     1      -4.082  11.158  17.751  0.00  0.00    +0.000 A 
ATOM     27  C   UNL     1      -5.209  11.515  18.483  0.00  0.00    +0.000 A 
ATOM     28  C   UNL     1      -5.050  12.205  19.677  0.00  0.00    +0.000 A 
ATOM     29 CL   UNL     1      -6.436  12.640  20.600  0.00  0.00    +0.000 Cl
ATOM     30  C   UNL     1      -3.774  12.540  20.142  0.00  0.00    +0.000 A 
ENDBRANCH   2  24
TORSDOF 3
ENDMDL
MODEL 8
REMARK VINA RESULT:      -7.3      3.920      8.348
REMARK  Name = 
REMARK  4 active torsions:
REMARK  status: ('A' for Active; 'I' for Inactive)
REMARK    1  A    between atoms: C_1  and  C_2
REMARK    2  A    between atoms: C_2  and  C_3
REMARK    3  A    between atoms: C_13  and  C_15
REMARK    4  A    between atoms: C_20  and  C_21
REMARK                            x       y       z     vdW  Elec       q    Type
REMARK                         _______ _______ _______ _____ _____    ______ ____
ROOT
ATOM      1  C   UNL     1       2.390   4.135  17.856  0.00  0.00    +0.000 C 
ATOM      2  C   UNL     1       2.774   5.543  18.363  0.00  0.00    +0.000 C 
ATOM      3  C   UNL     1       1.811   6.555  17.699  0.00  0.00    +0.000 C 
ATOM      4  C   UNL     1       1.974   7.961  18.263  0.00  0.00    +0.000 C 
ATOM      5  N   UNL     1       1.791   7.990  19.711  0.00  0.00    +0.000 N 
ATOM      6  C   UNL     1       1.049   8.946  20.431  0.00  0.00    +0.000 C 
ATOM      7  O   UNL     1       0.862   8.818  21.640  0.00  0.00    +0.000 OA
ATOM      8  C   UNL     1       2.597   7.027  20.462  0.00  0.00    +0.000 C 
ATOM      9  C   UNL     1       2.472   5.612  19.889  0.00  0.00    +0.000 C 
ENDROOT
BRANCH   6  10
ATOM     10  C   UNL     1       0.536  10.112  19.717  0.00  0.00    +0.000 A 
ATOM     11  C   UNL     1       1.032  11.435  19.710  0.00  0.00    +0.000 A 
ATOM     12  N   UNL     1       0.355  12.259  18.918  0.00  0.00    +0.000 NA
ATOM     13  N   UNL     1      -0.673  11.508  18.473  0.00  0.00    +0.000 N 
ATOM     14  C   UNL     1      -1.691  11.938  17.636  0.00  0.00    +0.000 A 
ATOM     15  C   UNL     1      -2.685  11.106  17.288  0.00  0.00    +0.000 A 
ATOM     16  C   UNL     1      -2.577   9.739  17.884  0.00  0.00    +0.000 A 
ATOM     17  N   UNL     1      -1.610   9.299  18.646  0.00  0.00    +0.000 NA
ATOM     18  C   UNL     1      -0.624  10.197  18.959  0.00  0.00    +0.000 A 
BRANCH  15  19
ATOM     19  C   UNL     1      -3.814  11.470  16.405  0.00  0.00    +0.000 C 
ATOM     20  N   UNL     1      -4.765  12.309  16.898  0.00  0.00    +0.000 N 
ATOM     21  O   UNL     1      -3.896  11.043  15.259  0.00  0.00    +0.000 OA
ATOM     22  H   UNL     1      -4.770  12.725  17.815  0.00  0.00    +0.000 HD
ATOM     23  H   UNL     1      -5.526  12.552  16.273  0.00  0.00    +0.000 HD
ENDBRANCH  15  19
ENDBRANCH   6  10
BRANCH   2  24
ATOM     24  C   UNL     1       4.257   5.769  17.993  0.00  0.00    +0.000 A 
ATOM     25  C   UNL     1       4.632   6.251  16.725  0.00  0.00    +0.000 A 
ATOM     26  C   UNL     1       5.970   6.501  16.399  0.00  0.00    +0.000 A 
ATOM     27  C   UNL     1       6.973   6.290  17.339  0.00  0.00    +0.000 A 
ATOM     28  C   UNL     1       6.630   5.828  18.602  0.00  0.00    +0.000 A 
ATOM     29 CL   UNL     1       7.860   5.577  19.780  0.00  0.00    +0.000 Cl
ATOM     30  C   UNL     1       5.294   5.575  18.931  0.00  0.00    +0.000 A 
ENDBRANCH   2  24
TORSDOF 3
ENDMDL
MODEL 9
REMARK VINA RESULT:      -7.2      3.552      8.687
REMARK  Name = 
REMARK  4 active torsions:
REMARK  status: ('A' for Active; 'I' for Inactive)
REMARK    1  A    between atoms: C_1  and  C_2
REMARK    2  A    between atoms: C_2  and  C_3
REMARK    3  A    between atoms: C_13  and  C_15
REMARK    4  A    between atoms: C_20  and  C_21
REMARK                            x       y       z     vdW  Elec       q    Type
REMARK                         _______ _______ _______ _____ _____    ______ ____
ROOT
ATOM      1  C   UNL     1       2.602   2.725  17.732  0.00  0.00    +0.000 C 
ATOM      2  C   UNL     1       3.105   4.130  18.130  0.00  0.00    +0.000 C 
ATOM      3  C   UNL     1       2.095   5.161  17.572  0.00  0.00    +0.000 C 
ATOM      4  C   UNL     1       2.387   6.574  18.058  0.00  0.00    +0.000 C 
ATOM      5  N   UNL     1       2.412   6.655  19.515  0.00  0.00    +0.000 N 
ATOM      6  C   UNL     1       1.814   7.662  20.297  0.00  0.00    +0.000 C 
ATOM      7  O   UNL     1       1.796   7.578  21.524  0.00  0.00    +0.000 OA
ATOM      8  C   UNL     1       3.281   5.683  20.179  0.00  0.00    +0.000 C 
ATOM      9  C   UNL     1       3.024   4.257  19.681  0.00  0.00    +0.000 C 
ENDROOT
BRANCH   6  10
ATOM     10  C   UNL     1       1.248   8.825  19.621  0.00  0.00    +0.000 A 
ATOM     11  C   UNL     1       1.487   9.290  18.308  0.00  0.00    +0.000 A 
ATOM     12  N   UNL     1       0.777  10.364  17.980  0.00  0.00    +0.000 NA
ATOM     13  N   UNL     1       0.137  10.689  19.122  0.00  0.00    +0.000 N 
ATOM     14  C   UNL     1      -0.707  11.775  19.299  0.00  0.00    +0.000 A 
ATOM     15  C   UNL     1      -1.261  12.019  20.497  0.00  0.00    +0.000 A 
ATOM     16  C   UNL     1      -0.876  11.042  21.561  0.00  0.00    +0.000 A 
ATOM     17  N   UNL     1      -0.113   9.992  21.411  0.00  0.00    +0.000 NA
ATOM     18  C   UNL     1       0.417   9.797  20.162  0.00  0.00    +0.000 A 
BRANCH  15  19
ATOM     19  C   UNL     1      -2.169  13.149  20.787  0.00  0.00    +0.000 C 
ATOM     20  N   UNL     1      -3.208  13.369  19.934  0.00  0.00    +0.000 N 
ATOM     21  O   UNL     1      -2.009  13.868  21.766  0.00  0.00    +0.000 OA
ATOM     22  H   UNL     1      -3.431  12.821  19.120  0.00  0.00    +0.000 HD
ATOM     23  H   UNL     1      -3.823  14.144  20.156  0.00  0.00    +0.000 HD
ENDBRANCH  15  19
ENDBRANCH   6  10
BRANCH   2  24
ATOM     24  C   UNL     1       4.528   4.284  17.549  0.00  0.00    +0.000 A 
ATOM     25  C   UNL     1       5.634   4.554  18.377  0.00  0.00    +0.000 A 
ATOM     26  C   UNL     1       6.932   4.650  17.862  0.00  0.00    +0.000 A 
ATOM     27  C   UNL     1       7.164   4.465  16.504  0.00  0.00    +0.000 A 
ATOM     28  C   UNL     1       6.094   4.185  15.666  0.00  0.00    +0.000 A 
ATOM     29 CL   UNL     1       6.369   3.940  13.984  0.00  0.00    +0.000 Cl
ATOM     30  C   UNL     1       4.795   4.090  16.177  0.00  0.00    +0.000 A 
ENDBRANCH   2  24
TORSDOF 3
ENDMDL
