MODEL 1
REMARK VINA RESULT:      -8.3      0.000      0.000
REMARK  Name = 
REMARK  2 active torsions:
REMARK  status: ('A' for Active; 'I' for Inactive)
REMARK    1  A    between atoms: C_1  and  N_2
REMARK    2  A    between atoms: C_10  and  C_11
REMARK                            x       y       z     vdW  Elec       q    Type
REMARK                         _______ _______ _______ _____ _____    ______ ____
ROOT
ATOM      1  C   UNL     1       5.426   5.127  15.013  0.00  0.00    +0.000 C 
ATOM      2  N   UNL     1       5.717   5.565  16.366  0.00  0.00    +0.000 N 
ATOM      3  C   UNL     1       7.106   5.831  16.776  0.00  0.00    +0.000 C 
ATOM      4  C   UNL     1       7.629   4.756  17.725  0.00  0.00    +0.000 C 
ATOM      5  C   UNL     1       6.836   4.800  19.016  0.00  0.00    +0.000 C 
ATOM      6  O   UNL     1       7.297   5.222  20.071  0.00  0.00    +0.000 OA
ATOM      7  N   UNL     1       5.509   4.391  18.858  0.00  0.00    +0.000 N 
ATOM      8  C   UNL     1       4.642   5.469  18.532  0.00  0.00    +0.000 A 
ATOM      9  C   UNL     1       3.725   5.911  19.485  0.00  0.00    +0.000 A 
ATOM     10  C   UNL     1       2.842   6.947  19.166  0.00  0.00    +0.000 A 
ATOM     11  C   UNL     1       2.854   7.461  17.858  0.00  0.00    +0.000 A 
ATOM     12  C   UNL     1       3.773   6.983  16.895  0.00  0.00    +0.000 A 
ATOM     13  C   UNL     1       4.706   5.997  17.224  0.00  0.00    +0.000 A 
ATOM     14  H   UNL     1       5.500   3.789  18.036  0.00  0.00    +0.000 HD
ENDROOT
BRANCH  10  15
ATOM     15  C   UNL     1       1.906   7.522  20.205  0.00  0.00    +0.000 C 
ATOM     16  O   UNL     1       1.449   6.780  21.066  0.00  0.00    +0.000 OA
ATOM     17  N   UNL     1       1.639   8.862  20.016  0.00  0.00    +0.000 N 
ATOM     18  C   UNL     1       0.814   9.654  20.783  0.00  0.00    +0.000 A 
ATOM     19  N   UNL     1       0.149   9.427  21.896  0.00  0.00    +0.000 NA
ATOM     20  C   UNL     1      -0.579  10.580  22.145  0.00  0.00    +0.000 A 
ATOM     21  C   UNL     1      -1.489  10.901  23.168  0.00  0.00    +0.000 A 
ATOM     22  C   UNL     1      -2.139  12.148  23.136  0.00  0.00    +0.000 A 
ATOM     23  C   UNL     1      -1.881  13.068  22.114  0.00  0.00    +0.000 A 
ATOM     24  C   UNL     1      -0.953  12.783  21.112  0.00  0.00    +0.000 A 
ATOM     25  C   UNL     1      -0.330  11.536  21.168  0.00  0.00    +0.000 A 
ATOM     26  N   UNL     1       0.606  10.946  20.367  0.00  0.00    +0.000 N 
ATOM     27  H   UNL     1       1.988   9.286  19.172  0.00  0.00    +0.000 HD
ATOM     28  H   UNL     1       1.038  11.379  19.567  0.00  0.00    +0.000 HD
ENDBRANCH  10  15
TORSDOF 1
ENDMDL
MODEL 2
REMARK VINA RESULT:      -8.2      1.892      2.718
REMARK  Name = 
REMARK  2 active torsions:
REMARK  status: ('A' for Active; 'I' for Inactive)
REMARK    1  A    between atoms: C_1  and  N_2
REMARK    2  A    between atoms: C_10  and  C_11
REMARK                            x       y       z     vdW  Elec       q    Type
REMARK                         _______ _______ _______ _____ _____    ______ ____
ROOT
ATOM      1  C   UNL     1       5.500   3.680  16.296  0.00  0.00    +0.000 C 
ATOM      2  N   UNL     1       4.785   4.063  17.500  0.00  0.00    +0.000 N 
ATOM      3  C   UNL     1       5.013   3.336  18.760  0.00  0.00    +0.000 C 
ATOM      4  C   UNL     1       3.817   2.462  19.130  0.00  0.00    +0.000 C 
ATOM      5  C   UNL     1       2.619   3.347  19.412  0.00  0.00    +0.000 C 
ATOM      6  O   UNL     1       2.174   3.532  20.540  0.00  0.00    +0.000 OA
ATOM      7  N   UNL     1       2.134   3.993  18.271  0.00  0.00    +0.000 N 
ATOM      8  C   UNL     1       2.752   5.254  18.053  0.00  0.00    +0.000 A 
ATOM      9  C   UNL     1       2.007   6.414  18.251  0.00  0.00    +0.000 A 
ATOM     10  C   UNL     1       2.592   7.661  18.006  0.00  0.00    +0.000 A 
ATOM     11  C   UNL     1       3.897   7.700  17.489  0.00  0.00    +0.000 A 
ATOM     12  C   UNL     1       4.631   6.511  17.269  0.00  0.00    +0.000 A 
ATOM     13  C   UNL     1       4.081   5.264  17.576  0.00  0.00    +0.000 A 
ATOM     14  H   UNL     1       2.425   3.417  17.482  0.00  0.00    +0.000 HD
ENDROOT
BRANCH  10  15
ATOM     15  C   UNL     1       1.849   8.944  18.308  0.00  0.00    +0.000 C 
ATOM     16  O   UNL     1       1.923   9.872  17.513  0.00  0.00    +0.000 OA
ATOM     17  N   UNL     1       1.190   8.919  19.520  0.00  0.00    +0.000 N 
ATOM     18  C   UNL     1       0.449   9.938  20.075  0.00  0.00    +0.000 A 
ATOM     19  N   UNL     1       0.089  11.121  19.625  0.00  0.00    +0.000 NA
ATOM     20  C   UNL     1      -0.578  11.738  20.671  0.00  0.00    +0.000 A 
ATOM     21  C   UNL     1      -1.151  13.018  20.781  0.00  0.00    +0.000 A 
ATOM     22  C   UNL     1      -1.720  13.408  22.007  0.00  0.00    +0.000 A 
ATOM     23  C   UNL     1      -1.732  12.539  23.103  0.00  0.00    +0.000 A 
ATOM     24  C   UNL     1      -1.202  11.251  23.002  0.00  0.00    +0.000 A 
ATOM     25  C   UNL     1      -0.641  10.897  21.774  0.00  0.00    +0.000 A 
ATOM     26  N   UNL     1      -0.048   9.746  21.341  0.00  0.00    +0.000 N 
ATOM     27  H   UNL     1       1.353   8.124  20.116  0.00  0.00    +0.000 HD
ATOM     28  H   UNL     1       0.050   8.905  21.885  0.00  0.00    +0.000 HD
ENDBRANCH  10  15
TORSDOF 1
ENDMDL
MODEL 3
REMARK VINA RESULT:      -7.9      1.998      8.899
REMARK  Name = 
REMARK  2 active torsions:
REMARK  status: ('A' for Active; 'I' for Inactive)
REMARK    1  A    between atoms: C_1  and  N_2
REMARK    2  A    between atoms: C_10  and  C_11
REMARK                            x       y       z     vdW  Elec       q    Type
REMARK                         _______ _______ _______ _____ _____    ______ ____
ROOT
ATOM      1  C   UNL     1      -2.346  12.157  23.399  0.00  0.00    +0.000 C 
ATOM      2  N   UNL     1      -1.213  12.155  22.493  0.00  0.00    +0.000 N 
ATOM      3  C   UNL     1      -0.457  13.395  22.249  0.00  0.00    +0.000 C 
ATOM      4  C   UNL     1      -0.722  13.951  20.852  0.00  0.00    +0.000 C 
ATOM      5  C   UNL     1      -0.197  12.975  19.818  0.00  0.00    +0.000 C 
ATOM      6  O   UNL     1       0.808  13.186  19.147  0.00  0.00    +0.000 OA
ATOM      7  N   UNL     1      -0.924  11.782  19.771  0.00  0.00    +0.000 N 
ATOM      8  C   UNL     1      -0.412  10.796  20.657  0.00  0.00    +0.000 A 
ATOM      9  C   UNL     1       0.234   9.681  20.126  0.00  0.00    +0.000 A 
ATOM     10  C   UNL     1       0.712   8.686  20.985  0.00  0.00    +0.000 A 
ATOM     11  C   UNL     1       0.453   8.805  22.361  0.00  0.00    +0.000 A 
ATOM     12  C   UNL     1      -0.227   9.930  22.881  0.00  0.00    +0.000 A 
ATOM     13  C   UNL     1      -0.647  10.964  22.039  0.00  0.00    +0.000 A 
ATOM     14  H   UNL     1      -1.850  12.007  20.134  0.00  0.00    +0.000 HD
ENDROOT
BRANCH  10  15
ATOM     15  C   UNL     1       1.508   7.514  20.454  0.00  0.00    +0.000 C 
ATOM     16  O   UNL     1       1.562   6.486  21.117  0.00  0.00    +0.000 OA
ATOM     17  N   UNL     1       2.137   7.781  19.256  0.00  0.00    +0.000 N 
ATOM     18  C   UNL     1       2.943   6.926  18.541  0.00  0.00    +0.000 A 
ATOM     19  N   UNL     1       3.267   5.661  18.710  0.00  0.00    +0.000 NA
ATOM     20  C   UNL     1       4.187   5.368  17.715  0.00  0.00    +0.000 A 
ATOM     21  C   UNL     1       4.899   4.190  17.426  0.00  0.00    +0.000 A 
ATOM     22  C   UNL     1       5.831   4.197  16.373  0.00  0.00    +0.000 A 
ATOM     23  C   UNL     1       6.045   5.350  15.610  0.00  0.00    +0.000 A 
ATOM     24  C   UNL     1       5.321   6.517  15.856  0.00  0.00    +0.000 A 
ATOM     25  C   UNL     1       4.408   6.479  16.911  0.00  0.00    +0.000 A 
ATOM     26  N   UNL     1       3.556   7.419  17.415  0.00  0.00    +0.000 N 
ATOM     27  H   UNL     1       2.101   8.730  18.920  0.00  0.00    +0.000 HD
ATOM     28  H   UNL     1       3.433   8.348  17.044  0.00  0.00    +0.000 HD
ENDBRANCH  10  15
TORSDOF 1
ENDMDL
MODEL 4
REMARK VINA RESULT:      -7.9      2.500      3.151
REMARK  Name = 
REMARK  2 active torsions:
REMARK  status: ('A' for Active; 'I' for Inactive)
REMARK    1  A    between atoms: C_1  and  N_2
REMARK    2  A    between atoms: C_10  and  C_11
REMARK                            x       y       z     vdW  Elec       q    Type
REMARK                         _______ _______ _______ _____ _____    ______ ____
ROOT
ATOM      1  C   UNL     1       3.065   3.808  17.028  0.00  0.00    +0.000 C 
ATOM      2  N   UNL     1       3.101   4.028  18.462  0.00  0.00    +0.000 N 
ATOM      3  C   UNL     1       3.916   3.156  19.326  0.00  0.00    +0.000 C 
ATOM      4  C   UNL     1       3.047   2.222  20.164  0.00  0.00    +0.000 C 
ATOM      5  C   UNL     1       2.215   3.044  21.128  0.00  0.00    +0.000 C 
ATOM      6  O   UNL     1       2.431   3.081  22.335  0.00  0.00    +0.000 OA
ATOM      7  N   UNL     1       1.238   3.814  20.491  0.00  0.00    +0.000 N 
ATOM      8  C   UNL     1       1.713   5.104  20.128  0.00  0.00    +0.000 A 
ATOM      9  C   UNL     1       1.236   6.217  20.816  0.00  0.00    +0.000 A 
ATOM     10  C   UNL     1       1.667   7.495  20.445  0.00  0.00    +0.000 A 
ATOM     11  C   UNL     1       2.513   7.622  19.331  0.00  0.00    +0.000 A 
ATOM     12  C   UNL     1       2.967   6.482  18.627  0.00  0.00    +0.000 A 
ATOM     13  C   UNL     1       2.598   5.197  19.032  0.00  0.00    +0.000 A 
ATOM     14  H   UNL     1       1.048   3.344  19.607  0.00  0.00    +0.000 HD
ENDROOT
BRANCH  10  15
ATOM     15  C   UNL     1       1.253   8.718  21.235  0.00  0.00    +0.000 C 
ATOM     16  O   UNL     1       1.701   8.873  22.364  0.00  0.00    +0.000 OA
ATOM     17  N   UNL     1       0.347   9.516  20.567  0.00  0.00    +0.000 N 
ATOM     18  C   UNL     1      -0.225  10.678  21.032  0.00  0.00    +0.000 A 
ATOM     19  N   UNL     1      -0.036  11.385  22.126  0.00  0.00    +0.000 NA
ATOM     20  C   UNL     1      -0.967  12.411  22.081  0.00  0.00    +0.000 A 
ATOM     21  C   UNL     1      -1.255  13.445  22.990  0.00  0.00    +0.000 A 
ATOM     22  C   UNL     1      -2.316  14.325  22.710  0.00  0.00    +0.000 A 
ATOM     23  C   UNL     1      -3.073  14.189  21.541  0.00  0.00    +0.000 A 
ATOM     24  C   UNL     1      -2.779  13.192  20.609  0.00  0.00    +0.000 A 
ATOM     25  C   UNL     1      -1.724  12.333  20.919  0.00  0.00    +0.000 A 
ATOM     26  N   UNL     1      -1.182  11.275  20.248  0.00  0.00    +0.000 N 
ATOM     27  H   UNL     1      -0.025   9.163  19.700  0.00  0.00    +0.000 HD
ATOM     28  H   UNL     1      -1.474  10.954  19.339  0.00  0.00    +0.000 HD
ENDBRANCH  10  15
TORSDOF 1
ENDMDL
MODEL 5
REMARK VINA RESULT:      -7.8      4.898      8.138
REMARK  Name = 
REMARK  2 active torsions:
REMARK  status: ('A' for Active; 'I' for Inactive)
REMARK    1  A    between atoms: C_1  and  N_2
REMARK    2  A    between atoms: C_10  and  C_11
REMARK                            x       y       z     vdW  Elec       q    Type
REMARK                         _______ _______ _______ _____ _____    ______ ____
ROOT
ATOM      1  C   UNL     1       4.470   2.375  19.503  0.00  0.00    +0.000 C 
ATOM      2  N   UNL     1       4.213   3.802  19.440  0.00  0.00    +0.000 N 
ATOM      3  C   UNL     1       3.042   4.375  20.124  0.00  0.00    +0.000 C 
ATOM      4  C   UNL     1       1.969   4.815  19.132  0.00  0.00    +0.000 C 
ATOM      5  C   UNL     1       2.507   5.950  18.283  0.00  0.00    +0.000 C 
ATOM      6  O   UNL     1       2.135   7.112  18.406  0.00  0.00    +0.000 OA
ATOM      7  N   UNL     1       3.524   5.549  17.413  0.00  0.00    +0.000 N 
ATOM      8  C   UNL     1       4.815   5.652  18.000  0.00  0.00    +0.000 A 
ATOM      9  C   UNL     1       5.686   6.640  17.545  0.00  0.00    +0.000 A 
ATOM     10  C   UNL     1       6.972   6.731  18.089  0.00  0.00    +0.000 A 
ATOM     11  C   UNL     1       7.374   5.765  19.026  0.00  0.00    +0.000 A 
ATOM     12  C   UNL     1       6.486   4.752  19.457  0.00  0.00    +0.000 A 
ATOM     13  C   UNL     1       5.177   4.695  18.973  0.00  0.00    +0.000 A 
ATOM     14  H   UNL     1       3.383   4.550  17.262  0.00  0.00    +0.000 HD
ENDROOT
BRANCH  10  15
ATOM     15  C   UNL     1       7.907   7.853  17.697  0.00  0.00    +0.000 C 
ATOM     16  O   UNL     1       8.339   7.892  16.551  0.00  0.00    +0.000 OA
ATOM     17  N   UNL     1       8.203   8.706  18.740  0.00  0.00    +0.000 N 
ATOM     18  C   UNL     1       9.035   9.801  18.698  0.00  0.00    +0.000 A 
ATOM     19  N   UNL     1       9.682  10.388  17.713  0.00  0.00    +0.000 NA
ATOM     20  C   UNL     1      10.430  11.397  18.297  0.00  0.00    +0.000 A 
ATOM     21  C   UNL     1      11.334  12.322  17.746  0.00  0.00    +0.000 A 
ATOM     22  C   UNL     1      12.010  13.210  18.602  0.00  0.00    +0.000 A 
ATOM     23  C   UNL     1      11.783  13.191  19.982  0.00  0.00    +0.000 A 
ATOM     24  C   UNL     1      10.861  12.307  20.545  0.00  0.00    +0.000 A 
ATOM     25  C   UNL     1      10.212  11.436  19.669  0.00  0.00    +0.000 A 
ATOM     26  N   UNL     1       9.274  10.465  19.876  0.00  0.00    +0.000 N 
ATOM     27  H   UNL     1       7.873   8.444  19.655  0.00  0.00    +0.000 HD
ATOM     28  H   UNL     1       8.860  10.241  20.767  0.00  0.00    +0.000 HD
ENDBRANCH  10  15
TORSDOF 1
ENDMDL
MODEL 6
REMARK VINA RESULT:      -7.8      1.938      2.770
REMARK  Name = 
REMARK  2 active torsions:
REMARK  status: ('A' for Active; 'I' for Inactive)
REMARK    1  A    between atoms: C_1  and  N_2
REMARK    2  A    between atoms: C_10  and  C_11
REMARK                            x       y       z     vdW  Elec       q    Type
REMARK                         _______ _______ _______ _____ _____    ______ ____
ROOT
ATOM      1  C   UNL     1       4.699   2.866  19.094  0.00  0.00    +0.000 C 
ATOM      2  N   UNL     1       4.481   3.809  18.013  0.00  0.00    +0.000 N 
ATOM      3  C   UNL     1       4.677   3.392  16.614  0.00  0.00    +0.000 C 
ATOM      4  C   UNL     1       5.933   4.015  16.011  0.00  0.00    +0.000 C 
ATOM      5  C   UNL     1       5.760   5.519  15.939  0.00  0.00    +0.000 C 
ATOM      6  O   UNL     1       5.583   6.123  14.886  0.00  0.00    +0.000 OA
ATOM      7  N   UNL     1       5.739   6.129  17.196  0.00  0.00    +0.000 N 
ATOM      8  C   UNL     1       4.428   6.213  17.739  0.00  0.00    +0.000 A 
ATOM      9  C   UNL     1       3.812   7.460  17.828  0.00  0.00    +0.000 A 
ATOM     10  C   UNL     1       2.536   7.563  18.392  0.00  0.00    +0.000 A 
ATOM     11  C   UNL     1       1.944   6.406  18.927  0.00  0.00    +0.000 A 
ATOM     12  C   UNL     1       2.594   5.153  18.853  0.00  0.00    +0.000 A 
ATOM     13  C   UNL     1       3.838   5.028  18.229  0.00  0.00    +0.000 A 
ATOM     14  H   UNL     1       6.241   5.498  17.820  0.00  0.00    +0.000 HD
ENDROOT
BRANCH  10  15
ATOM     15  C   UNL     1       1.795   8.881  18.410  0.00  0.00    +0.000 C 
ATOM     16  O   UNL     1       1.901   9.633  17.450  0.00  0.00    +0.000 OA
ATOM     17  N   UNL     1       1.096   9.097  19.580  0.00  0.00    +0.000 N 
ATOM     18  C   UNL     1       0.346  10.206  19.898  0.00  0.00    +0.000 A 
ATOM     19  N   UNL     1       0.009  11.277  19.211  0.00  0.00    +0.000 NA
ATOM     20  C   UNL     1      -0.687  12.090  20.092  0.00  0.00    +0.000 A 
ATOM     21  C   UNL     1      -1.253  13.367  19.928  0.00  0.00    +0.000 A 
ATOM     22  C   UNL     1      -1.858  13.992  21.034  0.00  0.00    +0.000 A 
ATOM     23  C   UNL     1      -1.913  13.356  22.279  0.00  0.00    +0.000 A 
ATOM     24  C   UNL     1      -1.390  12.074  22.452  0.00  0.00    +0.000 A 
ATOM     25  C   UNL     1      -0.792  11.484  21.337  0.00  0.00    +0.000 A 
ATOM     26  N   UNL     1      -0.194  10.269  21.159  0.00  0.00    +0.000 N 
ATOM     27  H   UNL     1       1.234   8.435  20.326  0.00  0.00    +0.000 HD
ATOM     28  H   UNL     1      -0.121   9.551  21.862  0.00  0.00    +0.000 HD
ENDBRANCH  10  15
TORSDOF 1
ENDMDL
MODEL 7
REMARK VINA RESULT:      -7.8      2.712      9.328
REMARK  Name = 
REMARK  2 active torsions:
REMARK  status: ('A' for Active; 'I' for Inactive)
REMARK    1  A    between atoms: C_1  and  N_2
REMARK    2  A    between atoms: C_10  and  C_11
REMARK                            x       y       z     vdW  Elec       q    Type
REMARK                         _______ _______ _______ _____ _____    ______ ____
ROOT
ATOM      1  C   UNL     1      -3.109  12.274  23.856  0.00  0.00    +0.000 C 
ATOM      2  N   UNL     1      -1.889  12.560  23.124  0.00  0.00    +0.000 N 
ATOM      3  C   UNL     1      -1.175  13.830  23.340  0.00  0.00    +0.000 C 
ATOM      4  C   UNL     1      -1.321  14.768  22.146  0.00  0.00    +0.000 C 
ATOM      5  C   UNL     1      -0.642  14.151  20.939  0.00  0.00    +0.000 C 
ATOM      6  O   UNL     1       0.415  14.569  20.478  0.00  0.00    +0.000 OA
ATOM      7  N   UNL     1      -1.299  13.012  20.464  0.00  0.00    +0.000 N 
ATOM      8  C   UNL     1      -0.832  11.818  21.077  0.00  0.00    +0.000 A 
ATOM      9  C   UNL     1      -0.079  10.921  20.322  0.00  0.00    +0.000 A 
ATOM     10  C   UNL     1       0.356   9.725  20.902  0.00  0.00    +0.000 A 
ATOM     11  C   UNL     1      -0.049   9.429  22.214  0.00  0.00    +0.000 A 
ATOM     12  C   UNL     1      -0.836  10.338  22.958  0.00  0.00    +0.000 A 
ATOM     13  C   UNL     1      -1.218  11.566  22.412  0.00  0.00    +0.000 A 
ATOM     14  H   UNL     1      -2.268  13.104  20.768  0.00  0.00    +0.000 HD
ENDROOT
BRANCH  10  15
ATOM     15  C   UNL     1       1.262   8.777  20.148  0.00  0.00    +0.000 C 
ATOM     16  O   UNL     1       1.728   9.132  19.073  0.00  0.00    +0.000 OA
ATOM     17  N   UNL     1       1.420   7.559  20.776  0.00  0.00    +0.000 N 
ATOM     18  C   UNL     1       2.163   6.491  20.327  0.00  0.00    +0.000 A 
ATOM     19  N   UNL     1       2.965   6.339  19.295  0.00  0.00    +0.000 NA
ATOM     20  C   UNL     1       3.361   5.011  19.314  0.00  0.00    +0.000 A 
ATOM     21  C   UNL     1       4.182   4.274  18.442  0.00  0.00    +0.000 A 
ATOM     22  C   UNL     1       4.365   2.898  18.676  0.00  0.00    +0.000 A 
ATOM     23  C   UNL     1       3.755   2.267  19.765  0.00  0.00    +0.000 A 
ATOM     24  C   UNL     1       2.967   2.989  20.663  0.00  0.00    +0.000 A 
ATOM     25  C   UNL     1       2.801   4.350  20.399  0.00  0.00    +0.000 A 
ATOM     26  N   UNL     1       2.111   5.328  21.056  0.00  0.00    +0.000 N 
ATOM     27  H   UNL     1       0.848   7.383  21.586  0.00  0.00    +0.000 HD
ATOM     28  H   UNL     1       1.604   5.201  21.917  0.00  0.00    +0.000 HD
ENDBRANCH  10  15
TORSDOF 1
ENDMDL
MODEL 8
REMARK VINA RESULT:      -7.8      2.607      3.266
REMARK  Name = 
REMARK  2 active torsions:
REMARK  status: ('A' for Active; 'I' for Inactive)
REMARK    1  A    between atoms: C_1  and  N_2
REMARK    2  A    between atoms: C_10  and  C_11
REMARK                            x       y       z     vdW  Elec       q    Type
REMARK                         _______ _______ _______ _____ _____    ______ ____
ROOT
ATOM      1  C   UNL     1       3.168   3.583  17.044  0.00  0.00    +0.000 C 
ATOM      2  N   UNL     1       3.172   3.867  18.468  0.00  0.00    +0.000 N 
ATOM      3  C   UNL     1       3.954   3.026  19.389  0.00  0.00    +0.000 C 
ATOM      4  C   UNL     1       3.054   2.141  20.246  0.00  0.00    +0.000 C 
ATOM      5  C   UNL     1       2.209   3.014  21.152  0.00  0.00    +0.000 C 
ATOM      6  O   UNL     1       2.396   3.103  22.361  0.00  0.00    +0.000 OA
ATOM      7  N   UNL     1       1.258   3.766  20.457  0.00  0.00    +0.000 N 
ATOM      8  C   UNL     1       1.757   5.032  20.048  0.00  0.00    +0.000 A 
ATOM      9  C   UNL     1       1.277   6.181  20.674  0.00  0.00    +0.000 A 
ATOM     10  C   UNL     1       1.733   7.437  20.257  0.00  0.00    +0.000 A 
ATOM     11  C   UNL     1       2.607   7.503  19.160  0.00  0.00    +0.000 A 
ATOM     12  C   UNL     1       3.064   6.328  18.518  0.00  0.00    +0.000 A 
ATOM     13  C   UNL     1       2.670   5.067  18.971  0.00  0.00    +0.000 A 
ATOM     14  H   UNL     1       1.083   3.259  19.590  0.00  0.00    +0.000 HD
ENDROOT
BRANCH  10  15
ATOM     15  C   UNL     1       1.315   8.698  20.980  0.00  0.00    +0.000 C 
ATOM     16  O   UNL     1       1.168   8.663  22.195  0.00  0.00    +0.000 OA
ATOM     17  N   UNL     1       1.099   9.765  20.133  0.00  0.00    +0.000 N 
ATOM     18  C   UNL     1       0.695  11.031  20.491  0.00  0.00    +0.000 A 
ATOM     19  N   UNL     1       0.493  11.602  21.660  0.00  0.00    +0.000 NA
ATOM     20  C   UNL     1       0.008  12.870  21.384  0.00  0.00    +0.000 A 
ATOM     21  C   UNL     1      -0.413  13.909  22.234  0.00  0.00    +0.000 A 
ATOM     22  C   UNL     1      -0.928  15.089  21.667  0.00  0.00    +0.000 A 
ATOM     23  C   UNL     1      -1.013  15.242  20.279  0.00  0.00    +0.000 A 
ATOM     24  C   UNL     1      -0.566  14.238  19.419  0.00  0.00    +0.000 A 
ATOM     25  C   UNL     1      -0.065  13.078  20.013  0.00  0.00    +0.000 A 
ATOM     26  N   UNL     1       0.442  11.928  19.482  0.00  0.00    +0.000 N 
ATOM     27  H   UNL     1       1.128   9.580  19.144  0.00  0.00    +0.000 HD
ATOM     28  H   UNL     1       0.566  11.749  18.498  0.00  0.00    +0.000 HD
ENDBRANCH  10  15
TORSDOF 1
ENDMDL
MODEL 9
REMARK VINA RESULT:      -7.7      3.579      8.332
REMARK  Name = 
REMARK  2 active torsions:
REMARK  status: ('A' for Active; 'I' for Inactive)
REMARK    1  A    between atoms: C_1  and  N_2
REMARK    2  A    between atoms: C_10  and  C_11
REMARK                            x       y       z     vdW  Elec       q    Type
REMARK                         _______ _______ _______ _____ _____    ______ ____
ROOT
ATOM      1  C   UNL     1      -0.658  14.935  19.771  0.00  0.00    +0.000 C 
ATOM      2  N   UNL     1       0.680  14.388  19.647  0.00  0.00    +0.000 N 
ATOM      3  C   UNL     1       1.842  15.151  20.134  0.00  0.00    +0.000 C 
ATOM      4  C   UNL     1       2.680  15.699  18.982  0.00  0.00    +0.000 C 
ATOM      5  C   UNL     1       3.282  14.543  18.208  0.00  0.00    +0.000 C 
ATOM      6  O   UNL     1       4.473  14.255  18.253  0.00  0.00    +0.000 OA
ATOM      7  N   UNL     1       2.329  13.794  17.511  0.00  0.00    +0.000 N 
ATOM      8  C   UNL     1       1.800  12.728  18.287  0.00  0.00    +0.000 A 
ATOM      9  C   UNL     1       2.141  11.418  17.956  0.00  0.00    +0.000 A 
ATOM     10  C   UNL     1       1.600  10.356  18.689  0.00  0.00    +0.000 A 
ATOM     11  C   UNL     1       0.660  10.644  19.693  0.00  0.00    +0.000 A 
ATOM     12  C   UNL     1       0.304  11.978  19.998  0.00  0.00    +0.000 A 
ATOM     13  C   UNL     1       0.891  13.048  19.319  0.00  0.00    +0.000 A 
ATOM     14  H   UNL     1       1.541  14.423  17.356  0.00  0.00    +0.000 HD
ENDROOT
BRANCH  10  15
ATOM     15  C   UNL     1       2.027   8.929  18.428  0.00  0.00    +0.000 C 
ATOM     16  O   UNL     1       2.343   8.605  17.290  0.00  0.00    +0.000 OA
ATOM     17  N   UNL     1       1.962   8.127  19.548  0.00  0.00    +0.000 N 
ATOM     18  C   UNL     1       2.267   6.787  19.619  0.00  0.00    +0.000 A 
ATOM     19  N   UNL     1       2.763   5.940  18.742  0.00  0.00    +0.000 NA
ATOM     20  C   UNL     1       2.766   4.703  19.366  0.00  0.00    +0.000 A 
ATOM     21  C   UNL     1       3.149   3.431  18.906  0.00  0.00    +0.000 A 
ATOM     22  C   UNL     1       2.982   2.320  19.752  0.00  0.00    +0.000 A 
ATOM     23  C   UNL     1       2.456   2.469  21.039  0.00  0.00    +0.000 A 
ATOM     24  C   UNL     1       2.106   3.728  21.529  0.00  0.00    +0.000 A 
ATOM     25  C   UNL     1       2.278   4.809  20.662  0.00  0.00    +0.000 A 
ATOM     26  N   UNL     1       2.041   6.145  20.813  0.00  0.00    +0.000 N 
ATOM     27  H   UNL     1       1.543   8.524  20.373  0.00  0.00    +0.000 HD
ATOM     28  H   UNL     1       1.707   6.583  21.656  0.00  0.00    +0.000 HD
ENDBRANCH  10  15
TORSDOF 1
ENDMDL
