MODEL 1
REMARK VINA RESULT:      -8.2      0.000      0.000
REMARK  Name = 
REMARK  5 active torsions:
REMARK  status: ('A' for Active; 'I' for Inactive)
REMARK    1  A    between atoms: C_1  and  C_2
REMARK    2  A    between atoms: C_9  and  C_10
REMARK    3  A    between atoms: N_12  and  C_13
REMARK    4  A    between atoms: C_18  and  C_19
REMARK    5  A    between atoms: C_25  and  C_26
REMARK                            x       y       z     vdW  Elec       q    Type
REMARK                         _______ _______ _______ _____ _____    ______ ____
ROOT
ATOM      1  C   UNL     1       1.904   7.804  19.729  0.00  0.00    +0.000 C 
ATOM      2  O   UNL     1       1.785   8.300  20.851  0.00  0.00    +0.000 OA
ATOM      3  N   UNL     1       1.684   8.486  18.542  0.00  0.00    +0.000 N 
ATOM      4  H   UNL     1       1.664   7.923  17.689  0.00  0.00    +0.000 HD
ENDROOT
BRANCH   1  13
ATOM      5  C   UNL     1       5.725   3.856  16.035  0.00  0.00    +0.000 C 
ATOM      6  C   UNL     1       4.796   4.563  16.973  0.00  0.00    +0.000 A 
ATOM      7  N   UNL     1       4.233   3.811  17.948  0.00  0.00    +0.000 NA
ATOM      8  C   UNL     1       3.406   4.418  18.813  0.00  0.00    +0.000 A 
ATOM      9  C   UNL     1       2.835   3.645  19.810  0.00  0.00    +0.000 A 
ATOM     10  C   UNL     1       1.979   4.208  20.733  0.00  0.00    +0.000 A 
ATOM     11  F   UNL     1       1.433   3.448  21.691  0.00  0.00    +0.000 F 
ATOM     12  C   UNL     1       1.687   5.553  20.682  0.00  0.00    +0.000 A 
ATOM     13  C   UNL     1       2.260   6.358  19.680  0.00  0.00    +0.000 A 
ATOM     14  C   UNL     1       3.120   5.806  18.723  0.00  0.00    +0.000 A 
ATOM     15  N   UNL     1       3.681   6.545  17.732  0.00  0.00    +0.000 NA
ATOM     16  C   UNL     1       4.520   5.922  16.865  0.00  0.00    +0.000 A 
ATOM     17  C   UNL     1       5.131   6.778  15.797  0.00  0.00    +0.000 C 
ENDBRANCH   1  13
BRANCH   3  18
ATOM     18  C   UNL     1       1.313   9.847  18.456  0.00  0.00    +0.000 A 
ATOM     19  C   UNL     1       2.263  10.867  18.407  0.00  0.00    +0.000 A 
ATOM     20  C   UNL     1       1.883  12.204  18.441  0.00  0.00    +0.000 A 
ATOM     21  C   UNL     1       0.536  12.557  18.532  0.00  0.00    +0.000 A 
ATOM     22 CL   UNL     1       0.237  14.259  18.632  0.00  0.00    +0.000 Cl
ATOM     23  C   UNL     1      -0.449  11.555  18.546  0.00  0.00    +0.000 A 
ATOM     24  C   UNL     1      -0.042  10.198  18.463  0.00  0.00    +0.000 A 
BRANCH  23  25
ATOM     25  C   UNL     1      -1.917  11.785  18.713  0.00  0.00    +0.000 C 
ATOM     26  N   UNL     1      -2.709  11.905  17.607  0.00  0.00    +0.000 N 
ATOM     27  O   UNL     1      -2.421  11.899  19.824  0.00  0.00    +0.000 OA
ATOM     28  H   UNL     1      -2.355  11.855  16.660  0.00  0.00    +0.000 HD
ATOM     29  H   UNL     1      -3.686  12.124  17.740  0.00  0.00    +0.000 HD
ENDBRANCH  23  25
ENDBRANCH   3  18
TORSDOF 3
ENDMDL
MODEL 2
REMARK VINA RESULT:      -8.0      2.447      3.577
REMARK  Name = 
REMARK  5 active torsions:
REMARK  status: ('A' for Active; 'I' for Inactive)
REMARK    1  A    between atoms: C_1  and  C_2
REMARK    2  A    between atoms: C_9  and  C_10
REMARK    3  A    between atoms: N_12  and  C_13
REMARK    4  A    between atoms: C_18  and  C_19
REMARK    5  A    between atoms: C_25  and  C_26
REMARK                            x       y       z     vdW  Elec       q    Type
REMARK                         _______ _______ _______ _____ _____    ______ ____
ROOT
ATOM      1  C   UNL     1       2.482   8.100  18.167  0.00  0.00    +0.000 C 
ATOM      2  O   UNL     1       2.351   8.946  17.281  0.00  0.00    +0.000 OA
ATOM      3  N   UNL     1       1.897   8.180  19.421  0.00  0.00    +0.000 N 
ATOM      4  H   UNL     1       2.209   7.497  20.115  0.00  0.00    +0.000 HD
ENDROOT
BRANCH   1  13
ATOM      5  C   UNL     1       2.614   1.584  19.329  0.00  0.00    +0.000 C 
ATOM      6  C   UNL     1       2.784   3.029  18.974  0.00  0.00    +0.000 A 
ATOM      7  N   UNL     1       3.867   3.345  18.224  0.00  0.00    +0.000 NA
ATOM      8  C   UNL     1       4.041   4.629  17.879  0.00  0.00    +0.000 A 
ATOM      9  C   UNL     1       5.148   4.946  17.109  0.00  0.00    +0.000 A 
ATOM     10  C   UNL     1       5.382   6.247  16.717  0.00  0.00    +0.000 A 
ATOM     11  F   UNL     1       6.458   6.540  15.975  0.00  0.00    +0.000 F 
ATOM     12  C   UNL     1       4.511   7.252  17.078  0.00  0.00    +0.000 A 
ATOM     13  C   UNL     1       3.377   6.951  17.856  0.00  0.00    +0.000 A 
ATOM     14  C   UNL     1       3.125   5.639  18.278  0.00  0.00    +0.000 A 
ATOM     15  N   UNL     1       2.052   5.311  19.040  0.00  0.00    +0.000 NA
ATOM     16  C   UNL     1       1.883   4.007  19.381  0.00  0.00    +0.000 A 
ATOM     17  C   UNL     1       0.676   3.685  20.209  0.00  0.00    +0.000 C 
ENDBRANCH   1  13
BRANCH   3  18
ATOM     18  C   UNL     1       1.056   9.233  19.848  0.00  0.00    +0.000 A 
ATOM     19  C   UNL     1       0.968   9.607  21.189  0.00  0.00    +0.000 A 
ATOM     20  C   UNL     1       0.051  10.564  21.609  0.00  0.00    +0.000 A 
ATOM     21  C   UNL     1      -0.810  11.170  20.694  0.00  0.00    +0.000 A 
ATOM     22 CL   UNL     1      -1.935  12.289  21.387  0.00  0.00    +0.000 Cl
ATOM     23  C   UNL     1      -0.723  10.844  19.330  0.00  0.00    +0.000 A 
ATOM     24  C   UNL     1       0.252   9.900  18.917  0.00  0.00    +0.000 A 
BRANCH  23  25
ATOM     25  C   UNL     1      -1.626  11.360  18.255  0.00  0.00    +0.000 C 
ATOM     26  N   UNL     1      -1.308  12.521  17.610  0.00  0.00    +0.000 N 
ATOM     27  O   UNL     1      -2.663  10.777  17.963  0.00  0.00    +0.000 OA
ATOM     28  H   UNL     1      -0.486  13.070  17.823  0.00  0.00    +0.000 HD
ATOM     29  H   UNL     1      -1.963  12.885  16.933  0.00  0.00    +0.000 HD
ENDBRANCH  23  25
ENDBRANCH   3  18
TORSDOF 3
ENDMDL
MODEL 3
REMARK VINA RESULT:      -7.9      2.856      3.859
REMARK  Name = 
REMARK  5 active torsions:
REMARK  status: ('A' for Active; 'I' for Inactive)
REMARK    1  A    between atoms: C_1  and  C_2
REMARK    2  A    between atoms: C_9  and  C_10
REMARK    3  A    between atoms: N_12  and  C_13
REMARK    4  A    between atoms: C_18  and  C_19
REMARK    5  A    between atoms: C_25  and  C_26
REMARK                            x       y       z     vdW  Elec       q    Type
REMARK                         _______ _______ _______ _____ _____    ______ ____
ROOT
ATOM      1  C   UNL     1       2.793   7.994  17.949  0.00  0.00    +0.000 C 
ATOM      2  O   UNL     1       2.666   8.801  17.026  0.00  0.00    +0.000 OA
ATOM      3  N   UNL     1       2.067   8.030  19.129  0.00  0.00    +0.000 N 
ATOM      4  H   UNL     1       2.375   7.402  19.874  0.00  0.00    +0.000 HD
ENDROOT
BRANCH   1  13
ATOM      5  C   UNL     1       3.256   1.415  18.515  0.00  0.00    +0.000 C 
ATOM      6  C   UNL     1       3.370   2.899  18.347  0.00  0.00    +0.000 A 
ATOM      7  N   UNL     1       4.569   3.370  17.930  0.00  0.00    +0.000 NA
ATOM      8  C   UNL     1       4.699   4.694  17.758  0.00  0.00    +0.000 A 
ATOM      9  C   UNL     1       5.927   5.171  17.329  0.00  0.00    +0.000 A 
ATOM     10  C   UNL     1       6.125   6.521  17.129  0.00  0.00    +0.000 A 
ATOM     11  F   UNL     1       7.318   6.968  16.716  0.00  0.00    +0.000 F 
ATOM     12  C   UNL     1       5.100   7.416  17.343  0.00  0.00    +0.000 A 
ATOM     13  C   UNL     1       3.843   6.952  17.775  0.00  0.00    +0.000 A 
ATOM     14  C   UNL     1       3.622   5.587  17.998  0.00  0.00    +0.000 A 
ATOM     15  N   UNL     1       2.429   5.102  18.428  0.00  0.00    +0.000 NA
ATOM     16  C   UNL     1       2.307   3.760  18.596  0.00  0.00    +0.000 A 
ATOM     17  C   UNL     1       0.969   3.264  19.054  0.00  0.00    +0.000 C 
ENDBRANCH   1  13
BRANCH   3  18
ATOM     18  C   UNL     1       1.068   8.985  19.426  0.00  0.00    +0.000 A 
ATOM     19  C   UNL     1       0.503   9.792  18.439  0.00  0.00    +0.000 A 
ATOM     20  C   UNL     1      -0.391  10.805  18.763  0.00  0.00    +0.000 A 
ATOM     21  C   UNL     1      -0.741  11.043  20.093  0.00  0.00    +0.000 A 
ATOM     22 CL   UNL     1      -1.812  12.382  20.333  0.00  0.00    +0.000 Cl
ATOM     23  C   UNL     1      -0.220  10.225  21.110  0.00  0.00    +0.000 A 
ATOM     24  C   UNL     1       0.655   9.167  20.751  0.00  0.00    +0.000 A 
BRANCH  23  25
ATOM     25  C   UNL     1      -0.451  10.410  22.576  0.00  0.00    +0.000 C 
ATOM     26  N   UNL     1      -0.713   9.322  23.358  0.00  0.00    +0.000 N 
ATOM     27  O   UNL     1      -0.441  11.524  23.085  0.00  0.00    +0.000 OA
ATOM     28  H   UNL     1      -0.770   8.378  22.998  0.00  0.00    +0.000 HD
ATOM     29  H   UNL     1      -0.930   9.475  24.332  0.00  0.00    +0.000 HD
ENDBRANCH  23  25
ENDBRANCH   3  18
TORSDOF 3
ENDMDL
MODEL 4
REMARK VINA RESULT:      -7.9      3.590      7.926
REMARK  Name = 
REMARK  5 active torsions:
REMARK  status: ('A' for Active; 'I' for Inactive)
REMARK    1  A    between atoms: C_1  and  C_2
REMARK    2  A    between atoms: C_9  and  C_10
REMARK    3  A    between atoms: N_12  and  C_13
REMARK    4  A    between atoms: C_18  and  C_19
REMARK    5  A    between atoms: C_25  and  C_26
REMARK                            x       y       z     vdW  Elec       q    Type
REMARK                         _______ _______ _______ _____ _____    ______ ____
ROOT
ATOM      1  C   UNL     1       1.428   9.315  18.374  0.00  0.00    +0.000 C 
ATOM      2  O   UNL     1       1.956   9.750  17.349  0.00  0.00    +0.000 OA
ATOM      3  N   UNL     1       1.684   8.068  18.921  0.00  0.00    +0.000 N 
ATOM      4  H   UNL     1       1.069   7.767  19.680  0.00  0.00    +0.000 HD
ENDROOT
BRANCH   1  13
ATOM      5  C   UNL     1      -4.687  11.468  17.031  0.00  0.00    +0.000 C 
ATOM      6  C   UNL     1      -3.313  11.115  17.511  0.00  0.00    +0.000 A 
ATOM      7  N   UNL     1      -2.948  11.612  18.717  0.00  0.00    +0.000 NA
ATOM      8  C   UNL     1      -1.728  11.303  19.182  0.00  0.00    +0.000 A 
ATOM      9  C   UNL     1      -1.360  11.811  20.417  0.00  0.00    +0.000 A 
ATOM     10  C   UNL     1      -0.122  11.528  20.953  0.00  0.00    +0.000 A 
ATOM     11  F   UNL     1       0.221  12.028  22.147  0.00  0.00    +0.000 F 
ATOM     12  C   UNL     1       0.766  10.725  20.271  0.00  0.00    +0.000 A 
ATOM     13  C   UNL     1       0.411  10.194  19.016  0.00  0.00    +0.000 A 
ATOM     14  C   UNL     1      -0.836  10.480  18.445  0.00  0.00    +0.000 A 
ATOM     15  N   UNL     1      -1.210   9.999  17.232  0.00  0.00    +0.000 NA
ATOM     16  C   UNL     1      -2.448  10.315  16.773  0.00  0.00    +0.000 A 
ATOM     17  C   UNL     1      -2.829   9.750  15.438  0.00  0.00    +0.000 C 
ENDBRANCH   1  13
BRANCH   3  18
ATOM     18  C   UNL     1       2.600   7.132  18.389  0.00  0.00    +0.000 A 
ATOM     19  C   UNL     1       3.722   7.532  17.664  0.00  0.00    +0.000 A 
ATOM     20  C   UNL     1       4.550   6.599  17.049  0.00  0.00    +0.000 A 
ATOM     21  C   UNL     1       4.271   5.235  17.139  0.00  0.00    +0.000 A 
ATOM     22 CL   UNL     1       5.358   4.212  16.263  0.00  0.00    +0.000 Cl
ATOM     23  C   UNL     1       3.169   4.796  17.893  0.00  0.00    +0.000 A 
ATOM     24  C   UNL     1       2.365   5.762  18.551  0.00  0.00    +0.000 A 
BRANCH  23  25
ATOM     25  C   UNL     1       2.712   3.377  18.016  0.00  0.00    +0.000 C 
ATOM     26  N   UNL     1       3.486   2.477  18.691  0.00  0.00    +0.000 N 
ATOM     27  O   UNL     1       1.670   2.998  17.494  0.00  0.00    +0.000 OA
ATOM     28  H   UNL     1       4.373   2.714  19.117  0.00  0.00    +0.000 HD
ATOM     29  H   UNL     1       3.192   1.511  18.707  0.00  0.00    +0.000 HD
ENDBRANCH  23  25
ENDBRANCH   3  18
TORSDOF 3
ENDMDL
MODEL 5
REMARK VINA RESULT:      -7.9      2.261      2.584
REMARK  Name = 
REMARK  5 active torsions:
REMARK  status: ('A' for Active; 'I' for Inactive)
REMARK    1  A    between atoms: C_1  and  C_2
REMARK    2  A    between atoms: C_9  and  C_10
REMARK    3  A    between atoms: N_12  and  C_13
REMARK    4  A    between atoms: C_18  and  C_19
REMARK    5  A    between atoms: C_25  and  C_26
REMARK                            x       y       z     vdW  Elec       q    Type
REMARK                         _______ _______ _______ _____ _____    ______ ____
ROOT
ATOM      1  C   UNL     1       1.985   6.585  19.468  0.00  0.00    +0.000 C 
ATOM      2  O   UNL     1       1.759   6.470  20.674  0.00  0.00    +0.000 OA
ATOM      3  N   UNL     1       1.830   7.759  18.749  0.00  0.00    +0.000 N 
ATOM      4  H   UNL     1       1.900   7.684  17.731  0.00  0.00    +0.000 HD
ENDROOT
BRANCH   1  13
ATOM      5  C   UNL     1       7.183   4.541  15.913  0.00  0.00    +0.000 C 
ATOM      6  C   UNL     1       5.915   4.808  16.666  0.00  0.00    +0.000 A 
ATOM      7  N   UNL     1       5.043   3.777  16.765  0.00  0.00    +0.000 NA
ATOM      8  C   UNL     1       3.904   3.980  17.445  0.00  0.00    +0.000 A 
ATOM      9  C   UNL     1       3.016   2.922  17.546  0.00  0.00    +0.000 A 
ATOM     10  C   UNL     1       1.830   3.063  18.234  0.00  0.00    +0.000 A 
ATOM     11  F   UNL     1       0.979   2.032  18.322  0.00  0.00    +0.000 F 
ATOM     12  C   UNL     1       1.514   4.259  18.841  0.00  0.00    +0.000 A 
ATOM     13  C   UNL     1       2.404   5.346  18.754  0.00  0.00    +0.000 A 
ATOM     14  C   UNL     1       3.609   5.230  18.049  0.00  0.00    +0.000 A 
ATOM     15  N   UNL     1       4.487   6.259  17.930  0.00  0.00    +0.000 NA
ATOM     16  C   UNL     1       5.638   6.042  17.243  0.00  0.00    +0.000 A 
ATOM     17  C   UNL     1       6.587   7.197  17.151  0.00  0.00    +0.000 C 
ENDBRANCH   1  13
BRANCH   3  18
ATOM     18  C   UNL     1       1.409   8.989  19.303  0.00  0.00    +0.000 A 
ATOM     19  C   UNL     1       1.592  10.199  18.633  0.00  0.00    +0.000 A 
ATOM     20  C   UNL     1       1.280  11.410  19.240  0.00  0.00    +0.000 A 
ATOM     21  C   UNL     1       0.780  11.443  20.543  0.00  0.00    +0.000 A 
ATOM     22 CL   UNL     1       0.506  13.031  21.175  0.00  0.00    +0.000 Cl
ATOM     23  C   UNL     1       0.549  10.240  21.233  0.00  0.00    +0.000 A 
ATOM     24  C   UNL     1       0.830   9.014  20.577  0.00  0.00    +0.000 A 
BRANCH  23  25
ATOM     25  C   UNL     1       0.087  10.129  22.651  0.00  0.00    +0.000 C 
ATOM     26  N   UNL     1      -1.149  10.598  22.994  0.00  0.00    +0.000 N 
ATOM     27  O   UNL     1       0.809   9.653  23.519  0.00  0.00    +0.000 OA
ATOM     28  H   UNL     1      -1.783  11.033  22.336  0.00  0.00    +0.000 HD
ATOM     29  H   UNL     1      -1.416  10.572  23.968  0.00  0.00    +0.000 HD
ENDBRANCH  23  25
ENDBRANCH   3  18
TORSDOF 3
ENDMDL
MODEL 6
REMARK VINA RESULT:      -7.8      3.885      7.911
REMARK  Name = 
REMARK  5 active torsions:
REMARK  status: ('A' for Active; 'I' for Inactive)
REMARK    1  A    between atoms: C_1  and  C_2
REMARK    2  A    between atoms: C_9  and  C_10
REMARK    3  A    between atoms: N_12  and  C_13
REMARK    4  A    between atoms: C_18  and  C_19
REMARK    5  A    between atoms: C_25  and  C_26
REMARK                            x       y       z     vdW  Elec       q    Type
REMARK                         _______ _______ _______ _____ _____    ______ ____
ROOT
ATOM      1  C   UNL     1       1.056   9.272  21.505  0.00  0.00    +0.000 C 
ATOM      2  O   UNL     1       1.736   8.917  22.469  0.00  0.00    +0.000 OA
ATOM      3  N   UNL     1       1.040   8.629  20.277  0.00  0.00    +0.000 N 
ATOM      4  H   UNL     1       0.556   9.111  19.516  0.00  0.00    +0.000 HD
ENDROOT
BRANCH   1  13
ATOM      5  C   UNL     1       0.733  15.315  18.822  0.00  0.00    +0.000 C 
ATOM      6  C   UNL     1       0.652  14.021  19.571  0.00  0.00    +0.000 A 
ATOM      7  N   UNL     1      -0.318  13.926  20.511  0.00  0.00    +0.000 NA
ATOM      8  C   UNL     1      -0.425  12.775  21.191  0.00  0.00    +0.000 A 
ATOM      9  C   UNL     1      -1.421  12.682  22.149  0.00  0.00    +0.000 A 
ATOM     10  C   UNL     1      -1.587  11.524  22.880  0.00  0.00    +0.000 A 
ATOM     11  F   UNL     1      -2.553  11.449  23.805  0.00  0.00    +0.000 F 
ATOM     12  C   UNL     1      -0.770  10.437  22.660  0.00  0.00    +0.000 A 
ATOM     13  C   UNL     1       0.246  10.509  21.687  0.00  0.00    +0.000 A 
ATOM     14  C   UNL     1       0.443  11.679  20.942  0.00  0.00    +0.000 A 
ATOM     15  N   UNL     1       1.419  11.792  20.006  0.00  0.00    +0.000 NA
ATOM     16  C   UNL     1       1.517  12.961  19.322  0.00  0.00    +0.000 A 
ATOM     17  C   UNL     1       2.596  13.038  18.285  0.00  0.00    +0.000 C 
ENDBRANCH   1  13
BRANCH   3  18
ATOM     18  C   UNL     1       1.785   7.469  19.970  0.00  0.00    +0.000 A 
ATOM     19  C   UNL     1       2.719   7.447  18.933  0.00  0.00    +0.000 A 
ATOM     20  C   UNL     1       3.359   6.268  18.568  0.00  0.00    +0.000 A 
ATOM     21  C   UNL     1       3.075   5.072  19.229  0.00  0.00    +0.000 A 
ATOM     22 CL   UNL     1       3.905   3.685  18.610  0.00  0.00    +0.000 Cl
ATOM     23  C   UNL     1       2.167   5.066  20.302  0.00  0.00    +0.000 A 
ATOM     24  C   UNL     1       1.561   6.289  20.689  0.00  0.00    +0.000 A 
BRANCH  23  25
ATOM     25  C   UNL     1       1.717   3.851  21.050  0.00  0.00    +0.000 C 
ATOM     26  N   UNL     1       0.659   3.127  20.582  0.00  0.00    +0.000 N 
ATOM     27  O   UNL     1       2.260   3.511  22.094  0.00  0.00    +0.000 OA
ATOM     28  H   UNL     1       0.144   3.370  19.746  0.00  0.00    +0.000 HD
ATOM     29  H   UNL     1       0.331   2.349  21.136  0.00  0.00    +0.000 HD
ENDBRANCH  23  25
ENDBRANCH   3  18
TORSDOF 3
ENDMDL
MODEL 7
REMARK VINA RESULT:      -7.8      1.316      1.337
REMARK  Name = 
REMARK  5 active torsions:
REMARK  status: ('A' for Active; 'I' for Inactive)
REMARK    1  A    between atoms: C_1  and  C_2
REMARK    2  A    between atoms: C_9  and  C_10
REMARK    3  A    between atoms: N_12  and  C_13
REMARK    4  A    between atoms: C_18  and  C_19
REMARK    5  A    between atoms: C_25  and  C_26
REMARK                            x       y       z     vdW  Elec       q    Type
REMARK                         _______ _______ _______ _____ _____    ______ ____
ROOT
ATOM      1  C   UNL     1       1.969   7.191  19.869  0.00  0.00    +0.000 C 
ATOM      2  O   UNL     1       1.445   7.533  20.930  0.00  0.00    +0.000 OA
ATOM      3  N   UNL     1       1.959   7.949  18.708  0.00  0.00    +0.000 N 
ATOM      4  H   UNL     1       2.291   7.488  17.858  0.00  0.00    +0.000 HD
ENDROOT
BRANCH   1  13
ATOM      5  C   UNL     1       7.497   4.452  17.467  0.00  0.00    +0.000 C 
ATOM      6  C   UNL     1       6.190   4.866  18.072  0.00  0.00    +0.000 A 
ATOM      7  N   UNL     1       5.504   3.909  18.741  0.00  0.00    +0.000 NA
ATOM      8  C   UNL     1       4.336   4.251  19.305  0.00  0.00    +0.000 A 
ATOM      9  C   UNL     1       3.639   3.271  19.991  0.00  0.00    +0.000 A 
ATOM     10  C   UNL     1       2.434   3.558  20.597  0.00  0.00    +0.000 A 
ATOM     11  F   UNL     1       1.770   2.599  21.255  0.00  0.00    +0.000 F 
ATOM     12  C   UNL     1       1.910   4.831  20.538  0.00  0.00    +0.000 A 
ATOM     13  C   UNL     1       2.604   5.844  19.850  0.00  0.00    +0.000 A 
ATOM     14  C   UNL     1       3.823   5.572  19.214  0.00  0.00    +0.000 A 
ATOM     15  N   UNL     1       4.515   6.518  18.530  0.00  0.00    +0.000 NA
ATOM     16  C   UNL     1       5.698   6.162  17.965  0.00  0.00    +0.000 A 
ATOM     17  C   UNL     1       6.439   7.239  17.234  0.00  0.00    +0.000 C 
ENDBRANCH   1  13
BRANCH   3  18
ATOM     18  C   UNL     1       1.364   9.226  18.590  0.00  0.00    +0.000 A 
ATOM     19  C   UNL     1       1.962  10.369  19.119  0.00  0.00    +0.000 A 
ATOM     20  C   UNL     1       1.310  11.597  19.097  0.00  0.00    +0.000 A 
ATOM     21  C   UNL     1       0.033  11.712  18.548  0.00  0.00    +0.000 A 
ATOM     22 CL   UNL     1      -0.666  13.292  18.659  0.00  0.00    +0.000 Cl
ATOM     23  C   UNL     1      -0.584  10.587  17.972  0.00  0.00    +0.000 A 
ATOM     24  C   UNL     1       0.119   9.355  17.963  0.00  0.00    +0.000 A 
BRANCH  23  25
ATOM     25  C   UNL     1      -1.971  10.550  17.414  0.00  0.00    +0.000 C 
ATOM     26  N   UNL     1      -2.269  11.284  16.302  0.00  0.00    +0.000 N 
ATOM     27  O   UNL     1      -2.855   9.896  17.954  0.00  0.00    +0.000 OA
ATOM     28  H   UNL     1      -1.597  11.871  15.825  0.00  0.00    +0.000 HD
ATOM     29  H   UNL     1      -3.226  11.295  15.979  0.00  0.00    +0.000 HD
ENDBRANCH  23  25
ENDBRANCH   3  18
TORSDOF 3
ENDMDL
MODEL 8
REMARK VINA RESULT:      -7.8      2.068      2.449
REMARK  Name = 
REMARK  5 active torsions:
REMARK  status: ('A' for Active; 'I' for Inactive)
REMARK    1  A    between atoms: C_1  and  C_2
REMARK    2  A    between atoms: C_9  and  C_10
REMARK    3  A    between atoms: N_12  and  C_13
REMARK    4  A    between atoms: C_18  and  C_19
REMARK    5  A    between atoms: C_25  and  C_26
REMARK                            x       y       z     vdW  Elec       q    Type
REMARK                         _______ _______ _______ _____ _____    ______ ____
ROOT
ATOM      1  C   UNL     1       1.587   6.056  20.622  0.00  0.00    +0.000 C 
ATOM      2  O   UNL     1       0.380   5.813  20.563  0.00  0.00    +0.000 OA
ATOM      3  N   UNL     1       2.127   7.323  20.778  0.00  0.00    +0.000 N 
ATOM      4  H   UNL     1       3.138   7.407  20.656  0.00  0.00    +0.000 HD
ENDROOT
BRANCH   1  13
ATOM      5  C   UNL     1       6.987   4.570  17.091  0.00  0.00    +0.000 C 
ATOM      6  C   UNL     1       5.773   4.695  17.959  0.00  0.00    +0.000 A 
ATOM      7  N   UNL     1       5.483   3.635  18.751  0.00  0.00    +0.000 NA
ATOM      8  C   UNL     1       4.410   3.721  19.550  0.00  0.00    +0.000 A 
ATOM      9  C   UNL     1       4.120   2.636  20.360  0.00  0.00    +0.000 A 
ATOM     10  C   UNL     1       3.033   2.662  21.208  0.00  0.00    +0.000 A 
ATOM     11  F   UNL     1       2.762   1.604  21.984  0.00  0.00    +0.000 F 
ATOM     12  C   UNL     1       2.223   3.775  21.270  0.00  0.00    +0.000 A 
ATOM     13  C   UNL     1       2.503   4.892  20.459  0.00  0.00    +0.000 A 
ATOM     14  C   UNL     1       3.593   4.883  19.580  0.00  0.00    +0.000 A 
ATOM     15  N   UNL     1       3.888   5.933  18.772  0.00  0.00    +0.000 NA
ATOM     16  C   UNL     1       4.978   5.837  17.969  0.00  0.00    +0.000 A 
ATOM     17  C   UNL     1       5.278   7.024  17.106  0.00  0.00    +0.000 C 
ENDBRANCH   1  13
BRANCH   3  18
ATOM     18  C   UNL     1       1.366   8.506  20.911  0.00  0.00    +0.000 A 
ATOM     19  C   UNL     1       0.944   8.974  22.155  0.00  0.00    +0.000 A 
ATOM     20  C   UNL     1       0.100  10.074  22.261  0.00  0.00    +0.000 A 
ATOM     21  C   UNL     1      -0.351  10.734  21.117  0.00  0.00    +0.000 A 
ATOM     22 CL   UNL     1      -1.448  12.039  21.418  0.00  0.00    +0.000 Cl
ATOM     23  C   UNL     1       0.084  10.312  19.849  0.00  0.00    +0.000 A 
ATOM     24  C   UNL     1       0.983   9.217  19.768  0.00  0.00    +0.000 A 
BRANCH  23  25
ATOM     25  C   UNL     1      -0.373  10.877  18.542  0.00  0.00    +0.000 C 
ATOM     26  N   UNL     1       0.056  12.115  18.158  0.00  0.00    +0.000 N 
ATOM     27  O   UNL     1      -1.152  10.264  17.823  0.00  0.00    +0.000 OA
ATOM     28  H   UNL     1       0.672  12.690  18.719  0.00  0.00    +0.000 HD
ATOM     29  H   UNL     1      -0.315  12.505  17.304  0.00  0.00    +0.000 HD
ENDBRANCH  23  25
ENDBRANCH   3  18
TORSDOF 3
ENDMDL
MODEL 9
REMARK VINA RESULT:      -7.8      1.416      1.536
REMARK  Name = 
REMARK  5 active torsions:
REMARK  status: ('A' for Active; 'I' for Inactive)
REMARK    1  A    between atoms: C_1  and  C_2
REMARK    2  A    between atoms: C_9  and  C_10
REMARK    3  A    between atoms: N_12  and  C_13
REMARK    4  A    between atoms: C_18  and  C_19
REMARK    5  A    between atoms: C_25  and  C_26
REMARK                            x       y       z     vdW  Elec       q    Type
REMARK                         _______ _______ _______ _____ _____    ______ ____
ROOT
ATOM      1  C   UNL     1       2.157   7.565  18.733  0.00  0.00    +0.000 C 
ATOM      2  O   UNL     1       2.093   7.764  19.948  0.00  0.00    +0.000 OA
ATOM      3  N   UNL     1       1.855   8.510  17.765  0.00  0.00    +0.000 N 
ATOM      4  H   UNL     1       1.797   8.174  16.801  0.00  0.00    +0.000 HD
ENDROOT
BRANCH   1  13
ATOM      5  C   UNL     1       7.610   4.462  16.621  0.00  0.00    +0.000 C 
ATOM      6  C   UNL     1       6.272   4.972  17.060  0.00  0.00    +0.000 A 
ATOM      7  N   UNL     1       5.273   4.060  17.138  0.00  0.00    +0.000 NA
ATOM      8  C   UNL     1       4.066   4.483  17.541  0.00  0.00    +0.000 A 
ATOM      9  C   UNL     1       3.049   3.546  17.622  0.00  0.00    +0.000 A 
ATOM     10  C   UNL     1       1.785   3.915  18.034  0.00  0.00    +0.000 A 
ATOM     11  F   UNL     1       0.810   2.999  18.105  0.00  0.00    +0.000 F 
ATOM     12  C   UNL     1       1.518   5.221  18.380  0.00  0.00    +0.000 A 
ATOM     13  C   UNL     1       2.539   6.188  18.310  0.00  0.00    +0.000 A 
ATOM     14  C   UNL     1       3.826   5.840  17.881  0.00  0.00    +0.000 A 
ATOM     15  N   UNL     1       4.833   6.746  17.786  0.00  0.00    +0.000 NA
ATOM     16  C   UNL     1       6.052   6.307  17.380  0.00  0.00    +0.000 A 
ATOM     17  C   UNL     1       7.140   7.335  17.305  0.00  0.00    +0.000 C 
ENDBRANCH   1  13
BRANCH   3  18
ATOM     18  C   UNL     1       1.451   9.836  18.039  0.00  0.00    +0.000 A 
ATOM     19  C   UNL     1       2.364  10.890  18.078  0.00  0.00    +0.000 A 
ATOM     20  C   UNL     1       1.971  12.167  18.462  0.00  0.00    +0.000 A 
ATOM     21  C   UNL     1       0.649  12.423  18.826  0.00  0.00    +0.000 A 
ATOM     22 CL   UNL     1       0.339  14.046  19.342  0.00  0.00    +0.000 Cl
ATOM     23  C   UNL     1      -0.305  11.393  18.762  0.00  0.00    +0.000 A 
ATOM     24  C   UNL     1       0.108  10.108  18.322  0.00  0.00    +0.000 A 
BRANCH  23  25
ATOM     25  C   UNL     1      -1.734  11.506  19.188  0.00  0.00    +0.000 C 
ATOM     26  N   UNL     1      -2.727  11.221  18.295  0.00  0.00    +0.000 N 
ATOM     27  O   UNL     1      -2.033  11.882  20.316  0.00  0.00    +0.000 OA
ATOM     28  H   UNL     1      -2.552  10.938  17.340  0.00  0.00    +0.000 HD
ATOM     29  H   UNL     1      -3.684  11.366  18.583  0.00  0.00    +0.000 HD
ENDBRANCH  23  25
ENDBRANCH   3  18
TORSDOF 3
ENDMDL
