MODEL 1
REMARK VINA RESULT:      -8.2      0.000      0.000
REMARK  Name = 
REMARK  3 active torsions:
REMARK  status: ('A' for Active; 'I' for Inactive)
REMARK    1  A    between atoms: C_5  and  C_7
REMARK    2  A    between atoms: N_10  and  C_11
REMARK    3  A    between atoms: C_11  and  C_12
REMARK                            x       y       z     vdW  Elec       q    Type
REMARK                         _______ _______ _______ _____ _____    ______ ____
ROOT
ATOM      1  O   UNL     1       0.691   9.408  23.826  0.00  0.00    +0.000 OA
ATOM      2  C   UNL     1       0.189  10.050  22.907  0.00  0.00    +0.000 C 
ATOM      3  C   UNL     1       0.910  10.314  21.595  0.00  0.00    +0.000 C 
ATOM      4  N   UNL     1       0.033  10.632  20.460  0.00  0.00    +0.000 N 
ATOM      5  C   UNL     1       0.084   9.979  19.213  0.00  0.00    +0.000 C 
ATOM      6  O   UNL     1      -0.812  10.090  18.372  0.00  0.00    +0.000 OA
ATOM      7  C   UNL     1      -1.063  11.511  20.782  0.00  0.00    +0.000 A 
ATOM      8  C   UNL     1      -1.692  12.321  19.828  0.00  0.00    +0.000 A 
ATOM      9  C   UNL     1      -2.780  13.129  20.183  0.00  0.00    +0.000 A 
ATOM     10  C   UNL     1      -3.271  13.115  21.487  0.00  0.00    +0.000 A 
ATOM     11  C   UNL     1      -2.664  12.311  22.447  0.00  0.00    +0.000 A 
ATOM     12  C   UNL     1      -1.556  11.532  22.101  0.00  0.00    +0.000 A 
ATOM     13  N   UNL     1      -0.981  10.730  23.092  0.00  0.00    +0.000 N 
ATOM     14  H   UNL     1      -1.409  10.647  24.004  0.00  0.00    +0.000 HD
ENDROOT
BRANCH   5  15
ATOM     15  C   UNL     1       1.193   9.075  18.903  0.00  0.00    +0.000 A 
ATOM     16  C   UNL     1       1.997   8.891  17.755  0.00  0.00    +0.000 A 
ATOM     17  N   UNL     1       2.896   7.910  17.888  0.00  0.00    +0.000 NA
ATOM     18  N   UNL     1       2.646   7.415  19.119  0.00  0.00    +0.000 N 
ATOM     19  C   UNL     1       1.632   8.073  19.752  0.00  0.00    +0.000 A 
BRANCH  18  20
ATOM     20  C   UNL     1       3.333   6.212  19.579  0.00  0.00    +0.000 C 
BRANCH  20  21
ATOM     21  C   UNL     1       2.520   4.965  19.330  0.00  0.00    +0.000 A 
ATOM     22  C   UNL     1       1.525   4.608  20.261  0.00  0.00    +0.000 A 
ATOM     23  C   UNL     1       0.718   3.488  20.055  0.00  0.00    +0.000 A 
ATOM     24  C   UNL     1       0.882   2.710  18.914  0.00  0.00    +0.000 A 
ATOM     25  C   UNL     1       1.868   3.043  17.986  0.00  0.00    +0.000 A 
ATOM     26  C   UNL     1       2.687   4.157  18.195  0.00  0.00    +0.000 A 
ATOM     27 CL   UNL     1       3.910   4.469  17.015  0.00  0.00    +0.000 Cl
ENDBRANCH  20  21
ENDBRANCH  18  20
ENDBRANCH   5  15
TORSDOF 3
ENDMDL
MODEL 2
REMARK VINA RESULT:      -8.0      2.508      3.826
REMARK  Name = 
REMARK  3 active torsions:
REMARK  status: ('A' for Active; 'I' for Inactive)
REMARK    1  A    between atoms: C_5  and  C_7
REMARK    2  A    between atoms: N_10  and  C_11
REMARK    3  A    between atoms: C_11  and  C_12
REMARK                            x       y       z     vdW  Elec       q    Type
REMARK                         _______ _______ _______ _____ _____    ______ ____
ROOT
ATOM      1  O   UNL     1       2.408  12.421  17.994  0.00  0.00    +0.000 OA
ATOM      2  C   UNL     1       1.741  11.872  18.867  0.00  0.00    +0.000 C 
ATOM      3  C   UNL     1       1.258  10.435  18.753  0.00  0.00    +0.000 C 
ATOM      4  N   UNL     1       0.935   9.787  20.032  0.00  0.00    +0.000 N 
ATOM      5  C   UNL     1       1.446   8.539  20.439  0.00  0.00    +0.000 C 
ATOM      6  O   UNL     1       1.359   8.138  21.603  0.00  0.00    +0.000 OA
ATOM      7  C   UNL     1       0.235  10.632  20.968  0.00  0.00    +0.000 A 
ATOM      8  C   UNL     1      -0.585  10.123  21.982  0.00  0.00    +0.000 A 
ATOM      9  C   UNL     1      -1.213  10.985  22.892  0.00  0.00    +0.000 A 
ATOM     10  C   UNL     1      -1.006  12.361  22.816  0.00  0.00    +0.000 A 
ATOM     11  C   UNL     1      -0.188  12.884  21.819  0.00  0.00    +0.000 A 
ATOM     12  C   UNL     1       0.409  12.028  20.890  0.00  0.00    +0.000 A 
ATOM     13  N   UNL     1       1.232  12.592  19.911  0.00  0.00    +0.000 N 
ATOM     14  H   UNL     1       1.460  13.576  19.929  0.00  0.00    +0.000 HD
ENDROOT
BRANCH   5  15
ATOM     15  C   UNL     1       2.170   7.698  19.486  0.00  0.00    +0.000 A 
ATOM     16  C   UNL     1       2.543   7.871  18.133  0.00  0.00    +0.000 A 
ATOM     17  N   UNL     1       3.180   6.814  17.619  0.00  0.00    +0.000 NA
ATOM     18  N   UNL     1       3.184   5.920  18.631  0.00  0.00    +0.000 N 
ATOM     19  C   UNL     1       2.582   6.403  19.757  0.00  0.00    +0.000 A 
BRANCH  18  20
ATOM     20  C   UNL     1       3.665   4.561  18.408  0.00  0.00    +0.000 C 
BRANCH  20  21
ATOM     21  C   UNL     1       4.859   4.525  17.487  0.00  0.00    +0.000 A 
ATOM     22  C   UNL     1       4.673   4.111  16.154  0.00  0.00    +0.000 A 
ATOM     23  C   UNL     1       5.736   4.101  15.249  0.00  0.00    +0.000 A 
ATOM     24  C   UNL     1       7.001   4.513  15.656  0.00  0.00    +0.000 A 
ATOM     25  C   UNL     1       7.206   4.916  16.974  0.00  0.00    +0.000 A 
ATOM     26  C   UNL     1       6.146   4.916  17.886  0.00  0.00    +0.000 A 
ATOM     27 CL   UNL     1       6.501   5.392  19.509  0.00  0.00    +0.000 Cl
ENDBRANCH  20  21
ENDBRANCH  18  20
ENDBRANCH   5  15
TORSDOF 3
ENDMDL
MODEL 3
REMARK VINA RESULT:      -8.0      2.844      3.897
REMARK  Name = 
REMARK  3 active torsions:
REMARK  status: ('A' for Active; 'I' for Inactive)
REMARK    1  A    between atoms: C_5  and  C_7
REMARK    2  A    between atoms: N_10  and  C_11
REMARK    3  A    between atoms: C_11  and  C_12
REMARK                            x       y       z     vdW  Elec       q    Type
REMARK                         _______ _______ _______ _____ _____    ______ ____
ROOT
ATOM      1  O   UNL     1      -0.770   8.185  22.296  0.00  0.00    +0.000 OA
ATOM      2  C   UNL     1      -0.184   8.878  21.468  0.00  0.00    +0.000 C 
ATOM      3  C   UNL     1       1.207   8.545  20.951  0.00  0.00    +0.000 C 
ATOM      4  N   UNL     1       1.543   9.144  19.652  0.00  0.00    +0.000 N 
ATOM      5  C   UNL     1       2.039   8.419  18.551  0.00  0.00    +0.000 C 
ATOM      6  O   UNL     1       2.078   8.893  17.412  0.00  0.00    +0.000 OA
ATOM      7  C   UNL     1       1.105  10.508  19.493  0.00  0.00    +0.000 A 
ATOM      8  C   UNL     1       1.718  11.404  18.609  0.00  0.00    +0.000 A 
ATOM      9  C   UNL     1       1.229  12.708  18.461  0.00  0.00    +0.000 A 
ATOM     10  C   UNL     1       0.105  13.124  19.173  0.00  0.00    +0.000 A 
ATOM     11  C   UNL     1      -0.522  12.245  20.051  0.00  0.00    +0.000 A 
ATOM     12  C   UNL     1      -0.013  10.955  20.225  0.00  0.00    +0.000 A 
ATOM     13  N   UNL     1      -0.678  10.099  21.108  0.00  0.00    +0.000 N 
ATOM     14  H   UNL     1      -1.551  10.374  21.537  0.00  0.00    +0.000 HD
ENDROOT
BRANCH   5  15
ATOM     15  C   UNL     1       2.466   7.029  18.720  0.00  0.00    +0.000 A 
ATOM     16  C   UNL     1       1.872   5.905  19.338  0.00  0.00    +0.000 A 
ATOM     17  N   UNL     1       2.637   4.809  19.293  0.00  0.00    +0.000 NA
ATOM     18  N   UNL     1       3.763   5.232  18.681  0.00  0.00    +0.000 N 
ATOM     19  C   UNL     1       3.707   6.550  18.333  0.00  0.00    +0.000 A 
BRANCH  18  20
ATOM     20  C   UNL     1       4.920   4.347  18.578  0.00  0.00    +0.000 C 
BRANCH  20  21
ATOM     21  C   UNL     1       5.615   4.475  17.246  0.00  0.00    +0.000 A 
ATOM     22  C   UNL     1       4.985   3.952  16.100  0.00  0.00    +0.000 A 
ATOM     23  C   UNL     1       5.566   4.081  14.837  0.00  0.00    +0.000 A 
ATOM     24  C   UNL     1       6.781   4.743  14.694  0.00  0.00    +0.000 A 
ATOM     25  C   UNL     1       7.425   5.258  15.818  0.00  0.00    +0.000 A 
ATOM     26  C   UNL     1       6.851   5.120  17.086  0.00  0.00    +0.000 A 
ATOM     27 CL   UNL     1       7.739   5.752  18.427  0.00  0.00    +0.000 Cl
ENDBRANCH  20  21
ENDBRANCH  18  20
ENDBRANCH   5  15
TORSDOF 3
ENDMDL
MODEL 4
REMARK VINA RESULT:      -8.0      1.417      2.709
REMARK  Name = 
REMARK  3 active torsions:
REMARK  status: ('A' for Active; 'I' for Inactive)
REMARK    1  A    between atoms: C_5  and  C_7
REMARK    2  A    between atoms: N_10  and  C_11
REMARK    3  A    between atoms: C_11  and  C_12
REMARK                            x       y       z     vdW  Elec       q    Type
REMARK                         _______ _______ _______ _____ _____    ______ ____
ROOT
ATOM      1  O   UNL     1      -2.004  11.501  16.928  0.00  0.00    +0.000 OA
ATOM      2  C   UNL     1      -1.812  11.418  18.139  0.00  0.00    +0.000 C 
ATOM      3  C   UNL     1      -1.254  10.168  18.801  0.00  0.00    +0.000 C 
ATOM      4  N   UNL     1      -0.626  10.390  20.110  0.00  0.00    +0.000 N 
ATOM      5  C   UNL     1       0.667   9.948  20.453  0.00  0.00    +0.000 C 
ATOM      6  O   UNL     1       1.259  10.355  21.457  0.00  0.00    +0.000 OA
ATOM      7  C   UNL     1      -1.336  11.310  20.964  0.00  0.00    +0.000 A 
ATOM      8  C   UNL     1      -1.228  11.288  22.359  0.00  0.00    +0.000 A 
ATOM      9  C   UNL     1      -1.908  12.229  23.143  0.00  0.00    +0.000 A 
ATOM     10  C   UNL     1      -2.679  13.221  22.541  0.00  0.00    +0.000 A 
ATOM     11  C   UNL     1      -2.793  13.264  21.154  0.00  0.00    +0.000 A 
ATOM     12  C   UNL     1      -2.144  12.302  20.375  0.00  0.00    +0.000 A 
ATOM     13  N   UNL     1      -2.274  12.386  18.985  0.00  0.00    +0.000 N 
ATOM     14  H   UNL     1      -2.747  13.169  18.555  0.00  0.00    +0.000 HD
ENDROOT
BRANCH   5  15
ATOM     15  C   UNL     1       1.385   9.028  19.572  0.00  0.00    +0.000 A 
ATOM     16  C   UNL     1       1.489   8.919  18.166  0.00  0.00    +0.000 A 
ATOM     17  N   UNL     1       2.240   7.888  17.767  0.00  0.00    +0.000 NA
ATOM     18  N   UNL     1       2.594   7.286  18.922  0.00  0.00    +0.000 N 
ATOM     19  C   UNL     1       2.096   7.926  20.020  0.00  0.00    +0.000 A 
BRANCH  18  20
ATOM     20  C   UNL     1       3.305   6.011  18.899  0.00  0.00    +0.000 C 
BRANCH  20  21
ATOM     21  C   UNL     1       2.530   4.917  19.590  0.00  0.00    +0.000 A 
ATOM     22  C   UNL     1       2.789   4.659  20.950  0.00  0.00    +0.000 A 
ATOM     23  C   UNL     1       2.070   3.687  21.647  0.00  0.00    +0.000 A 
ATOM     24  C   UNL     1       1.074   2.960  21.003  0.00  0.00    +0.000 A 
ATOM     25  C   UNL     1       0.810   3.194  19.654  0.00  0.00    +0.000 A 
ATOM     26  C   UNL     1       1.537   4.160  18.949  0.00  0.00    +0.000 A 
ATOM     27 CL   UNL     1       1.172   4.353  17.272  0.00  0.00    +0.000 Cl
ENDBRANCH  20  21
ENDBRANCH  18  20
ENDBRANCH   5  15
TORSDOF 3
ENDMDL
MODEL 5
REMARK VINA RESULT:      -7.9      1.656      3.131
REMARK  Name = 
REMARK  3 active torsions:
REMARK  status: ('A' for Active; 'I' for Inactive)
REMARK    1  A    between atoms: C_5  and  C_7
REMARK    2  A    between atoms: N_10  and  C_11
REMARK    3  A    between atoms: C_11  and  C_12
REMARK                            x       y       z     vdW  Elec       q    Type
REMARK                         _______ _______ _______ _____ _____    ______ ____
ROOT
ATOM      1  O   UNL     1      -2.063  11.076  17.062  0.00  0.00    +0.000 OA
ATOM      2  C   UNL     1      -1.858  11.266  18.259  0.00  0.00    +0.000 C 
ATOM      3  C   UNL     1      -1.343  10.180  19.189  0.00  0.00    +0.000 C 
ATOM      4  N   UNL     1      -0.690  10.671  20.410  0.00  0.00    +0.000 N 
ATOM      5  C   UNL     1       0.589  10.266  20.842  0.00  0.00    +0.000 C 
ATOM      6  O   UNL     1       1.210  10.867  21.722  0.00  0.00    +0.000 OA
ATOM      7  C   UNL     1      -1.351  11.792  21.031  0.00  0.00    +0.000 A 
ATOM      8  C   UNL     1      -1.226  12.087  22.393  0.00  0.00    +0.000 A 
ATOM      9  C   UNL     1      -1.856  13.212  22.941  0.00  0.00    +0.000 A 
ATOM     10  C   UNL     1      -2.595  14.070  22.128  0.00  0.00    +0.000 A 
ATOM     11  C   UNL     1      -2.724  13.797  20.770  0.00  0.00    +0.000 A 
ATOM     12  C   UNL     1      -2.125  12.655  20.231  0.00  0.00    +0.000 A 
ATOM     13  N   UNL     1      -2.270  12.422  18.860  0.00  0.00    +0.000 N 
ATOM     14  H   UNL     1      -2.716  13.104  18.262  0.00  0.00    +0.000 HD
ENDROOT
BRANCH   5  15
ATOM     15  C   UNL     1       1.258   9.137  20.194  0.00  0.00    +0.000 A 
ATOM     16  C   UNL     1       1.694   8.903  18.870  0.00  0.00    +0.000 A 
ATOM     17  N   UNL     1       2.240   7.695  18.696  0.00  0.00    +0.000 NA
ATOM     18  N   UNL     1       2.117   7.113  19.908  0.00  0.00    +0.000 N 
ATOM     19  C   UNL     1       1.527   7.933  20.825  0.00  0.00    +0.000 A 
BRANCH  18  20
ATOM     20  C   UNL     1       2.467   5.707  20.087  0.00  0.00    +0.000 C 
BRANCH  20  21
ATOM     21  C   UNL     1       3.452   5.231  19.047  0.00  0.00    +0.000 A 
ATOM     22  C   UNL     1       4.826   5.442  19.271  0.00  0.00    +0.000 A 
ATOM     23  C   UNL     1       5.781   4.984  18.362  0.00  0.00    +0.000 A 
ATOM     24  C   UNL     1       5.382   4.299  17.218  0.00  0.00    +0.000 A 
ATOM     25  C   UNL     1       4.026   4.090  16.975  0.00  0.00    +0.000 A 
ATOM     26  C   UNL     1       3.065   4.558  17.878  0.00  0.00    +0.000 A 
ATOM     27 CL   UNL     1       1.407   4.292  17.475  0.00  0.00    +0.000 Cl
ENDBRANCH  20  21
ENDBRANCH  18  20
ENDBRANCH   5  15
TORSDOF 3
ENDMDL
MODEL 6
REMARK VINA RESULT:      -7.8      2.204      3.586
REMARK  Name = 
REMARK  3 active torsions:
REMARK  status: ('A' for Active; 'I' for Inactive)
REMARK    1  A    between atoms: C_5  and  C_7
REMARK    2  A    between atoms: N_10  and  C_11
REMARK    3  A    between atoms: C_11  and  C_12
REMARK                            x       y       z     vdW  Elec       q    Type
REMARK                         _______ _______ _______ _____ _____    ______ ____
ROOT
ATOM      1  O   UNL     1      -2.829  11.523  17.179  0.00  0.00    +0.000 OA
ATOM      2  C   UNL     1      -2.400  11.575  18.330  0.00  0.00    +0.000 C 
ATOM      3  C   UNL     1      -1.530  10.485  18.935  0.00  0.00    +0.000 C 
ATOM      4  N   UNL     1      -0.710  10.911  20.077  0.00  0.00    +0.000 N 
ATOM      5  C   UNL     1       0.679  10.698  20.178  0.00  0.00    +0.000 C 
ATOM      6  O   UNL     1       1.376  11.274  21.017  0.00  0.00    +0.000 OA
ATOM      7  C   UNL     1      -1.386  11.786  21.003  0.00  0.00    +0.000 A 
ATOM      8  C   UNL     1      -1.013  11.902  22.347  0.00  0.00    +0.000 A 
ATOM      9  C   UNL     1      -1.676  12.797  23.197  0.00  0.00    +0.000 A 
ATOM     10  C   UNL     1      -2.699  13.606  22.708  0.00  0.00    +0.000 A 
ATOM     11  C   UNL     1      -3.078  13.510  21.372  0.00  0.00    +0.000 A 
ATOM     12  C   UNL     1      -2.441  12.592  20.533  0.00  0.00    +0.000 A 
ATOM     13  N   UNL     1      -2.844  12.534  19.196  0.00  0.00    +0.000 N 
ATOM     14  H   UNL     1      -3.512  13.197  18.826  0.00  0.00    +0.000 HD
ENDROOT
BRANCH   5  15
ATOM     15  C   UNL     1       1.357   9.821  19.223  0.00  0.00    +0.000 A 
ATOM     16  C   UNL     1       1.896  10.031  17.933  0.00  0.00    +0.000 A 
ATOM     17  N   UNL     1       2.408   8.924  17.385  0.00  0.00    +0.000 NA
ATOM     18  N   UNL     1       2.161   7.969  18.307  0.00  0.00    +0.000 N 
ATOM     19  C   UNL     1       1.526   8.459  19.411  0.00  0.00    +0.000 A 
BRANCH  18  20
ATOM     20  C   UNL     1       2.440   6.568  18.006  0.00  0.00    +0.000 C 
BRANCH  20  21
ATOM     21  C   UNL     1       3.905   6.238  18.153  0.00  0.00    +0.000 A 
ATOM     22  C   UNL     1       4.824   6.827  17.264  0.00  0.00    +0.000 A 
ATOM     23  C   UNL     1       6.195   6.588  17.384  0.00  0.00    +0.000 A 
ATOM     24  C   UNL     1       6.672   5.765  18.399  0.00  0.00    +0.000 A 
ATOM     25  C   UNL     1       5.776   5.165  19.282  0.00  0.00    +0.000 A 
ATOM     26  C   UNL     1       4.402   5.392  19.158  0.00  0.00    +0.000 A 
ATOM     27 CL   UNL     1       3.362   4.575  20.269  0.00  0.00    +0.000 Cl
ENDBRANCH  20  21
ENDBRANCH  18  20
ENDBRANCH   5  15
TORSDOF 3
ENDMDL
MODEL 7
REMARK VINA RESULT:      -7.7      0.872      1.069
REMARK  Name = 
REMARK  3 active torsions:
REMARK  status: ('A' for Active; 'I' for Inactive)
REMARK    1  A    between atoms: C_5  and  C_7
REMARK    2  A    between atoms: N_10  and  C_11
REMARK    3  A    between atoms: C_11  and  C_12
REMARK                            x       y       z     vdW  Elec       q    Type
REMARK                         _______ _______ _______ _____ _____    ______ ____
ROOT
ATOM      1  O   UNL     1       0.271   9.600  23.891  0.00  0.00    +0.000 OA
ATOM      2  C   UNL     1      -0.227  10.266  22.987  0.00  0.00    +0.000 C 
ATOM      3  C   UNL     1       0.502  10.567  21.687  0.00  0.00    +0.000 C 
ATOM      4  N   UNL     1      -0.369  10.914  20.555  0.00  0.00    +0.000 N 
ATOM      5  C   UNL     1      -0.308  10.295  19.292  0.00  0.00    +0.000 C 
ATOM      6  O   UNL     1      -1.200  10.427  18.448  0.00  0.00    +0.000 OA
ATOM      7  C   UNL     1      -1.469  11.781  20.894  0.00  0.00    +0.000 A 
ATOM      8  C   UNL     1      -2.093  12.615  19.959  0.00  0.00    +0.000 A 
ATOM      9  C   UNL     1      -3.186  13.411  20.329  0.00  0.00    +0.000 A 
ATOM     10  C   UNL     1      -3.685  13.361  21.629  0.00  0.00    +0.000 A 
ATOM     11  C   UNL     1      -3.083  12.532  22.570  0.00  0.00    +0.000 A 
ATOM     12  C   UNL     1      -1.971  11.766  22.211  0.00  0.00    +0.000 A 
ATOM     13  N   UNL     1      -1.400  10.938  23.182  0.00  0.00    +0.000 N 
ATOM     14  H   UNL     1      -1.833  10.829  24.090  0.00  0.00    +0.000 HD
ENDROOT
BRANCH   5  15
ATOM     15  C   UNL     1       0.804   9.403  18.964  0.00  0.00    +0.000 A 
ATOM     16  C   UNL     1       1.527   9.156  17.775  0.00  0.00    +0.000 A 
ATOM     17  N   UNL     1       2.466   8.214  17.910  0.00  0.00    +0.000 NA
ATOM     18  N   UNL     1       2.326   7.806  19.189  0.00  0.00    +0.000 N 
ATOM     19  C   UNL     1       1.340   8.480  19.848  0.00  0.00    +0.000 A 
BRANCH  18  20
ATOM     20  C   UNL     1       3.085   6.661  19.682  0.00  0.00    +0.000 C 
BRANCH  20  21
ATOM     21  C   UNL     1       2.919   5.448  18.799  0.00  0.00    +0.000 A 
ATOM     22  C   UNL     1       1.736   4.691  18.904  0.00  0.00    +0.000 A 
ATOM     23  C   UNL     1       1.515   3.586  18.081  0.00  0.00    +0.000 A 
ATOM     24  C   UNL     1       2.466   3.221  17.132  0.00  0.00    +0.000 A 
ATOM     25  C   UNL     1       3.647   3.953  17.021  0.00  0.00    +0.000 A 
ATOM     26  C   UNL     1       3.878   5.054  17.852  0.00  0.00    +0.000 A 
ATOM     27 CL   UNL     1       5.387   5.875  17.674  0.00  0.00    +0.000 Cl
ENDBRANCH  20  21
ENDBRANCH  18  20
ENDBRANCH   5  15
TORSDOF 3
ENDMDL
MODEL 8
REMARK VINA RESULT:      -7.7      1.811      2.451
REMARK  Name = 
REMARK  3 active torsions:
REMARK  status: ('A' for Active; 'I' for Inactive)
REMARK    1  A    between atoms: C_5  and  C_7
REMARK    2  A    between atoms: N_10  and  C_11
REMARK    3  A    between atoms: C_11  and  C_12
REMARK                            x       y       z     vdW  Elec       q    Type
REMARK                         _______ _______ _______ _____ _____    ______ ____
ROOT
ATOM      1  O   UNL     1       3.307  13.519  18.737  0.00  0.00    +0.000 OA
ATOM      2  C   UNL     1       2.166  13.147  19.000  0.00  0.00    +0.000 C 
ATOM      3  C   UNL     1       1.569  11.863  18.446  0.00  0.00    +0.000 C 
ATOM      4  N   UNL     1       0.447  11.317  19.221  0.00  0.00    +0.000 N 
ATOM      5  C   UNL     1       0.373   9.986  19.677  0.00  0.00    +0.000 C 
ATOM      6  O   UNL     1      -0.448   9.623  20.524  0.00  0.00    +0.000 OA
ATOM      7  C   UNL     1      -0.485  12.308  19.699  0.00  0.00    +0.000 A 
ATOM      8  C   UNL     1      -1.821  12.012  19.996  0.00  0.00    +0.000 A 
ATOM      9  C   UNL     1      -2.677  13.002  20.496  0.00  0.00    +0.000 A 
ATOM     10  C   UNL     1      -2.201  14.290  20.733  0.00  0.00    +0.000 A 
ATOM     11  C   UNL     1      -0.875  14.601  20.451  0.00  0.00    +0.000 A 
ATOM     12  C   UNL     1      -0.030  13.623  19.918  0.00  0.00    +0.000 A 
ATOM     13  N   UNL     1       1.298  13.972  19.658  0.00  0.00    +0.000 N 
ATOM     14  H   UNL     1       1.660  14.876  19.931  0.00  0.00    +0.000 HD
ENDROOT
BRANCH   5  15
ATOM     15  C   UNL     1       1.334   8.992  19.198  0.00  0.00    +0.000 A 
ATOM     16  C   UNL     1       1.865   8.699  17.922  0.00  0.00    +0.000 A 
ATOM     17  N   UNL     1       2.710   7.663  17.924  0.00  0.00    +0.000 NA
ATOM     18  N   UNL     1       2.697   7.243  19.207  0.00  0.00    +0.000 N 
ATOM     19  C   UNL     1       1.882   8.001  19.996  0.00  0.00    +0.000 A 
BRANCH  18  20
ATOM     20  C   UNL     1       3.391   6.017  19.585  0.00  0.00    +0.000 C 
BRANCH  20  21
ATOM     21  C   UNL     1       2.547   4.790  19.342  0.00  0.00    +0.000 A 
ATOM     22  C   UNL     1       1.542   4.465  20.273  0.00  0.00    +0.000 A 
ATOM     23  C   UNL     1       0.706   3.364  20.073  0.00  0.00    +0.000 A 
ATOM     24  C   UNL     1       0.852   2.575  18.937  0.00  0.00    +0.000 A 
ATOM     25  C   UNL     1       1.848   2.876  18.009  0.00  0.00    +0.000 A 
ATOM     26  C   UNL     1       2.696   3.970  18.212  0.00  0.00    +0.000 A 
ATOM     27 CL   UNL     1       3.929   4.244  17.034  0.00  0.00    +0.000 Cl
ENDBRANCH  20  21
ENDBRANCH  18  20
ENDBRANCH   5  15
TORSDOF 3
ENDMDL
MODEL 9
REMARK VINA RESULT:      -7.7      1.361      2.657
REMARK  Name = 
REMARK  3 active torsions:
REMARK  status: ('A' for Active; 'I' for Inactive)
REMARK    1  A    between atoms: C_5  and  C_7
REMARK    2  A    between atoms: N_10  and  C_11
REMARK    3  A    between atoms: C_11  and  C_12
REMARK                            x       y       z     vdW  Elec       q    Type
REMARK                         _______ _______ _______ _____ _____    ______ ____
ROOT
ATOM      1  O   UNL     1      -2.279  10.750  16.356  0.00  0.00    +0.000 OA
ATOM      2  C   UNL     1      -2.066  10.934  17.552  0.00  0.00    +0.000 C 
ATOM      3  C   UNL     1      -1.376   9.906  18.434  0.00  0.00    +0.000 C 
ATOM      4  N   UNL     1      -0.759  10.449  19.652  0.00  0.00    +0.000 N 
ATOM      5  C   UNL     1       0.576  10.215  20.035  0.00  0.00    +0.000 C 
ATOM      6  O   UNL     1       1.135  10.874  20.917  0.00  0.00    +0.000 OA
ATOM      7  C   UNL     1      -1.549  11.450  20.324  0.00  0.00    +0.000 A 
ATOM      8  C   UNL     1      -1.423  11.724  21.691  0.00  0.00    +0.000 A 
ATOM      9  C   UNL     1      -2.187  12.735  22.290  0.00  0.00    +0.000 A 
ATOM     10  C   UNL     1      -3.062  13.503  21.525  0.00  0.00    +0.000 A 
ATOM     11  C   UNL     1      -3.195  13.251  20.163  0.00  0.00    +0.000 A 
ATOM     12  C   UNL     1      -2.460  12.219  19.573  0.00  0.00    +0.000 A 
ATOM     13  N   UNL     1      -2.614  12.004  18.200  0.00  0.00    +0.000 N 
ATOM     14  H   UNL     1      -3.169  12.633  17.636  0.00  0.00    +0.000 HD
ENDROOT
BRANCH   5  15
ATOM     15  C   UNL     1       1.374   9.209  19.335  0.00  0.00    +0.000 A 
ATOM     16  C   UNL     1       1.586   8.925  17.966  0.00  0.00    +0.000 A 
ATOM     17  N   UNL     1       2.382   7.870  17.760  0.00  0.00    +0.000 NA
ATOM     18  N   UNL     1       2.657   7.430  19.006  0.00  0.00    +0.000 N 
ATOM     19  C   UNL     1       2.067   8.192  19.972  0.00  0.00    +0.000 A 
BRANCH  18  20
ATOM     20  C   UNL     1       3.389   6.182  19.199  0.00  0.00    +0.000 C 
BRANCH  20  21
ATOM     21  C   UNL     1       2.471   4.985  19.224  0.00  0.00    +0.000 A 
ATOM     22  C   UNL     1       1.600   4.822  20.319  0.00  0.00    +0.000 A 
ATOM     23  C   UNL     1       0.702   3.755  20.371  0.00  0.00    +0.000 A 
ATOM     24  C   UNL     1       0.649   2.837  19.326  0.00  0.00    +0.000 A 
ATOM     25  C   UNL     1       1.509   2.977  18.239  0.00  0.00    +0.000 A 
ATOM     26  C   UNL     1       2.420   4.038  18.190  0.00  0.00    +0.000 A 
ATOM     27 CL   UNL     1       3.477   4.109  16.825  0.00  0.00    +0.000 Cl
ENDBRANCH  20  21
ENDBRANCH  18  20
ENDBRANCH   5  15
TORSDOF 3
ENDMDL
