MODEL 1
REMARK VINA RESULT:      -8.7      0.000      0.000
REMARK  Name = 
REMARK  5 active torsions:
REMARK  status: ('A' for Active; 'I' for Inactive)
REMARK    1  A    between atoms: C_2  and  C_14
REMARK    2  A    between atoms: N_3  and  C_4
REMARK    3  A    between atoms: C_18  and  S_19
REMARK    4  A    between atoms: S_19  and  N_22
REMARK    5  A    between atoms: N_22  and  C_23
REMARK                            x       y       z     vdW  Elec       q    Type
REMARK                         _______ _______ _______ _____ _____    ______ ____
ROOT
ATOM      1  O   UNL     1       2.314   9.016  17.246  0.00  0.00    +0.000 OA
ATOM      2  C   UNL     1       1.991   8.526  18.323  0.00  0.00    +0.000 C 
ATOM      3  N   UNL     1       2.323   7.263  18.794  0.00  0.00    +0.000 N 
ATOM      4  H   UNL     1       1.818   6.918  19.603  0.00  0.00    +0.000 HD
ENDROOT
BRANCH   3   5
ATOM      5  C   UNL     1       3.183   6.343  18.151  0.00  0.00    +0.000 A 
ATOM      6  C   UNL     1       2.952   4.944  18.177  0.00  0.00    +0.000 A 
ATOM      7  C   UNL     1       3.823   4.040  17.561  0.00  0.00    +0.000 A 
ATOM      8  C   UNL     1       4.909   4.568  16.924  0.00  0.00    +0.000 A 
ATOM      9  N   UNL     1       5.939   3.928  16.247  0.00  0.00    +0.000 N 
ATOM     10  C   UNL     1       6.832   4.893  15.765  0.00  0.00    +0.000 A 
ATOM     11  O   UNL     1       7.853   4.689  15.133  0.00  0.00    +0.000 OA
ATOM     12  N   UNL     1       6.323   6.141  16.159  0.00  0.00    +0.000 N 
ATOM     13  C   UNL     1       5.142   5.942  16.870  0.00  0.00    +0.000 A 
ATOM     14  C   UNL     1       4.298   6.856  17.461  0.00  0.00    +0.000 A 
ATOM     15  H   UNL     1       6.056   2.936  16.115  0.00  0.00    +0.000 HD
ATOM     16  H   UNL     1       6.776   7.016  15.949  0.00  0.00    +0.000 HD
ENDBRANCH   3   5
BRANCH   2  17
ATOM     17  C   UNL     1       1.107   9.338  19.198  0.00  0.00    +0.000 A 
ATOM     18  C   UNL     1       0.977   8.965  20.544  0.00  0.00    +0.000 A 
ATOM     19  C   UNL     1       0.146   9.688  21.402  0.00  0.00    +0.000 A 
ATOM     20  C   UNL     1      -0.558  10.792  20.922  0.00  0.00    +0.000 A 
ATOM     21  C   UNL     1      -0.433  11.156  19.576  0.00  0.00    +0.000 A 
ATOM     22  C   UNL     1       0.384  10.426  18.704  0.00  0.00    +0.000 A 
BRANCH  21  23
ATOM     23  S   UNL     1      -1.245  12.613  18.970  0.00  0.00    +0.000 S 
ATOM     24  O   UNL     1      -2.456  12.773  19.744  0.00  0.00    +0.000 OA
ATOM     25  O   UNL     1      -0.265  13.676  18.886  0.00  0.00    +0.000 OA
BRANCH  23  26
ATOM     26  N   UNL     1      -1.717  12.207  17.404  0.00  0.00    +0.000 NA
ATOM     27  H   UNL     1      -0.905  12.154  16.787  0.00  0.00    +0.000 HD
BRANCH  26  28
ATOM     28  C   UNL     1      -2.741  11.177  17.243  0.00  0.00    +0.000 C 
ATOM     29  C   UNL     1      -2.487   9.982  16.364  0.00  0.00    +0.000 C 
ATOM     30  C   UNL     1      -3.454  11.041  15.926  0.00  0.00    +0.000 C 
ENDBRANCH  26  28
ENDBRANCH  23  26
ENDBRANCH  21  23
ENDBRANCH   2  17
TORSDOF 5
ENDMDL
MODEL 2
REMARK VINA RESULT:      -8.6      3.039      8.878
REMARK  Name = 
REMARK  5 active torsions:
REMARK  status: ('A' for Active; 'I' for Inactive)
REMARK    1  A    between atoms: C_2  and  C_14
REMARK    2  A    between atoms: N_3  and  C_4
REMARK    3  A    between atoms: C_18  and  S_19
REMARK    4  A    between atoms: S_19  and  N_22
REMARK    5  A    between atoms: N_22  and  C_23
REMARK                            x       y       z     vdW  Elec       q    Type
REMARK                         _______ _______ _______ _____ _____    ______ ____
ROOT
ATOM      1  O   UNL     1       2.181   7.282  19.691  0.00  0.00    +0.000 OA
ATOM      2  C   UNL     1       2.514   7.384  18.515  0.00  0.00    +0.000 C 
ATOM      3  N   UNL     1       2.207   8.427  17.652  0.00  0.00    +0.000 N 
ATOM      4  H   UNL     1       2.371   8.279  16.663  0.00  0.00    +0.000 HD
ENDROOT
BRANCH   3   5
ATOM      5  C   UNL     1       1.533   9.618  18.006  0.00  0.00    +0.000 A 
ATOM      6  C   UNL     1       0.128   9.665  18.199  0.00  0.00    +0.000 A 
ATOM      7  C   UNL     1      -0.535  10.853  18.523  0.00  0.00    +0.000 A 
ATOM      8  C   UNL     1       0.237  11.972  18.652  0.00  0.00    +0.000 A 
ATOM      9  N   UNL     1      -0.136  13.277  18.948  0.00  0.00    +0.000 N 
ATOM     10  C   UNL     1       1.011  14.081  18.965  0.00  0.00    +0.000 A 
ATOM     11  O   UNL     1       1.057  15.279  19.182  0.00  0.00    +0.000 OA
ATOM     12  N   UNL     1       2.097  13.237  18.678  0.00  0.00    +0.000 N 
ATOM     13  C   UNL     1       1.621  11.942  18.486  0.00  0.00    +0.000 A 
ATOM     14  C   UNL     1       2.301  10.785  18.175  0.00  0.00    +0.000 A 
ATOM     15  H   UNL     1      -1.068  13.620  19.117  0.00  0.00    +0.000 HD
ATOM     16  H   UNL     1       3.049  13.560  18.620  0.00  0.00    +0.000 HD
ENDBRANCH   3   5
BRANCH   2  17
ATOM     17  C   UNL     1       3.277   6.252  17.928  0.00  0.00    +0.000 A 
ATOM     18  C   UNL     1       2.655   4.997  17.853  0.00  0.00    +0.000 A 
ATOM     19  C   UNL     1       3.337   3.900  17.324  0.00  0.00    +0.000 A 
ATOM     20  C   UNL     1       4.645   4.050  16.862  0.00  0.00    +0.000 A 
ATOM     21  C   UNL     1       5.266   5.302  16.948  0.00  0.00    +0.000 A 
ATOM     22  C   UNL     1       4.595   6.404  17.494  0.00  0.00    +0.000 A 
BRANCH  21  23
ATOM     23  S   UNL     1       6.892   5.535  16.279  0.00  0.00    +0.000 S 
ATOM     24  O   UNL     1       7.275   6.899  16.569  0.00  0.00    +0.000 OA
ATOM     25  O   UNL     1       7.719   4.422  16.696  0.00  0.00    +0.000 OA
BRANCH  23  26
ATOM     26  N   UNL     1       6.675   5.434  14.610  0.00  0.00    +0.000 NA
ATOM     27  H   UNL     1       7.236   6.142  14.133  0.00  0.00    +0.000 HD
BRANCH  26  28
ATOM     28  C   UNL     1       6.628   4.106  14.004  0.00  0.00    +0.000 C 
ATOM     29  C   UNL     1       6.732   3.946  12.512  0.00  0.00    +0.000 C 
ATOM     30  C   UNL     1       5.423   3.701  13.201  0.00  0.00    +0.000 C 
ENDBRANCH  26  28
ENDBRANCH  23  26
ENDBRANCH  21  23
ENDBRANCH   2  17
TORSDOF 5
ENDMDL
MODEL 3
REMARK VINA RESULT:      -8.5      3.251      9.149
REMARK  Name = 
REMARK  5 active torsions:
REMARK  status: ('A' for Active; 'I' for Inactive)
REMARK    1  A    between atoms: C_2  and  C_14
REMARK    2  A    between atoms: N_3  and  C_4
REMARK    3  A    between atoms: C_18  and  S_19
REMARK    4  A    between atoms: S_19  and  N_22
REMARK    5  A    between atoms: N_22  and  C_23
REMARK                            x       y       z     vdW  Elec       q    Type
REMARK                         _______ _______ _______ _____ _____    ______ ____
ROOT
ATOM      1  O   UNL     1       2.493   8.373  17.222  0.00  0.00    +0.000 OA
ATOM      2  C   UNL     1       2.598   7.587  18.158  0.00  0.00    +0.000 C 
ATOM      3  N   UNL     1       2.105   7.756  19.444  0.00  0.00    +0.000 N 
ATOM      4  H   UNL     1       2.442   7.124  20.161  0.00  0.00    +0.000 HD
ENDROOT
BRANCH   3   5
ATOM      5  C   UNL     1       1.300   8.832  19.883  0.00  0.00    +0.000 A 
ATOM      6  C   UNL     1       1.060   9.976  19.079  0.00  0.00    +0.000 A 
ATOM      7  C   UNL     1       0.284  11.049  19.532  0.00  0.00    +0.000 A 
ATOM      8  C   UNL     1      -0.240  10.941  20.789  0.00  0.00    +0.000 A 
ATOM      9  N   UNL     1      -1.024  11.838  21.502  0.00  0.00    +0.000 N 
ATOM     10  C   UNL     1      -1.313  11.286  22.756  0.00  0.00    +0.000 A 
ATOM     11  O   UNL     1      -1.971  11.800  23.643  0.00  0.00    +0.000 OA
ATOM     12  N   UNL     1      -0.691  10.028  22.794  0.00  0.00    +0.000 N 
ATOM     13  C   UNL     1      -0.031   9.816  21.586  0.00  0.00    +0.000 A 
ATOM     14  C   UNL     1       0.721   8.742  21.163  0.00  0.00    +0.000 A 
ATOM     15  H   UNL     1      -1.341  12.745  21.198  0.00  0.00    +0.000 HD
ATOM     16  H   UNL     1      -0.731   9.413  23.591  0.00  0.00    +0.000 HD
ENDBRANCH   3   5
BRANCH   2  17
ATOM     17  C   UNL     1       3.380   6.347  17.915  0.00  0.00    +0.000 A 
ATOM     18  C   UNL     1       2.699   5.120  17.918  0.00  0.00    +0.000 A 
ATOM     19  C   UNL     1       3.393   3.926  17.710  0.00  0.00    +0.000 A 
ATOM     20  C   UNL     1       4.771   3.950  17.494  0.00  0.00    +0.000 A 
ATOM     21  C   UNL     1       5.447   5.175  17.501  0.00  0.00    +0.000 A 
ATOM     22  C   UNL     1       4.763   6.376  17.727  0.00  0.00    +0.000 A 
BRANCH  21  23
ATOM     23  S   UNL     1       7.182   5.235  17.133  0.00  0.00    +0.000 S 
ATOM     24  O   UNL     1       7.499   6.613  16.825  0.00  0.00    +0.000 OA
ATOM     25  O   UNL     1       7.892   4.519  18.172  0.00  0.00    +0.000 OA
BRANCH  23  26
ATOM     26  N   UNL     1       7.334   4.367  15.696  0.00  0.00    +0.000 NA
ATOM     27  H   UNL     1       7.284   3.364  15.877  0.00  0.00    +0.000 HD
BRANCH  26  28
ATOM     28  C   UNL     1       6.629   4.864  14.517  0.00  0.00    +0.000 C 
ATOM     29  C   UNL     1       5.497   4.075  13.918  0.00  0.00    +0.000 C 
ATOM     30  C   UNL     1       6.809   4.167  13.197  0.00  0.00    +0.000 C 
ENDBRANCH  26  28
ENDBRANCH  23  26
ENDBRANCH  21  23
ENDBRANCH   2  17
TORSDOF 5
ENDMDL
MODEL 4
REMARK VINA RESULT:      -8.4      1.142      1.236
REMARK  Name = 
REMARK  5 active torsions:
REMARK  status: ('A' for Active; 'I' for Inactive)
REMARK    1  A    between atoms: C_2  and  C_14
REMARK    2  A    between atoms: N_3  and  C_4
REMARK    3  A    between atoms: C_18  and  S_19
REMARK    4  A    between atoms: S_19  and  N_22
REMARK    5  A    between atoms: N_22  and  C_23
REMARK                            x       y       z     vdW  Elec       q    Type
REMARK                         _______ _______ _______ _____ _____    ______ ____
ROOT
ATOM      1  O   UNL     1       1.782   6.769  20.884  0.00  0.00    +0.000 OA
ATOM      2  C   UNL     1       1.663   7.727  20.127  0.00  0.00    +0.000 C 
ATOM      3  N   UNL     1       2.230   7.868  18.869  0.00  0.00    +0.000 N 
ATOM      4  H   UNL     1       2.215   8.791  18.449  0.00  0.00    +0.000 HD
ENDROOT
BRANCH   3   5
ATOM      5  C   UNL     1       2.975   6.879  18.185  0.00  0.00    +0.000 A 
ATOM      6  C   UNL     1       2.548   5.529  18.105  0.00  0.00    +0.000 A 
ATOM      7  C   UNL     1       3.305   4.551  17.450  0.00  0.00    +0.000 A 
ATOM      8  C   UNL     1       4.477   4.960  16.882  0.00  0.00    +0.000 A 
ATOM      9  N   UNL     1       5.431   4.225  16.190  0.00  0.00    +0.000 N 
ATOM     10  C   UNL     1       6.469   5.082  15.804  0.00  0.00    +0.000 A 
ATOM     11  O   UNL     1       7.474   4.776  15.186  0.00  0.00    +0.000 OA
ATOM     12  N   UNL     1       6.127   6.361  16.271  0.00  0.00    +0.000 N 
ATOM     13  C   UNL     1       4.904   6.286  16.933  0.00  0.00    +0.000 A 
ATOM     14  C   UNL     1       4.176   7.271  17.565  0.00  0.00    +0.000 A 
ATOM     15  H   UNL     1       5.411   3.237  15.991  0.00  0.00    +0.000 HD
ATOM     16  H   UNL     1       6.707   7.174  16.137  0.00  0.00    +0.000 HD
ENDBRANCH   3   5
BRANCH   2  17
ATOM     17  C   UNL     1       0.877   8.887  20.623  0.00  0.00    +0.000 A 
ATOM     18  C   UNL     1       0.601   8.966  21.996  0.00  0.00    +0.000 A 
ATOM     19  C   UNL     1      -0.147  10.028  22.508  0.00  0.00    +0.000 A 
ATOM     20  C   UNL     1      -0.623  11.020  21.651  0.00  0.00    +0.000 A 
ATOM     21  C   UNL     1      -0.354  10.933  20.280  0.00  0.00    +0.000 A 
ATOM     22  C   UNL     1       0.380   9.862  19.756  0.00  0.00    +0.000 A 
BRANCH  21  23
ATOM     23  S   UNL     1      -0.867  12.234  19.189  0.00  0.00    +0.000 S 
ATOM     24  O   UNL     1      -2.180  12.656  19.625  0.00  0.00    +0.000 OA
ATOM     25  O   UNL     1       0.221  13.182  19.069  0.00  0.00    +0.000 OA
BRANCH  23  26
ATOM     26  N   UNL     1      -1.069  11.474  17.699  0.00  0.00    +0.000 NA
ATOM     27  H   UNL     1      -0.343  10.771  17.554  0.00  0.00    +0.000 HD
BRANCH  26  28
ATOM     28  C   UNL     1      -2.426  11.120  17.288  0.00  0.00    +0.000 C 
ATOM     29  C   UNL     1      -2.973   9.747  17.571  0.00  0.00    +0.000 C 
ATOM     30  C   UNL     1      -2.629  10.141  16.165  0.00  0.00    +0.000 C 
ENDBRANCH  26  28
ENDBRANCH  23  26
ENDBRANCH  21  23
ENDBRANCH   2  17
TORSDOF 5
ENDMDL
MODEL 5
REMARK VINA RESULT:      -8.3      2.960      9.079
REMARK  Name = 
REMARK  5 active torsions:
REMARK  status: ('A' for Active; 'I' for Inactive)
REMARK    1  A    between atoms: C_2  and  C_14
REMARK    2  A    between atoms: N_3  and  C_4
REMARK    3  A    between atoms: C_18  and  S_19
REMARK    4  A    between atoms: S_19  and  N_22
REMARK    5  A    between atoms: N_22  and  C_23
REMARK                            x       y       z     vdW  Elec       q    Type
REMARK                         _______ _______ _______ _____ _____    ______ ____
ROOT
ATOM      1  O   UNL     1       2.321   7.462  19.928  0.00  0.00    +0.000 OA
ATOM      2  C   UNL     1       2.505   7.461  18.715  0.00  0.00    +0.000 C 
ATOM      3  N   UNL     1       2.127   8.449  17.817  0.00  0.00    +0.000 N 
ATOM      4  H   UNL     1       2.158   8.221  16.829  0.00  0.00    +0.000 HD
ENDROOT
BRANCH   3   5
ATOM      5  C   UNL     1       1.545   9.692  18.156  0.00  0.00    +0.000 A 
ATOM      6  C   UNL     1       2.276  10.907  18.121  0.00  0.00    +0.000 A 
ATOM      7  C   UNL     1       1.699  12.129  18.484  0.00  0.00    +0.000 A 
ATOM      8  C   UNL     1       0.389  12.099  18.869  0.00  0.00    +0.000 A 
ATOM      9  N   UNL     1      -0.434  13.135  19.291  0.00  0.00    +0.000 N 
ATOM     10  C   UNL     1      -1.700  12.614  19.587  0.00  0.00    +0.000 A 
ATOM     11  O   UNL     1      -2.667  13.235  19.991  0.00  0.00    +0.000 OA
ATOM     12  N   UNL     1      -1.635  11.235  19.330  0.00  0.00    +0.000 N 
ATOM     13  C   UNL     1      -0.352  10.919  18.890  0.00  0.00    +0.000 A 
ATOM     14  C   UNL     1       0.188   9.703  18.531  0.00  0.00    +0.000 A 
ATOM     15  H   UNL     1      -0.187  14.108  19.388  0.00  0.00    +0.000 HD
ATOM     16  H   UNL     1      -2.412  10.608  19.467  0.00  0.00    +0.000 HD
ENDBRANCH   3   5
BRANCH   2  17
ATOM     17  C   UNL     1       3.148   6.256  18.129  0.00  0.00    +0.000 A 
ATOM     18  C   UNL     1       2.351   5.128  17.887  0.00  0.00    +0.000 A 
ATOM     19  C   UNL     1       2.912   3.967  17.353  0.00  0.00    +0.000 A 
ATOM     20  C   UNL     1       4.274   3.926  17.053  0.00  0.00    +0.000 A 
ATOM     21  C   UNL     1       5.068   5.051  17.305  0.00  0.00    +0.000 A 
ATOM     22  C   UNL     1       4.517   6.214  17.858  0.00  0.00    +0.000 A 
BRANCH  21  23
ATOM     23  S   UNL     1       6.780   5.052  16.842  0.00  0.00    +0.000 S 
ATOM     24  O   UNL     1       7.091   6.388  16.382  0.00  0.00    +0.000 OA
ATOM     25  O   UNL     1       7.540   4.434  17.908  0.00  0.00    +0.000 OA
BRANCH  23  26
ATOM     26  N   UNL     1       6.849   4.045  15.493  0.00  0.00    +0.000 NA
ATOM     27  H   UNL     1       6.531   3.104  15.732  0.00  0.00    +0.000 HD
BRANCH  26  28
ATOM     28  C   UNL     1       6.410   4.587  14.210  0.00  0.00    +0.000 C 
ATOM     29  C   UNL     1       5.271   3.947  13.462  0.00  0.00    +0.000 C 
ATOM     30  C   UNL     1       6.673   3.812  12.948  0.00  0.00    +0.000 C 
ENDBRANCH  26  28
ENDBRANCH  23  26
ENDBRANCH  21  23
ENDBRANCH   2  17
TORSDOF 5
ENDMDL
MODEL 6
REMARK VINA RESULT:      -8.2      6.603      9.687
REMARK  Name = 
REMARK  5 active torsions:
REMARK  status: ('A' for Active; 'I' for Inactive)
REMARK    1  A    between atoms: C_2  and  C_14
REMARK    2  A    between atoms: N_3  and  C_4
REMARK    3  A    between atoms: C_18  and  S_19
REMARK    4  A    between atoms: S_19  and  N_22
REMARK    5  A    between atoms: N_22  and  C_23
REMARK                            x       y       z     vdW  Elec       q    Type
REMARK                         _______ _______ _______ _____ _____    ______ ____
ROOT
ATOM      1  O   UNL     1       7.666   9.837  17.474  0.00  0.00    +0.000 OA
ATOM      2  C   UNL     1       8.263   9.071  18.224  0.00  0.00    +0.000 C 
ATOM      3  N   UNL     1       9.245   9.409  19.145  0.00  0.00    +0.000 N 
ATOM      4  H   UNL     1       9.791   8.654  19.544  0.00  0.00    +0.000 HD
ENDROOT
BRANCH   3   5
ATOM      5  C   UNL     1       9.668  10.722  19.455  0.00  0.00    +0.000 A 
ATOM      6  C   UNL     1       9.449  11.309  20.727  0.00  0.00    +0.000 A 
ATOM      7  C   UNL     1       9.847  12.618  21.017  0.00  0.00    +0.000 A 
ATOM      8  C   UNL     1      10.466  13.308  20.014  0.00  0.00    +0.000 A 
ATOM      9  N   UNL     1      10.950  14.610  20.002  0.00  0.00    +0.000 N 
ATOM     10  C   UNL     1      11.498  14.876  18.741  0.00  0.00    +0.000 A 
ATOM     11  O   UNL     1      12.007  15.920  18.374  0.00  0.00    +0.000 OA
ATOM     12  N   UNL     1      11.343  13.705  17.981  0.00  0.00    +0.000 N 
ATOM     13  C   UNL     1      10.708  12.742  18.763  0.00  0.00    +0.000 A 
ATOM     14  C   UNL     1      10.334  11.453  18.453  0.00  0.00    +0.000 A 
ATOM     15  H   UNL     1      10.919  15.278  20.756  0.00  0.00    +0.000 HD
ATOM     16  H   UNL     1      11.645  13.620  17.024  0.00  0.00    +0.000 HD
ENDBRANCH   3   5
BRANCH   2  17
ATOM     17  C   UNL     1       7.949   7.624  18.104  0.00  0.00    +0.000 A 
ATOM     18  C   UNL     1       8.326   6.772  19.152  0.00  0.00    +0.000 A 
ATOM     19  C   UNL     1       8.067   5.402  19.079  0.00  0.00    +0.000 A 
ATOM     20  C   UNL     1       7.425   4.874  17.958  0.00  0.00    +0.000 A 
ATOM     21  C   UNL     1       7.059   5.727  16.910  0.00  0.00    +0.000 A 
ATOM     22  C   UNL     1       7.332   7.099  16.967  0.00  0.00    +0.000 A 
BRANCH  21  23
ATOM     23  S   UNL     1       6.158   5.091  15.521  0.00  0.00    +0.000 S 
ATOM     24  O   UNL     1       5.254   6.135  15.092  0.00  0.00    +0.000 OA
ATOM     25  O   UNL     1       7.103   4.495  14.599  0.00  0.00    +0.000 OA
BRANCH  23  26
ATOM     26  N   UNL     1       5.206   3.859  16.169  0.00  0.00    +0.000 NA
ATOM     27  H   UNL     1       5.792   3.154  16.619  0.00  0.00    +0.000 HD
BRANCH  26  28
ATOM     28  C   UNL     1       3.974   4.235  16.856  0.00  0.00    +0.000 C 
ATOM     29  C   UNL     1       3.844   4.050  18.343  0.00  0.00    +0.000 C 
ATOM     30  C   UNL     1       3.077   3.163  17.409  0.00  0.00    +0.000 C 
ENDBRANCH  26  28
ENDBRANCH  23  26
ENDBRANCH  21  23
ENDBRANCH   2  17
TORSDOF 5
ENDMDL
MODEL 7
REMARK VINA RESULT:      -8.2      3.137      8.928
REMARK  Name = 
REMARK  5 active torsions:
REMARK  status: ('A' for Active; 'I' for Inactive)
REMARK    1  A    between atoms: C_2  and  C_14
REMARK    2  A    between atoms: N_3  and  C_4
REMARK    3  A    between atoms: C_18  and  S_19
REMARK    4  A    between atoms: S_19  and  N_22
REMARK    5  A    between atoms: N_22  and  C_23
REMARK                            x       y       z     vdW  Elec       q    Type
REMARK                         _______ _______ _______ _____ _____    ______ ____
ROOT
ATOM      1  O   UNL     1       2.327   8.944  17.250  0.00  0.00    +0.000 OA
ATOM      2  C   UNL     1       1.968   8.561  18.359  0.00  0.00    +0.000 C 
ATOM      3  N   UNL     1       1.222   9.277  19.284  0.00  0.00    +0.000 N 
ATOM      4  H   UNL     1       1.178   8.915  20.230  0.00  0.00    +0.000 HD
ENDROOT
BRANCH   3   5
ATOM      5  C   UNL     1       0.651  10.553  19.072  0.00  0.00    +0.000 A 
ATOM      6  C   UNL     1      -0.667  10.722  18.578  0.00  0.00    +0.000 A 
ATOM      7  C   UNL     1      -1.214  11.988  18.346  0.00  0.00    +0.000 A 
ATOM      8  C   UNL     1      -0.418  13.062  18.625  0.00  0.00    +0.000 A 
ATOM      9  N   UNL     1      -0.679  14.419  18.484  0.00  0.00    +0.000 N 
ATOM     10  C   UNL     1       0.450  15.140  18.895  0.00  0.00    +0.000 A 
ATOM     11  O   UNL     1       0.577  16.352  18.900  0.00  0.00    +0.000 OA
ATOM     12  N   UNL     1       1.406  14.194  19.297  0.00  0.00    +0.000 N 
ATOM     13  C   UNL     1       0.873  12.917  19.131  0.00  0.00    +0.000 A 
ATOM     14  C   UNL     1       1.434  11.683  19.376  0.00  0.00    +0.000 A 
ATOM     15  H   UNL     1      -1.524  14.844  18.138  0.00  0.00    +0.000 HD
ATOM     16  H   UNL     1       2.323  14.440  19.635  0.00  0.00    +0.000 HD
ENDBRANCH   3   5
BRANCH   2  17
ATOM     17  C   UNL     1       2.422   7.213  18.788  0.00  0.00    +0.000 A 
ATOM     18  C   UNL     1       1.961   6.714  20.015  0.00  0.00    +0.000 A 
ATOM     19  C   UNL     1       2.372   5.459  20.468  0.00  0.00    +0.000 A 
ATOM     20  C   UNL     1       3.244   4.692  19.696  0.00  0.00    +0.000 A 
ATOM     21  C   UNL     1       3.710   5.197  18.476  0.00  0.00    +0.000 A 
ATOM     22  C   UNL     1       3.317   6.462  18.023  0.00  0.00    +0.000 A 
BRANCH  21  23
ATOM     23  S   UNL     1       4.742   4.197  17.436  0.00  0.00    +0.000 S 
ATOM     24  O   UNL     1       4.140   2.882  17.386  0.00  0.00    +0.000 OA
ATOM     25  O   UNL     1       5.020   4.939  16.224  0.00  0.00    +0.000 OA
BRANCH  23  26
ATOM     26  N   UNL     1       6.180   4.041  18.300  0.00  0.00    +0.000 NA
ATOM     27  H   UNL     1       6.405   3.056  18.447  0.00  0.00    +0.000 HD
BRANCH  26  28
ATOM     28  C   UNL     1       7.287   4.930  17.955  0.00  0.00    +0.000 C 
ATOM     29  C   UNL     1       8.022   5.683  19.030  0.00  0.00    +0.000 C 
ATOM     30  C   UNL     1       7.112   6.417  18.090  0.00  0.00    +0.000 C 
ENDBRANCH  26  28
ENDBRANCH  23  26
ENDBRANCH  21  23
ENDBRANCH   2  17
TORSDOF 5
ENDMDL
MODEL 8
REMARK VINA RESULT:      -8.2      2.975      9.073
REMARK  Name = 
REMARK  5 active torsions:
REMARK  status: ('A' for Active; 'I' for Inactive)
REMARK    1  A    between atoms: C_2  and  C_14
REMARK    2  A    between atoms: N_3  and  C_4
REMARK    3  A    between atoms: C_18  and  S_19
REMARK    4  A    between atoms: S_19  and  N_22
REMARK    5  A    between atoms: N_22  and  C_23
REMARK                            x       y       z     vdW  Elec       q    Type
REMARK                         _______ _______ _______ _____ _____    ______ ____
ROOT
ATOM      1  O   UNL     1       2.687   8.557  17.799  0.00  0.00    +0.000 OA
ATOM      2  C   UNL     1       2.629   7.576  18.532  0.00  0.00    +0.000 C 
ATOM      3  N   UNL     1       2.032   7.508  19.783  0.00  0.00    +0.000 N 
ATOM      4  H   UNL     1       2.241   6.698  20.357  0.00  0.00    +0.000 HD
ENDROOT
BRANCH   3   5
ATOM      5  C   UNL     1       1.291   8.542  20.400  0.00  0.00    +0.000 A 
ATOM      6  C   UNL     1       1.205   8.676  21.809  0.00  0.00    +0.000 A 
ATOM      7  C   UNL     1       0.447   9.686  22.411  0.00  0.00    +0.000 A 
ATOM      8  C   UNL     1      -0.205  10.547  21.575  0.00  0.00    +0.000 A 
ATOM      9  N   UNL     1      -1.031  11.621  21.878  0.00  0.00    +0.000 N 
ATOM     10  C   UNL     1      -1.474  12.200  20.682  0.00  0.00    +0.000 A 
ATOM     11  O   UNL     1      -2.219  13.158  20.569  0.00  0.00    +0.000 OA
ATOM     12  N   UNL     1      -0.896  11.459  19.639  0.00  0.00    +0.000 N 
ATOM     13  C   UNL     1      -0.117  10.443  20.188  0.00  0.00    +0.000 A 
ATOM     14  C   UNL     1       0.628   9.464  19.568  0.00  0.00    +0.000 A 
ATOM     15  H   UNL     1      -1.294  11.948  22.794  0.00  0.00    +0.000 HD
ATOM     16  H   UNL     1      -1.054  11.656  18.664  0.00  0.00    +0.000 HD
ENDBRANCH   3   5
BRANCH   2  17
ATOM     17  C   UNL     1       3.314   6.342  18.067  0.00  0.00    +0.000 A 
ATOM     18  C   UNL     1       2.549   5.178  17.899  0.00  0.00    +0.000 A 
ATOM     19  C   UNL     1       3.150   3.991  17.479  0.00  0.00    +0.000 A 
ATOM     20  C   UNL     1       4.520   3.958  17.219  0.00  0.00    +0.000 A 
ATOM     21  C   UNL     1       5.282   5.119  17.396  0.00  0.00    +0.000 A 
ATOM     22  C   UNL     1       4.691   6.310  17.835  0.00  0.00    +0.000 A 
BRANCH  21  23
ATOM     23  S   UNL     1       7.006   5.123  16.979  0.00  0.00    +0.000 S 
ATOM     24  O   UNL     1       7.344   6.477  16.600  0.00  0.00    +0.000 OA
ATOM     25  O   UNL     1       7.730   4.437  18.029  0.00  0.00    +0.000 OA
BRANCH  23  26
ATOM     26  N   UNL     1       7.099   4.188  15.579  0.00  0.00    +0.000 NA
ATOM     27  H   UNL     1       6.937   3.203  15.795  0.00  0.00    +0.000 HD
BRANCH  26  28
ATOM     28  C   UNL     1       6.480   4.711  14.364  0.00  0.00    +0.000 C 
ATOM     29  C   UNL     1       5.915   3.772  13.333  0.00  0.00    +0.000 C 
ATOM     30  C   UNL     1       7.175   4.532  13.042  0.00  0.00    +0.000 C 
ENDBRANCH  26  28
ENDBRANCH  23  26
ENDBRANCH  21  23
ENDBRANCH   2  17
TORSDOF 5
ENDMDL
MODEL 9
REMARK VINA RESULT:      -8.2      3.418      8.786
REMARK  Name = 
REMARK  5 active torsions:
REMARK  status: ('A' for Active; 'I' for Inactive)
REMARK    1  A    between atoms: C_2  and  C_14
REMARK    2  A    between atoms: N_3  and  C_4
REMARK    3  A    between atoms: C_18  and  S_19
REMARK    4  A    between atoms: S_19  and  N_22
REMARK    5  A    between atoms: N_22  and  C_23
REMARK                            x       y       z     vdW  Elec       q    Type
REMARK                         _______ _______ _______ _____ _____    ______ ____
ROOT
ATOM      1  O   UNL     1       1.886   7.950  19.857  0.00  0.00    +0.000 OA
ATOM      2  C   UNL     1       2.151   8.051  18.663  0.00  0.00    +0.000 C 
ATOM      3  N   UNL     1       1.700   9.034  17.793  0.00  0.00    +0.000 N 
ATOM      4  H   UNL     1       1.831   8.875  16.801  0.00  0.00    +0.000 HD
ENDROOT
BRANCH   3   5
ATOM      5  C   UNL     1       0.927  10.162  18.153  0.00  0.00    +0.000 A 
ATOM      6  C   UNL     1      -0.488  10.110  18.253  0.00  0.00    +0.000 A 
ATOM      7  C   UNL     1      -1.247  11.238  18.583  0.00  0.00    +0.000 A 
ATOM      8  C   UNL     1      -0.561  12.395  18.814  0.00  0.00    +0.000 A 
ATOM      9  N   UNL     1      -1.037  13.658  19.141  0.00  0.00    +0.000 N 
ATOM     10  C   UNL     1       0.050  14.531  19.271  0.00  0.00    +0.000 A 
ATOM     11  O   UNL     1       0.002  15.718  19.543  0.00  0.00    +0.000 OA
ATOM     12  N   UNL     1       1.205  13.773  19.021  0.00  0.00    +0.000 N 
ATOM     13  C   UNL     1       0.830  12.461  18.740  0.00  0.00    +0.000 A 
ATOM     14  C   UNL     1       1.603  11.366  18.425  0.00  0.00    +0.000 A 
ATOM     15  H   UNL     1      -1.999  13.933  19.261  0.00  0.00    +0.000 HD
ATOM     16  H   UNL     1       2.136  14.157  19.041  0.00  0.00    +0.000 HD
ENDBRANCH   3   5
BRANCH   2  17
ATOM     17  C   UNL     1       2.995   6.985  18.065  0.00  0.00    +0.000 A 
ATOM     18  C   UNL     1       4.122   7.368  17.322  0.00  0.00    +0.000 A 
ATOM     19  C   UNL     1       4.938   6.403  16.728  0.00  0.00    +0.000 A 
ATOM     20  C   UNL     1       4.635   5.049  16.874  0.00  0.00    +0.000 A 
ATOM     21  C   UNL     1       3.504   4.672  17.607  0.00  0.00    +0.000 A 
ATOM     22  C   UNL     1       2.670   5.633  18.192  0.00  0.00    +0.000 A 
BRANCH  21  23
ATOM     23  S   UNL     1       3.157   2.955  17.886  0.00  0.00    +0.000 S 
ATOM     24  O   UNL     1       1.812   2.715  17.410  0.00  0.00    +0.000 OA
ATOM     25  O   UNL     1       4.275   2.179  17.390  0.00  0.00    +0.000 OA
BRANCH  23  26
ATOM     26  N   UNL     1       3.114   2.804  19.564  0.00  0.00    +0.000 NA
ATOM     27  H   UNL     1       3.696   3.519  20.002  0.00  0.00    +0.000 HD
BRANCH  26  28
ATOM     28  C   UNL     1       1.827   2.519  20.193  0.00  0.00    +0.000 C 
ATOM     29  C   UNL     1       0.997   3.634  20.769  0.00  0.00    +0.000 C 
ATOM     30  C   UNL     1       1.683   2.662  21.683  0.00  0.00    +0.000 C 
ENDBRANCH  26  28
ENDBRANCH  23  26
ENDBRANCH  21  23
ENDBRANCH   2  17
TORSDOF 5
ENDMDL
