MODEL 1
REMARK VINA RESULT:      -8.6      0.000      0.000
REMARK  Name = 
REMARK  4 active torsions:
REMARK  status: ('A' for Active; 'I' for Inactive)
REMARK    1  A    between atoms: C_2  and  C_21
REMARK    2  A    between atoms: N_3  and  C_4
REMARK    3  A    between atoms: C_9  and  C_10
REMARK    4  A    between atoms: C_12  and  C_13
REMARK                            x       y       z     vdW  Elec       q    Type
REMARK                         _______ _______ _______ _____ _____    ______ ____
ROOT
ATOM      1  C   UNL     1       3.506   3.815  19.423  0.00  0.00    +0.000 A 
ATOM      2  C   UNL     1       3.503   2.588  20.101  0.00  0.00    +0.000 A 
ATOM      3  C   UNL     1       2.768   2.409  21.274  0.00  0.00    +0.000 A 
ATOM      4  C   UNL     1       2.040   3.464  21.806  0.00  0.00    +0.000 A 
ATOM      5  C   UNL     1       2.028   4.693  21.150  0.00  0.00    +0.000 A 
ATOM      6  C   UNL     1       2.738   4.882  19.945  0.00  0.00    +0.000 A 
ENDROOT
BRANCH   6   7
ATOM      7  C   UNL     1       2.594   6.148  19.222  0.00  0.00    +0.000 A 
ATOM      8  N   UNL     1       1.942   7.231  19.599  0.00  0.00    +0.000 NA
ATOM      9  C   UNL     1       2.213   8.156  18.611  0.00  0.00    +0.000 A 
ATOM     10  N   UNL     1       3.010   7.685  17.638  0.00  0.00    +0.000 NA
ATOM     11  N   UNL     1       3.245   6.435  18.054  0.00  0.00    +0.000 N 
ATOM     12  H   UNL     1       3.884   5.852  17.529  0.00  0.00    +0.000 HD
BRANCH   9  13
ATOM     13  C   UNL     1       1.715   9.526  18.662  0.00  0.00    +0.000 A 
ATOM     14  C   UNL     1       0.547   9.828  19.377  0.00  0.00    +0.000 A 
ATOM     15  C   UNL     1       0.081  11.143  19.453  0.00  0.00    +0.000 A 
ATOM     16  C   UNL     1       0.778  12.168  18.817  0.00  0.00    +0.000 A 
ATOM     17  C   UNL     1       1.935  11.881  18.096  0.00  0.00    +0.000 A 
ATOM     18  C   UNL     1       2.401  10.566  18.018  0.00  0.00    +0.000 A 
ENDBRANCH   9  13
ENDBRANCH   6   7
BRANCH   1  21
ATOM     19  O   UNL     1       6.418   4.291  19.074  0.00  0.00    +0.000 OA
ATOM     20  C   UNL     1       5.616   4.264  18.143  0.00  0.00    +0.000 C 
ATOM     21  N   UNL     1       4.261   4.007  18.237  0.00  0.00    +0.000 N 
ATOM     22  H   UNL     1       3.757   3.897  17.352  0.00  0.00    +0.000 HD
BRANCH  20  23
ATOM     23  C   UNL     1       6.127   4.490  16.764  0.00  0.00    +0.000 A 
ATOM     24  C   UNL     1       7.095   5.465  16.551  0.00  0.00    +0.000 A 
ATOM     25  N   UNL     1       7.592   5.745  15.318  0.00  0.00    +0.000 NA
ATOM     26  C   UNL     1       7.074   5.007  14.311  0.00  0.00    +0.000 A 
ATOM     27  C   UNL     1       6.108   4.032  14.521  0.00  0.00    +0.000 A 
ATOM     28  N   UNL     1       5.609   3.741  15.748  0.00  0.00    +0.000 NA
ENDBRANCH  20  23
ENDBRANCH   1  21
TORSDOF 4
ENDMDL
MODEL 2
REMARK VINA RESULT:      -8.4      1.889      2.441
REMARK  Name = 
REMARK  4 active torsions:
REMARK  status: ('A' for Active; 'I' for Inactive)
REMARK    1  A    between atoms: C_2  and  C_21
REMARK    2  A    between atoms: N_3  and  C_4
REMARK    3  A    between atoms: C_9  and  C_10
REMARK    4  A    between atoms: C_12  and  C_13
REMARK                            x       y       z     vdW  Elec       q    Type
REMARK                         _______ _______ _______ _____ _____    ______ ____
ROOT
ATOM      1  C   UNL     1       3.066   4.004  18.411  0.00  0.00    +0.000 A 
ATOM      2  C   UNL     1       3.048   2.701  17.895  0.00  0.00    +0.000 A 
ATOM      3  C   UNL     1       1.984   1.834  18.152  0.00  0.00    +0.000 A 
ATOM      4  C   UNL     1       0.928   2.247  18.951  0.00  0.00    +0.000 A 
ATOM      5  C   UNL     1       0.924   3.539  19.475  0.00  0.00    +0.000 A 
ATOM      6  C   UNL     1       1.974   4.439  19.198  0.00  0.00    +0.000 A 
ENDROOT
BRANCH   6   7
ATOM      7  C   UNL     1       1.868   5.825  19.661  0.00  0.00    +0.000 A 
ATOM      8  N   UNL     1       1.900   6.928  18.939  0.00  0.00    +0.000 NA
ATOM      9  C   UNL     1       1.652   7.939  19.847  0.00  0.00    +0.000 A 
ATOM     10  N   UNL     1       1.467   7.500  21.101  0.00  0.00    +0.000 NA
ATOM     11  N   UNL     1       1.591   6.176  20.953  0.00  0.00    +0.000 N 
ATOM     12  H   UNL     1       1.432   5.573  21.750  0.00  0.00    +0.000 HD
BRANCH   9  13
ATOM     13  C   UNL     1       1.554   9.340  19.451  0.00  0.00    +0.000 A 
ATOM     14  C   UNL     1       0.886  10.261  20.269  0.00  0.00    +0.000 A 
ATOM     15  C   UNL     1       0.814  11.609  19.910  0.00  0.00    +0.000 A 
ATOM     16  C   UNL     1       1.409  12.049  18.729  0.00  0.00    +0.000 A 
ATOM     17  C   UNL     1       2.068  11.143  17.901  0.00  0.00    +0.000 A 
ATOM     18  C   UNL     1       2.140   9.794  18.260  0.00  0.00    +0.000 A 
ENDBRANCH   9  13
ENDBRANCH   6   7
BRANCH   1  21
ATOM     19  O   UNL     1       5.841   3.954  19.470  0.00  0.00    +0.000 OA
ATOM     20  C   UNL     1       5.414   4.830  18.721  0.00  0.00    +0.000 C 
ATOM     21  N   UNL     1       4.151   4.886  18.164  0.00  0.00    +0.000 N 
ATOM     22  H   UNL     1       3.996   5.616  17.462  0.00  0.00    +0.000 HD
BRANCH  20  23
ATOM     23  C   UNL     1       6.332   5.933  18.327  0.00  0.00    +0.000 A 
ATOM     24  C   UNL     1       5.998   6.738  17.243  0.00  0.00    +0.000 A 
ATOM     25  N   UNL     1       6.796   7.749  16.810  0.00  0.00    +0.000 NA
ATOM     26  C   UNL     1       7.941   7.914  17.509  0.00  0.00    +0.000 A 
ATOM     27  C   UNL     1       8.276   7.113  18.593  0.00  0.00    +0.000 A 
ATOM     28  N   UNL     1       7.485   6.105  19.036  0.00  0.00    +0.000 NA
ENDBRANCH  20  23
ENDBRANCH   1  21
TORSDOF 4
ENDMDL
MODEL 3
REMARK VINA RESULT:      -8.4      3.446      6.589
REMARK  Name = 
REMARK  4 active torsions:
REMARK  status: ('A' for Active; 'I' for Inactive)
REMARK    1  A    between atoms: C_2  and  C_21
REMARK    2  A    between atoms: N_3  and  C_4
REMARK    3  A    between atoms: C_9  and  C_10
REMARK    4  A    between atoms: C_12  and  C_13
REMARK                            x       y       z     vdW  Elec       q    Type
REMARK                         _______ _______ _______ _____ _____    ______ ____
ROOT
ATOM      1  C   UNL     1       5.273   5.597  16.057  0.00  0.00    +0.000 A 
ATOM      2  C   UNL     1       4.697   4.652  15.197  0.00  0.00    +0.000 A 
ATOM      3  C   UNL     1       5.483   3.864  14.354  0.00  0.00    +0.000 A 
ATOM      4  C   UNL     1       6.862   4.024  14.339  0.00  0.00    +0.000 A 
ATOM      5  C   UNL     1       7.456   4.957  15.186  0.00  0.00    +0.000 A 
ATOM      6  C   UNL     1       6.680   5.738  16.068  0.00  0.00    +0.000 A 
ENDROOT
BRANCH   6   7
ATOM      7  C   UNL     1       7.354   6.613  17.030  0.00  0.00    +0.000 A 
ATOM      8  N   UNL     1       7.637   7.895  16.905  0.00  0.00    +0.000 NA
ATOM      9  C   UNL     1       8.170   8.250  18.128  0.00  0.00    +0.000 A 
ATOM     10  N   UNL     1       8.225   7.235  19.004  0.00  0.00    +0.000 NA
ATOM     11  N   UNL     1       7.695   6.230  18.298  0.00  0.00    +0.000 N 
ATOM     12  H   UNL     1       7.552   5.334  18.746  0.00  0.00    +0.000 HD
BRANCH   9  13
ATOM     13  C   UNL     1       8.581   9.615  18.437  0.00  0.00    +0.000 A 
ATOM     14  C   UNL     1       9.322   9.887  19.595  0.00  0.00    +0.000 A 
ATOM     15  C   UNL     1       9.743  11.188  19.881  0.00  0.00    +0.000 A 
ATOM     16  C   UNL     1       9.427  12.230  19.011  0.00  0.00    +0.000 A 
ATOM     17  C   UNL     1       8.684  11.976  17.861  0.00  0.00    +0.000 A 
ATOM     18  C   UNL     1       8.262  10.675  17.574  0.00  0.00    +0.000 A 
ENDBRANCH   9  13
ENDBRANCH   6   7
BRANCH   1  21
ATOM     19  O   UNL     1       3.168   4.827  18.008  0.00  0.00    +0.000 OA
ATOM     20  C   UNL     1       3.482   5.990  17.769  0.00  0.00    +0.000 C 
ATOM     21  N   UNL     1       4.477   6.409  16.907  0.00  0.00    +0.000 N 
ATOM     22  H   UNL     1       4.695   7.411  16.916  0.00  0.00    +0.000 HD
BRANCH  20  23
ATOM     23  C   UNL     1       2.763   7.078  18.487  0.00  0.00    +0.000 A 
ATOM     24  C   UNL     1       2.363   6.872  19.804  0.00  0.00    +0.000 A 
ATOM     25  N   UNL     1       1.683   7.807  20.515  0.00  0.00    +0.000 NA
ATOM     26  C   UNL     1       1.422   8.955  19.850  0.00  0.00    +0.000 A 
ATOM     27  C   UNL     1       1.822   9.165  18.537  0.00  0.00    +0.000 A 
ATOM     28  N   UNL     1       2.505   8.239  17.819  0.00  0.00    +0.000 NA
ENDBRANCH  20  23
ENDBRANCH   1  21
TORSDOF 4
ENDMDL
MODEL 4
REMARK VINA RESULT:      -8.3      1.975      2.640
REMARK  Name = 
REMARK  4 active torsions:
REMARK  status: ('A' for Active; 'I' for Inactive)
REMARK    1  A    between atoms: C_2  and  C_21
REMARK    2  A    between atoms: N_3  and  C_4
REMARK    3  A    between atoms: C_9  and  C_10
REMARK    4  A    between atoms: C_12  and  C_13
REMARK                            x       y       z     vdW  Elec       q    Type
REMARK                         _______ _______ _______ _____ _____    ______ ____
ROOT
ATOM      1  C   UNL     1       3.552   3.928  18.575  0.00  0.00    +0.000 A 
ATOM      2  C   UNL     1       3.675   2.644  18.025  0.00  0.00    +0.000 A 
ATOM      3  C   UNL     1       2.609   1.743  18.041  0.00  0.00    +0.000 A 
ATOM      4  C   UNL     1       1.404   2.102  18.629  0.00  0.00    +0.000 A 
ATOM      5  C   UNL     1       1.259   3.373  19.182  0.00  0.00    +0.000 A 
ATOM      6  C   UNL     1       2.315   4.308  19.145  0.00  0.00    +0.000 A 
ENDROOT
BRANCH   6   7
ATOM      7  C   UNL     1       2.079   5.673  19.622  0.00  0.00    +0.000 A 
ATOM      8  N   UNL     1       2.110   6.794  18.927  0.00  0.00    +0.000 NA
ATOM      9  C   UNL     1       1.714   7.765  19.825  0.00  0.00    +0.000 A 
ATOM     10  N   UNL     1       1.438   7.285  21.047  0.00  0.00    +0.000 NA
ATOM     11  N   UNL     1       1.659   5.975  20.888  0.00  0.00    +0.000 N 
ATOM     12  H   UNL     1       1.463   5.344  21.654  0.00  0.00    +0.000 HD
BRANCH   9  13
ATOM     13  C   UNL     1       1.566   9.166  19.448  0.00  0.00    +0.000 A 
ATOM     14  C   UNL     1       0.904  10.062  20.298  0.00  0.00    +0.000 A 
ATOM     15  C   UNL     1       0.784  11.411  19.956  0.00  0.00    +0.000 A 
ATOM     16  C   UNL     1       1.327  11.877  18.760  0.00  0.00    +0.000 A 
ATOM     17  C   UNL     1       1.980  10.997  17.901  0.00  0.00    +0.000 A 
ATOM     18  C   UNL     1       2.100   9.648  18.243  0.00  0.00    +0.000 A 
ENDBRANCH   9  13
ENDBRANCH   6   7
BRANCH   1  21
ATOM     19  O   UNL     1       4.701   5.519  16.344  0.00  0.00    +0.000 OA
ATOM     20  C   UNL     1       5.151   5.527  17.487  0.00  0.00    +0.000 C 
ATOM     21  N   UNL     1       4.638   4.843  18.573  0.00  0.00    +0.000 N 
ATOM     22  H   UNL     1       5.057   5.055  19.483  0.00  0.00    +0.000 HD
BRANCH  20  23
ATOM     23  C   UNL     1       6.343   6.371  17.772  0.00  0.00    +0.000 A 
ATOM     24  C   UNL     1       7.241   5.966  18.755  0.00  0.00    +0.000 A 
ATOM     25  N   UNL     1       8.337   6.694  19.087  0.00  0.00    +0.000 NA
ATOM     26  C   UNL     1       8.493   7.844  18.394  0.00  0.00    +0.000 A 
ATOM     27  C   UNL     1       7.599   8.250  17.412  0.00  0.00    +0.000 A 
ATOM     28  N   UNL     1       6.504   7.528  17.069  0.00  0.00    +0.000 NA
ENDBRANCH  20  23
ENDBRANCH   1  21
TORSDOF 4
ENDMDL
MODEL 5
REMARK VINA RESULT:      -8.2      2.178      2.837
REMARK  Name = 
REMARK  4 active torsions:
REMARK  status: ('A' for Active; 'I' for Inactive)
REMARK    1  A    between atoms: C_2  and  C_21
REMARK    2  A    between atoms: N_3  and  C_4
REMARK    3  A    between atoms: C_9  and  C_10
REMARK    4  A    between atoms: C_12  and  C_13
REMARK                            x       y       z     vdW  Elec       q    Type
REMARK                         _______ _______ _______ _____ _____    ______ ____
ROOT
ATOM      1  C   UNL     1       3.331   4.234  19.863  0.00  0.00    +0.000 A 
ATOM      2  C   UNL     1       3.500   2.842  19.851  0.00  0.00    +0.000 A 
ATOM      3  C   UNL     1       2.487   1.985  20.285  0.00  0.00    +0.000 A 
ATOM      4  C   UNL     1       1.292   2.505  20.762  0.00  0.00    +0.000 A 
ATOM      5  C   UNL     1       1.102   3.886  20.783  0.00  0.00    +0.000 A 
ATOM      6  C   UNL     1       2.102   4.766  20.317  0.00  0.00    +0.000 A 
ENDROOT
BRANCH   6   7
ATOM      7  C   UNL     1       1.811   6.199  20.236  0.00  0.00    +0.000 A 
ATOM      8  N   UNL     1       1.083   6.929  21.059  0.00  0.00    +0.000 NA
ATOM      9  C   UNL     1       1.223   8.219  20.588  0.00  0.00    +0.000 A 
ATOM     10  N   UNL     1       2.013   8.313  19.506  0.00  0.00    +0.000 NA
ATOM     11  N   UNL     1       2.378   7.040  19.319  0.00  0.00    +0.000 N 
ATOM     12  H   UNL     1       3.043   6.820  18.588  0.00  0.00    +0.000 HD
BRANCH   9  13
ATOM     13  C   UNL     1       0.606   9.365  21.247  0.00  0.00    +0.000 A 
ATOM     14  C   UNL     1       0.659  10.635  20.657  0.00  0.00    +0.000 A 
ATOM     15  C   UNL     1       0.045  11.730  21.270  0.00  0.00    +0.000 A 
ATOM     16  C   UNL     1      -0.627  11.566  22.479  0.00  0.00    +0.000 A 
ATOM     17  C   UNL     1      -0.680  10.311  23.082  0.00  0.00    +0.000 A 
ATOM     18  C   UNL     1      -0.066   9.216  22.469  0.00  0.00    +0.000 A 
ENDBRANCH   9  13
ENDBRANCH   6   7
BRANCH   1  21
ATOM     19  O   UNL     1       4.896   4.246  17.337  0.00  0.00    +0.000 OA
ATOM     20  C   UNL     1       5.082   5.039  18.257  0.00  0.00    +0.000 C 
ATOM     21  N   UNL     1       4.362   5.110  19.435  0.00  0.00    +0.000 N 
ATOM     22  H   UNL     1       4.564   5.909  20.044  0.00  0.00    +0.000 HD
BRANCH  20  23
ATOM     23  C   UNL     1       6.156   6.058  18.106  0.00  0.00    +0.000 A 
ATOM     24  C   UNL     1       6.043   7.020  17.108  0.00  0.00    +0.000 A 
ATOM     25  N   UNL     1       6.993   7.967  16.894  0.00  0.00    +0.000 NA
ATOM     26  C   UNL     1       8.060   7.905  17.722  0.00  0.00    +0.000 A 
ATOM     27  C   UNL     1       8.175   6.947  18.720  0.00  0.00    +0.000 A 
ATOM     28  N   UNL     1       7.230   6.000  18.945  0.00  0.00    +0.000 NA
ENDBRANCH  20  23
ENDBRANCH   1  21
TORSDOF 4
ENDMDL
MODEL 6
REMARK VINA RESULT:      -8.1      1.859      6.656
REMARK  Name = 
REMARK  4 active torsions:
REMARK  status: ('A' for Active; 'I' for Inactive)
REMARK    1  A    between atoms: C_2  and  C_21
REMARK    2  A    between atoms: N_3  and  C_4
REMARK    3  A    between atoms: C_9  and  C_10
REMARK    4  A    between atoms: C_12  and  C_13
REMARK                            x       y       z     vdW  Elec       q    Type
REMARK                         _______ _______ _______ _____ _____    ______ ____
ROOT
ATOM      1  C   UNL     1       2.115   4.645  19.237  0.00  0.00    +0.000 A 
ATOM      2  C   UNL     1       1.311   4.074  20.234  0.00  0.00    +0.000 A 
ATOM      3  C   UNL     1       1.356   2.705  20.505  0.00  0.00    +0.000 A 
ATOM      4  C   UNL     1       2.190   1.876  19.766  0.00  0.00    +0.000 A 
ATOM      5  C   UNL     1       2.997   2.422  18.770  0.00  0.00    +0.000 A 
ATOM      6  C   UNL     1       2.990   3.808  18.506  0.00  0.00    +0.000 A 
ENDROOT
BRANCH   6   7
ATOM      7  C   UNL     1       3.947   4.357  17.541  0.00  0.00    +0.000 A 
ATOM      8  N   UNL     1       4.428   3.782  16.457  0.00  0.00    +0.000 NA
ATOM      9  C   UNL     1       5.196   4.763  15.860  0.00  0.00    +0.000 A 
ATOM     10  N   UNL     1       5.204   5.923  16.536  0.00  0.00    +0.000 NA
ATOM     11  N   UNL     1       4.403   5.646  17.572  0.00  0.00    +0.000 N 
ATOM     12  H   UNL     1       4.175   6.380  18.229  0.00  0.00    +0.000 HD
BRANCH   9  13
ATOM     13  C   UNL     1       5.882   4.556  14.590  0.00  0.00    +0.000 A 
ATOM     14  C   UNL     1       5.314   3.739  13.603  0.00  0.00    +0.000 A 
ATOM     15  C   UNL     1       5.954   3.561  12.374  0.00  0.00    +0.000 A 
ATOM     16  C   UNL     1       7.167   4.197  12.120  0.00  0.00    +0.000 A 
ATOM     17  C   UNL     1       7.748   5.004  13.096  0.00  0.00    +0.000 A 
ATOM     18  C   UNL     1       7.109   5.183  14.325  0.00  0.00    +0.000 A 
ENDBRANCH   9  13
ENDBRANCH   6   7
BRANCH   1  21
ATOM     19  O   UNL     1       1.722   6.958  21.061  0.00  0.00    +0.000 OA
ATOM     20  C   UNL     1       1.839   7.064  19.843  0.00  0.00    +0.000 C 
ATOM     21  N   UNL     1       2.064   6.034  18.949  0.00  0.00    +0.000 N 
ATOM     22  H   UNL     1       2.261   6.307  17.981  0.00  0.00    +0.000 HD
BRANCH  20  23
ATOM     23  C   UNL     1       1.770   8.424  19.241  0.00  0.00    +0.000 A 
ATOM     24  C   UNL     1       2.405   8.660  18.026  0.00  0.00    +0.000 A 
ATOM     25  N   UNL     1       2.406   9.879  17.428  0.00  0.00    +0.000 NA
ATOM     26  C   UNL     1       1.747  10.849  18.101  0.00  0.00    +0.000 A 
ATOM     27  C   UNL     1       1.112  10.615  19.313  0.00  0.00    +0.000 A 
ATOM     28  N   UNL     1       1.100   9.401  19.917  0.00  0.00    +0.000 NA
ENDBRANCH  20  23
ENDBRANCH   1  21
TORSDOF 4
ENDMDL
MODEL 7
REMARK VINA RESULT:      -8.0      6.269      9.755
REMARK  Name = 
REMARK  4 active torsions:
REMARK  status: ('A' for Active; 'I' for Inactive)
REMARK    1  A    between atoms: C_2  and  C_21
REMARK    2  A    between atoms: N_3  and  C_4
REMARK    3  A    between atoms: C_9  and  C_10
REMARK    4  A    between atoms: C_12  and  C_13
REMARK                            x       y       z     vdW  Elec       q    Type
REMARK                         _______ _______ _______ _____ _____    ______ ____
ROOT
ATOM      1  C   UNL     1      -2.516  10.363  17.707  0.00  0.00    +0.000 A 
ATOM      2  C   UNL     1      -2.125   9.747  16.510  0.00  0.00    +0.000 A 
ATOM      3  C   UNL     1      -2.806   9.987  15.315  0.00  0.00    +0.000 A 
ATOM      4  C   UNL     1      -3.908  10.830  15.299  0.00  0.00    +0.000 A 
ATOM      5  C   UNL     1      -4.316  11.453  16.478  0.00  0.00    +0.000 A 
ATOM      6  C   UNL     1      -3.619  11.249  17.687  0.00  0.00    +0.000 A 
ENDROOT
BRANCH   6   7
ATOM      7  C   UNL     1      -4.001  12.022  18.872  0.00  0.00    +0.000 A 
ATOM      8  N   UNL     1      -5.086  11.895  19.611  0.00  0.00    +0.000 NA
ATOM      9  C   UNL     1      -4.899  12.785  20.650  0.00  0.00    +0.000 A 
ATOM     10  N   UNL     1      -3.738  13.455  20.581  0.00  0.00    +0.000 NA
ATOM     11  N   UNL     1      -3.191  12.948  19.470  0.00  0.00    +0.000 N 
ATOM     12  H   UNL     1      -2.258  13.235  19.203  0.00  0.00    +0.000 HD
BRANCH   9  13
ATOM     13  C   UNL     1      -5.859  12.930  21.738  0.00  0.00    +0.000 A 
ATOM     14  C   UNL     1      -7.005  12.124  21.785  0.00  0.00    +0.000 A 
ATOM     15  C   UNL     1      -7.913  12.239  22.840  0.00  0.00    +0.000 A 
ATOM     16  C   UNL     1      -7.685  13.162  23.858  0.00  0.00    +0.000 A 
ATOM     17  C   UNL     1      -6.555  13.976  23.821  0.00  0.00    +0.000 A 
ATOM     18  C   UNL     1      -5.647  13.862  22.766  0.00  0.00    +0.000 A 
ENDBRANCH   9  13
ENDBRANCH   6   7
BRANCH   1  21
ATOM     19  O   UNL     1      -0.171  11.744  18.899  0.00  0.00    +0.000 OA
ATOM     20  C   UNL     1      -0.720  10.771  19.410  0.00  0.00    +0.000 C 
ATOM     21  N   UNL     1      -1.836  10.113  18.927  0.00  0.00    +0.000 N 
ATOM     22  H   UNL     1      -2.242   9.398  19.538  0.00  0.00    +0.000 HD
BRANCH  20  23
ATOM     23  C   UNL     1      -0.177  10.245  20.692  0.00  0.00    +0.000 A 
ATOM     24  C   UNL     1      -0.609  10.805  21.891  0.00  0.00    +0.000 A 
ATOM     25  N   UNL     1      -0.142  10.395  23.098  0.00  0.00    +0.000 NA
ATOM     26  C   UNL     1       0.775   9.403  23.051  0.00  0.00    +0.000 A 
ATOM     27  C   UNL     1       1.206   8.841  21.856  0.00  0.00    +0.000 A 
ATOM     28  N   UNL     1       0.743   9.240  20.646  0.00  0.00    +0.000 NA
ENDBRANCH  20  23
ENDBRANCH   1  21
TORSDOF 4
ENDMDL
MODEL 8
REMARK VINA RESULT:      -7.9      6.484     10.262
REMARK  Name = 
REMARK  4 active torsions:
REMARK  status: ('A' for Active; 'I' for Inactive)
REMARK    1  A    between atoms: C_2  and  C_21
REMARK    2  A    between atoms: N_3  and  C_4
REMARK    3  A    between atoms: C_9  and  C_10
REMARK    4  A    between atoms: C_12  and  C_13
REMARK                            x       y       z     vdW  Elec       q    Type
REMARK                         _______ _______ _______ _____ _____    ______ ____
ROOT
ATOM      1  C   UNL     1      -3.156  13.511  23.114  0.00  0.00    +0.000 A 
ATOM      2  C   UNL     1      -3.031  14.210  24.323  0.00  0.00    +0.000 A 
ATOM      3  C   UNL     1      -3.871  15.283  24.630  0.00  0.00    +0.000 A 
ATOM      4  C   UNL     1      -4.837  15.692  23.722  0.00  0.00    +0.000 A 
ATOM      5  C   UNL     1      -4.979  15.012  22.513  0.00  0.00    +0.000 A 
ATOM      6  C   UNL     1      -4.161  13.905  22.201  0.00  0.00    +0.000 A 
ENDROOT
BRANCH   6   7
ATOM      7  C   UNL     1      -4.429  13.141  20.980  0.00  0.00    +0.000 A 
ATOM      8  N   UNL     1      -3.575  12.782  20.042  0.00  0.00    +0.000 NA
ATOM      9  C   UNL     1      -4.319  11.997  19.183  0.00  0.00    +0.000 A 
ATOM     10  N   UNL     1      -5.600  11.857  19.558  0.00  0.00    +0.000 NA
ATOM     11  N   UNL     1      -5.637  12.568  20.690  0.00  0.00    +0.000 N 
ATOM     12  H   UNL     1      -6.489  12.585  21.235  0.00  0.00    +0.000 HD
BRANCH   9  13
ATOM     13  C   UNL     1      -3.737  11.348  18.013  0.00  0.00    +0.000 A 
ATOM     14  C   UNL     1      -2.570  10.582  18.136  0.00  0.00    +0.000 A 
ATOM     15  C   UNL     1      -2.025   9.934  17.024  0.00  0.00    +0.000 A 
ATOM     16  C   UNL     1      -2.642  10.046  15.780  0.00  0.00    +0.000 A 
ATOM     17  C   UNL     1      -3.797  10.811  15.642  0.00  0.00    +0.000 A 
ATOM     18  C   UNL     1      -4.343  11.459  16.753  0.00  0.00    +0.000 A 
ENDBRANCH   9  13
ENDBRANCH   6   7
BRANCH   1  21
ATOM     19  O   UNL     1      -0.269  13.513  22.412  0.00  0.00    +0.000 OA
ATOM     20  C   UNL     1      -0.963  12.500  22.433  0.00  0.00    +0.000 C 
ATOM     21  N   UNL     1      -2.296  12.428  22.791  0.00  0.00    +0.000 N 
ATOM     22  H   UNL     1      -2.694  11.488  22.876  0.00  0.00    +0.000 HD
BRANCH  20  23
ATOM     23  C   UNL     1      -0.329  11.200  22.080  0.00  0.00    +0.000 A 
ATOM     24  C   UNL     1      -0.084  10.907  20.742  0.00  0.00    +0.000 A 
ATOM     25  N   UNL     1       0.468   9.734  20.341  0.00  0.00    +0.000 NA
ATOM     26  C   UNL     1       0.762   8.868  21.337  0.00  0.00    +0.000 A 
ATOM     27  C   UNL     1       0.520   9.159  22.673  0.00  0.00    +0.000 A 
ATOM     28  N   UNL     1      -0.027  10.329  23.085  0.00  0.00    +0.000 NA
ENDBRANCH  20  23
ENDBRANCH   1  21
TORSDOF 4
ENDMDL
MODEL 9
REMARK VINA RESULT:      -7.9      3.975      7.970
REMARK  Name = 
REMARK  4 active torsions:
REMARK  status: ('A' for Active; 'I' for Inactive)
REMARK    1  A    between atoms: C_2  and  C_21
REMARK    2  A    between atoms: N_3  and  C_4
REMARK    3  A    between atoms: C_9  and  C_10
REMARK    4  A    between atoms: C_12  and  C_13
REMARK                            x       y       z     vdW  Elec       q    Type
REMARK                         _______ _______ _______ _____ _____    ______ ____
ROOT
ATOM      1  C   UNL     1      -0.476   9.774  20.781  0.00  0.00    +0.000 A 
ATOM      2  C   UNL     1      -1.070  10.289  21.942  0.00  0.00    +0.000 A 
ATOM      3  C   UNL     1      -0.453  10.165  23.189  0.00  0.00    +0.000 A 
ATOM      4  C   UNL     1       0.761   9.501  23.300  0.00  0.00    +0.000 A 
ATOM      5  C   UNL     1       1.369   8.981  22.159  0.00  0.00    +0.000 A 
ATOM      6  C   UNL     1       0.776   9.126  20.887  0.00  0.00    +0.000 A 
ENDROOT
BRANCH   6   7
ATOM      7  C   UNL     1       1.510   8.679  19.701  0.00  0.00    +0.000 A 
ATOM      8  N   UNL     1       2.210   7.572  19.547  0.00  0.00    +0.000 NA
ATOM      9  C   UNL     1       2.597   7.593  18.222  0.00  0.00    +0.000 A 
ATOM     10  N   UNL     1       2.160   8.670  17.551  0.00  0.00    +0.000 NA
ATOM     11  N   UNL     1       1.471   9.323  18.495  0.00  0.00    +0.000 N 
ATOM     12  H   UNL     1       0.966  10.163  18.245  0.00  0.00    +0.000 HD
BRANCH   9  13
ATOM     13  C   UNL     1       3.364   6.511  17.613  0.00  0.00    +0.000 A 
ATOM     14  C   UNL     1       2.981   5.177  17.804  0.00  0.00    +0.000 A 
ATOM     15  C   UNL     1       3.694   4.139  17.200  0.00  0.00    +0.000 A 
ATOM     16  C   UNL     1       4.798   4.425  16.399  0.00  0.00    +0.000 A 
ATOM     17  C   UNL     1       5.196   5.746  16.208  0.00  0.00    +0.000 A 
ATOM     18  C   UNL     1       4.483   6.785  16.812  0.00  0.00    +0.000 A 
ENDBRANCH   9  13
ENDBRANCH   6   7
BRANCH   1  21
ATOM     19  O   UNL     1      -1.691  12.141  19.458  0.00  0.00    +0.000 OA
ATOM     20  C   UNL     1      -1.689  11.015  18.969  0.00  0.00    +0.000 C 
ATOM     21  N   UNL     1      -1.106   9.886  19.514  0.00  0.00    +0.000 N 
ATOM     22  H   UNL     1      -1.087   9.052  18.919  0.00  0.00    +0.000 HD
BRANCH  20  23
ATOM     23  C   UNL     1      -2.338  10.818  17.644  0.00  0.00    +0.000 A 
ATOM     24  C   UNL     1      -3.509  11.511  17.353  0.00  0.00    +0.000 A 
ATOM     25  N   UNL     1      -4.170  11.366  16.176  0.00  0.00    +0.000 NA
ATOM     26  C   UNL     1      -3.609  10.497  15.307  0.00  0.00    +0.000 A 
ATOM     27  C   UNL     1      -2.440   9.805  15.594  0.00  0.00    +0.000 A 
ATOM     28  N   UNL     1      -1.769   9.946  16.764  0.00  0.00    +0.000 NA
ENDBRANCH  20  23
ENDBRANCH   1  21
TORSDOF 4
ENDMDL
