MODEL 1
REMARK VINA RESULT:      -8.7      0.000      0.000
REMARK  Name = 
REMARK  6 active torsions:
REMARK  status: ('A' for Active; 'I' for Inactive)
REMARK    1  A    between atoms: C_2  and  C_16
REMARK    2  A    between atoms: N_3  and  C_4
REMARK    3  A    between atoms: C_9  and  C_10
REMARK    4  A    between atoms: N_12  and  C_13
REMARK    5  A    between atoms: N_18  and  C_19
REMARK    6  A    between atoms: C_24  and  C_25
REMARK                            x       y       z     vdW  Elec       q    Type
REMARK                         _______ _______ _______ _____ _____    ______ ____
ROOT
ATOM      1  O   UNL     1       2.493   6.367  20.211  0.00  0.00    +0.000 OA
ATOM      2  C   UNL     1       2.257   6.675  19.047  0.00  0.00    +0.000 C 
ATOM      3  N   UNL     1       2.229   5.789  17.987  0.00  0.00    +0.000 N 
ATOM      4  H   UNL     1       2.336   6.185  17.055  0.00  0.00    +0.000 HD
ENDROOT
BRANCH   3   5
ATOM      5  C   UNL     1       2.442   4.403  18.157  0.00  0.00    +0.000 A 
ATOM      6  C   UNL     1       1.367   3.593  18.563  0.00  0.00    +0.000 A 
ATOM      7  C   UNL     1       1.517   2.208  18.667  0.00  0.00    +0.000 A 
ATOM      8  C   UNL     1       2.742   1.617  18.377  0.00  0.00    +0.000 A 
ATOM      9  C   UNL     1       3.819   2.413  17.987  0.00  0.00    +0.000 A 
ATOM     10  C   UNL     1       3.682   3.807  17.876  0.00  0.00    +0.000 A 
BRANCH  10  11
ATOM     11  C   UNL     1       4.922   4.574  17.560  0.00  0.00    +0.000 C 
ATOM     12  O   UNL     1       4.956   5.291  16.562  0.00  0.00    +0.000 OA
ATOM     13  N   UNL     1       6.009   4.374  18.395  0.00  0.00    +0.000 N 
ATOM     14  H   UNL     1       5.966   3.621  19.071  0.00  0.00    +0.000 HD
BRANCH  13  15
ATOM     15  C   UNL     1       7.290   4.945  18.109  0.00  0.00    +0.000 C 
ATOM     16  C   UNL     1       8.083   5.659  19.169  0.00  0.00    +0.000 C 
ATOM     17  C   UNL     1       7.466   6.436  18.044  0.00  0.00    +0.000 C 
ENDBRANCH  13  15
ENDBRANCH  10  11
ENDBRANCH   3   5
BRANCH   2  18
ATOM     18  C   UNL     1       2.102   8.066  18.656  0.00  0.00    +0.000 A 
ATOM     19  C   UNL     1       1.454   9.040  19.381  0.00  0.00    +0.000 A 
ATOM     20  N   UNL     1       1.436  10.132  18.556  0.00  0.00    +0.000 N 
ATOM     21  N   UNL     1       2.161   9.877  17.442  0.00  0.00    +0.000 NA
ATOM     22  N   UNL     1       2.575   8.616  17.495  0.00  0.00    +0.000 NA
BRANCH  20  23
ATOM     23  C   UNL     1       0.858  11.392  18.824  0.00  0.00    +0.000 A 
ATOM     24  C   UNL     1       1.690  12.386  19.376  0.00  0.00    +0.000 A 
ATOM     25  C   UNL     1       1.205  13.675  19.594  0.00  0.00    +0.000 A 
ATOM     26  C   UNL     1      -0.110  13.982  19.273  0.00  0.00    +0.000 A 
ATOM     27  C   UNL     1      -0.950  12.992  18.763  0.00  0.00    +0.000 A 
ATOM     28  C   UNL     1      -0.496  11.671  18.551  0.00  0.00    +0.000 A 
BRANCH  28  29
ATOM     29  C   UNL     1      -1.548  10.649  18.174  0.00  0.00    +0.000 C 
ATOM     30  F   UNL     1      -1.791   9.676  19.090  0.00  0.00    +0.000 F 
ATOM     31  F   UNL     1      -2.767  11.250  18.000  0.00  0.00    +0.000 F 
ATOM     32  F   UNL     1      -1.282  10.028  16.993  0.00  0.00    +0.000 F 
ENDBRANCH  28  29
ENDBRANCH  20  23
ENDBRANCH   2  18
TORSDOF 6
ENDMDL
MODEL 2
REMARK VINA RESULT:      -8.7      3.401      9.070
REMARK  Name = 
REMARK  6 active torsions:
REMARK  status: ('A' for Active; 'I' for Inactive)
REMARK    1  A    between atoms: C_2  and  C_16
REMARK    2  A    between atoms: N_3  and  C_4
REMARK    3  A    between atoms: C_9  and  C_10
REMARK    4  A    between atoms: N_12  and  C_13
REMARK    5  A    between atoms: N_18  and  C_19
REMARK    6  A    between atoms: C_24  and  C_25
REMARK                            x       y       z     vdW  Elec       q    Type
REMARK                         _______ _______ _______ _____ _____    ______ ____
ROOT
ATOM      1  O   UNL     1       2.191   9.998  17.481  0.00  0.00    +0.000 OA
ATOM      2  C   UNL     1       1.768   9.596  18.560  0.00  0.00    +0.000 C 
ATOM      3  N   UNL     1       1.152  10.389  19.510  0.00  0.00    +0.000 N 
ATOM      4  H   UNL     1       1.131  10.030  20.463  0.00  0.00    +0.000 HD
ENDROOT
BRANCH   3   5
ATOM      5  C   UNL     1       0.915  11.765  19.304  0.00  0.00    +0.000 A 
ATOM      6  C   UNL     1       1.873  12.696  19.743  0.00  0.00    +0.000 A 
ATOM      7  C   UNL     1       1.711  14.060  19.489  0.00  0.00    +0.000 A 
ATOM      8  C   UNL     1       0.588  14.512  18.802  0.00  0.00    +0.000 A 
ATOM      9  C   UNL     1      -0.376  13.598  18.375  0.00  0.00    +0.000 A 
ATOM     10  C   UNL     1      -0.225  12.223  18.622  0.00  0.00    +0.000 A 
BRANCH  10  11
ATOM     11  C   UNL     1      -1.363  11.347  18.222  0.00  0.00    +0.000 C 
ATOM     12  O   UNL     1      -1.832  10.549  19.032  0.00  0.00    +0.000 OA
ATOM     13  N   UNL     1      -1.791  11.441  16.907  0.00  0.00    +0.000 N 
ATOM     14  H   UNL     1      -1.228  11.971  16.254  0.00  0.00    +0.000 HD
BRANCH  13  15
ATOM     15  C   UNL     1      -2.778  10.552  16.374  0.00  0.00    +0.000 C 
ATOM     16  C   UNL     1      -3.203  10.628  14.933  0.00  0.00    +0.000 C 
ATOM     17  C   UNL     1      -4.148  11.057  16.016  0.00  0.00    +0.000 C 
ENDBRANCH  13  15
ENDBRANCH  10  11
ENDBRANCH   3   5
BRANCH   2  18
ATOM     18  C   UNL     1       2.000   8.228  18.995  0.00  0.00    +0.000 A 
ATOM     19  C   UNL     1       2.345   7.172  18.183  0.00  0.00    +0.000 A 
ATOM     20  N   UNL     1       2.306   6.077  19.004  0.00  0.00    +0.000 N 
ATOM     21  N   UNL     1       2.086   6.468  20.281  0.00  0.00    +0.000 NA
ATOM     22  N   UNL     1       1.900   7.784  20.286  0.00  0.00    +0.000 NA
BRANCH  20  23
ATOM     23  C   UNL     1       2.556   4.735  18.645  0.00  0.00    +0.000 A 
ATOM     24  C   UNL     1       1.461   3.848  18.636  0.00  0.00    +0.000 A 
ATOM     25  C   UNL     1       1.622   2.527  18.218  0.00  0.00    +0.000 A 
ATOM     26  C   UNL     1       2.872   2.079  17.815  0.00  0.00    +0.000 A 
ATOM     27  C   UNL     1       3.968   2.940  17.859  0.00  0.00    +0.000 A 
ATOM     28  C   UNL     1       3.843   4.276  18.298  0.00  0.00    +0.000 A 
BRANCH  28  29
ATOM     29  C   UNL     1       5.133   5.051  18.478  0.00  0.00    +0.000 C 
ATOM     30  F   UNL     1       5.350   5.571  19.713  0.00  0.00    +0.000 F 
ATOM     31  F   UNL     1       6.217   4.241  18.265  0.00  0.00    +0.000 F 
ATOM     32  F   UNL     1       5.265   6.070  17.587  0.00  0.00    +0.000 F 
ENDBRANCH  28  29
ENDBRANCH  20  23
ENDBRANCH   2  18
TORSDOF 6
ENDMDL
MODEL 3
REMARK VINA RESULT:      -8.4      1.285      1.646
REMARK  Name = 
REMARK  6 active torsions:
REMARK  status: ('A' for Active; 'I' for Inactive)
REMARK    1  A    between atoms: C_2  and  C_16
REMARK    2  A    between atoms: N_3  and  C_4
REMARK    3  A    between atoms: C_9  and  C_10
REMARK    4  A    between atoms: N_12  and  C_13
REMARK    5  A    between atoms: N_18  and  C_19
REMARK    6  A    between atoms: C_24  and  C_25
REMARK                            x       y       z     vdW  Elec       q    Type
REMARK                         _______ _______ _______ _____ _____    ______ ____
ROOT
ATOM      1  O   UNL     1       2.935   6.464  20.104  0.00  0.00    +0.000 OA
ATOM      2  C   UNL     1       2.386   6.733  19.040  0.00  0.00    +0.000 C 
ATOM      3  N   UNL     1       2.060   5.808  18.066  0.00  0.00    +0.000 N 
ATOM      4  H   UNL     1       1.905   6.168  17.126  0.00  0.00    +0.000 HD
ENDROOT
BRANCH   3   5
ATOM      5  C   UNL     1       2.302   4.427  18.227  0.00  0.00    +0.000 A 
ATOM      6  C   UNL     1       1.353   3.642  18.905  0.00  0.00    +0.000 A 
ATOM      7  C   UNL     1       1.519   2.259  19.017  0.00  0.00    +0.000 A 
ATOM      8  C   UNL     1       2.637   1.645  18.462  0.00  0.00    +0.000 A 
ATOM      9  C   UNL     1       3.593   2.417  17.800  0.00  0.00    +0.000 A 
ATOM     10  C   UNL     1       3.437   3.808  17.678  0.00  0.00    +0.000 A 
BRANCH  10  11
ATOM     11  C   UNL     1       4.568   4.551  17.050  0.00  0.00    +0.000 C 
ATOM     12  O   UNL     1       5.177   5.397  17.701  0.00  0.00    +0.000 OA
ATOM     13  N   UNL     1       4.826   4.283  15.715  0.00  0.00    +0.000 N 
ATOM     14  H   UNL     1       4.158   3.725  15.197  0.00  0.00    +0.000 HD
BRANCH  13  15
ATOM     15  C   UNL     1       5.791   5.033  14.972  0.00  0.00    +0.000 C 
ATOM     16  C   UNL     1       6.556   4.415  13.834  0.00  0.00    +0.000 C 
ATOM     17  C   UNL     1       7.260   4.748  15.116  0.00  0.00    +0.000 C 
ENDBRANCH  13  15
ENDBRANCH  10  11
ENDBRANCH   3   5
BRANCH   2  18
ATOM     18  C   UNL     1       2.138   8.111  18.651  0.00  0.00    +0.000 A 
ATOM     19  C   UNL     1       1.485   9.057  19.408  0.00  0.00    +0.000 A 
ATOM     20  N   UNL     1       1.362  10.140  18.580  0.00  0.00    +0.000 N 
ATOM     21  N   UNL     1       2.032   9.912  17.425  0.00  0.00    +0.000 NA
ATOM     22  N   UNL     1       2.512   8.674  17.461  0.00  0.00    +0.000 NA
BRANCH  20  23
ATOM     23  C   UNL     1       0.738  11.371  18.874  0.00  0.00    +0.000 A 
ATOM     24  C   UNL     1       1.517  12.363  19.502  0.00  0.00    +0.000 A 
ATOM     25  C   UNL     1       0.987  13.628  19.752  0.00  0.00    +0.000 A 
ATOM     26  C   UNL     1      -0.322  13.912  19.388  0.00  0.00    +0.000 A 
ATOM     27  C   UNL     1      -1.112  12.923  18.802  0.00  0.00    +0.000 A 
ATOM     28  C   UNL     1      -0.612  11.625  18.556  0.00  0.00    +0.000 A 
BRANCH  28  29
ATOM     29  C   UNL     1      -1.617  10.591  18.092  0.00  0.00    +0.000 C 
ATOM     30  F   UNL     1      -1.291   9.904  16.967  0.00  0.00    +0.000 F 
ATOM     31  F   UNL     1      -1.779   9.615  19.039  0.00  0.00    +0.000 F 
ATOM     32  F   UNL     1      -2.858  11.112  17.897  0.00  0.00    +0.000 F 
ENDBRANCH  28  29
ENDBRANCH  20  23
ENDBRANCH   2  18
TORSDOF 6
ENDMDL
MODEL 4
REMARK VINA RESULT:      -8.3      1.656      1.983
REMARK  Name = 
REMARK  6 active torsions:
REMARK  status: ('A' for Active; 'I' for Inactive)
REMARK    1  A    between atoms: C_2  and  C_16
REMARK    2  A    between atoms: N_3  and  C_4
REMARK    3  A    between atoms: C_9  and  C_10
REMARK    4  A    between atoms: N_12  and  C_13
REMARK    5  A    between atoms: N_18  and  C_19
REMARK    6  A    between atoms: C_24  and  C_25
REMARK                            x       y       z     vdW  Elec       q    Type
REMARK                         _______ _______ _______ _____ _____    ______ ____
ROOT
ATOM      1  O   UNL     1       1.896   5.740  17.812  0.00  0.00    +0.000 OA
ATOM      2  C   UNL     1       2.301   6.551  18.638  0.00  0.00    +0.000 C 
ATOM      3  N   UNL     1       2.825   6.222  19.874  0.00  0.00    +0.000 N 
ATOM      4  H   UNL     1       2.833   6.957  20.579  0.00  0.00    +0.000 HD
ENDROOT
BRANCH   3   5
ATOM      5  C   UNL     1       2.978   4.884  20.296  0.00  0.00    +0.000 A 
ATOM      6  C   UNL     1       2.066   4.353  21.225  0.00  0.00    +0.000 A 
ATOM      7  C   UNL     1       2.136   3.011  21.608  0.00  0.00    +0.000 A 
ATOM      8  C   UNL     1       3.122   2.187  21.076  0.00  0.00    +0.000 A 
ATOM      9  C   UNL     1       4.042   2.707  20.164  0.00  0.00    +0.000 A 
ATOM     10  C   UNL     1       3.981   4.054  19.769  0.00  0.00    +0.000 A 
BRANCH  10  11
ATOM     11  C   UNL     1       5.076   4.534  18.878  0.00  0.00    +0.000 C 
ATOM     12  O   UNL     1       6.130   4.934  19.369  0.00  0.00    +0.000 OA
ATOM     13  N   UNL     1       4.807   4.565  17.519  0.00  0.00    +0.000 N 
ATOM     14  H   UNL     1       3.854   4.412  17.212  0.00  0.00    +0.000 HD
BRANCH  13  15
ATOM     15  C   UNL     1       5.727   5.137  16.584  0.00  0.00    +0.000 C 
ATOM     16  C   UNL     1       5.300   6.213  15.623  0.00  0.00    +0.000 C 
ATOM     17  C   UNL     1       5.613   4.836  15.116  0.00  0.00    +0.000 C 
ENDBRANCH  13  15
ENDBRANCH  10  11
ENDBRANCH   3   5
BRANCH   2  18
ATOM     18  C   UNL     1       2.146   7.981  18.426  0.00  0.00    +0.000 A 
ATOM     19  C   UNL     1       1.444   8.844  19.236  0.00  0.00    +0.000 A 
ATOM     20  N   UNL     1       1.453  10.036  18.563  0.00  0.00    +0.000 N 
ATOM     21  N   UNL     1       2.241   9.938  17.467  0.00  0.00    +0.000 NA
ATOM     22  N   UNL     1       2.671   8.684  17.376  0.00  0.00    +0.000 NA
BRANCH  20  23
ATOM     23  C   UNL     1       0.841  11.244  18.963  0.00  0.00    +0.000 A 
ATOM     24  C   UNL     1       1.629  12.167  19.679  0.00  0.00    +0.000 A 
ATOM     25  C   UNL     1       1.112  13.411  20.037  0.00  0.00    +0.000 A 
ATOM     26  C   UNL     1      -0.192  13.742  19.694  0.00  0.00    +0.000 A 
ATOM     27  C   UNL     1      -0.990  12.817  19.021  0.00  0.00    +0.000 A 
ATOM     28  C   UNL     1      -0.504  11.541  18.663  0.00  0.00    +0.000 A 
BRANCH  28  29
ATOM     29  C   UNL     1      -1.519  10.564  18.106  0.00  0.00    +0.000 C 
ATOM     30  F   UNL     1      -1.136   9.870  17.003  0.00  0.00    +0.000 F 
ATOM     31  F   UNL     1      -1.808   9.590  19.025  0.00  0.00    +0.000 F 
ATOM     32  F   UNL     1      -2.711  11.150  17.815  0.00  0.00    +0.000 F 
ENDBRANCH  28  29
ENDBRANCH  20  23
ENDBRANCH   2  18
TORSDOF 6
ENDMDL
MODEL 5
REMARK VINA RESULT:      -8.2      1.364      1.522
REMARK  Name = 
REMARK  6 active torsions:
REMARK  status: ('A' for Active; 'I' for Inactive)
REMARK    1  A    between atoms: C_2  and  C_16
REMARK    2  A    between atoms: N_3  and  C_4
REMARK    3  A    between atoms: C_9  and  C_10
REMARK    4  A    between atoms: N_12  and  C_13
REMARK    5  A    between atoms: N_18  and  C_19
REMARK    6  A    between atoms: C_24  and  C_25
REMARK                            x       y       z     vdW  Elec       q    Type
REMARK                         _______ _______ _______ _____ _____    ______ ____
ROOT
ATOM      1  O   UNL     1       1.838   5.769  17.802  0.00  0.00    +0.000 OA
ATOM      2  C   UNL     1       2.296   6.575  18.605  0.00  0.00    +0.000 C 
ATOM      3  N   UNL     1       2.894   6.238  19.805  0.00  0.00    +0.000 N 
ATOM      4  H   UNL     1       2.947   6.969  20.512  0.00  0.00    +0.000 HD
ENDROOT
BRANCH   3   5
ATOM      5  C   UNL     1       3.068   4.897  20.210  0.00  0.00    +0.000 A 
ATOM      6  C   UNL     1       2.206   4.360  21.183  0.00  0.00    +0.000 A 
ATOM      7  C   UNL     1       2.296   3.017  21.554  0.00  0.00    +0.000 A 
ATOM      8  C   UNL     1       3.252   2.195  20.966  0.00  0.00    +0.000 A 
ATOM      9  C   UNL     1       4.123   2.720  20.010  0.00  0.00    +0.000 A 
ATOM     10  C   UNL     1       4.042   4.070  19.627  0.00  0.00    +0.000 A 
BRANCH  10  11
ATOM     11  C   UNL     1       5.088   4.556  18.682  0.00  0.00    +0.000 C 
ATOM     12  O   UNL     1       4.956   4.362  17.475  0.00  0.00    +0.000 OA
ATOM     13  N   UNL     1       6.207   5.152  19.241  0.00  0.00    +0.000 N 
ATOM     14  H   UNL     1       6.333   5.095  20.244  0.00  0.00    +0.000 HD
BRANCH  13  15
ATOM     15  C   UNL     1       7.335   5.528  18.444  0.00  0.00    +0.000 C 
ATOM     16  C   UNL     1       8.145   6.754  18.764  0.00  0.00    +0.000 C 
ATOM     17  C   UNL     1       7.270   6.731  17.546  0.00  0.00    +0.000 C 
ENDBRANCH  13  15
ENDBRANCH  10  11
ENDBRANCH   3   5
BRANCH   2  18
ATOM     18  C   UNL     1       2.132   8.005  18.410  0.00  0.00    +0.000 A 
ATOM     19  C   UNL     1       1.433   8.856  19.236  0.00  0.00    +0.000 A 
ATOM     20  N   UNL     1       1.431  10.056  18.576  0.00  0.00    +0.000 N 
ATOM     21  N   UNL     1       2.210   9.973  17.473  0.00  0.00    +0.000 NA
ATOM     22  N   UNL     1       2.646   8.722  17.364  0.00  0.00    +0.000 NA
BRANCH  20  23
ATOM     23  C   UNL     1       0.817  11.256  18.994  0.00  0.00    +0.000 A 
ATOM     24  C   UNL     1       1.599  12.164  19.736  0.00  0.00    +0.000 A 
ATOM     25  C   UNL     1       1.080  13.401  20.115  0.00  0.00    +0.000 A 
ATOM     26  C   UNL     1      -0.220  13.741  19.766  0.00  0.00    +0.000 A 
ATOM     27  C   UNL     1      -1.012  12.832  19.066  0.00  0.00    +0.000 A 
ATOM     28  C   UNL     1      -0.524  11.562  18.687  0.00  0.00    +0.000 A 
BRANCH  28  29
ATOM     29  C   UNL     1      -1.535  10.598  18.100  0.00  0.00    +0.000 C 
ATOM     30  F   UNL     1      -1.141   9.921  16.991  0.00  0.00    +0.000 F 
ATOM     31  F   UNL     1      -1.840   9.610  18.998  0.00  0.00    +0.000 F 
ATOM     32  F   UNL     1      -2.721  11.193  17.804  0.00  0.00    +0.000 F 
ENDBRANCH  28  29
ENDBRANCH  20  23
ENDBRANCH   2  18
TORSDOF 6
ENDMDL
MODEL 6
REMARK VINA RESULT:      -8.2      1.696      3.264
REMARK  Name = 
REMARK  6 active torsions:
REMARK  status: ('A' for Active; 'I' for Inactive)
REMARK    1  A    between atoms: C_2  and  C_16
REMARK    2  A    between atoms: N_3  and  C_4
REMARK    3  A    between atoms: C_9  and  C_10
REMARK    4  A    between atoms: N_12  and  C_13
REMARK    5  A    between atoms: N_18  and  C_19
REMARK    6  A    between atoms: C_24  and  C_25
REMARK                            x       y       z     vdW  Elec       q    Type
REMARK                         _______ _______ _______ _____ _____    ______ ____
ROOT
ATOM      1  O   UNL     1       3.529   6.125  19.804  0.00  0.00    +0.000 OA
ATOM      2  C   UNL     1       2.974   6.835  18.972  0.00  0.00    +0.000 C 
ATOM      3  N   UNL     1       3.202   6.778  17.610  0.00  0.00    +0.000 N 
ATOM      4  H   UNL     1       2.937   7.598  17.066  0.00  0.00    +0.000 HD
ENDROOT
BRANCH   3   5
ATOM      5  C   UNL     1       4.092   5.847  17.032  0.00  0.00    +0.000 A 
ATOM      6  C   UNL     1       5.230   6.321  16.355  0.00  0.00    +0.000 A 
ATOM      7  C   UNL     1       6.175   5.431  15.838  0.00  0.00    +0.000 A 
ATOM      8  C   UNL     1       5.991   4.060  15.982  0.00  0.00    +0.000 A 
ATOM      9  C   UNL     1       4.858   3.578  16.640  0.00  0.00    +0.000 A 
ATOM     10  C   UNL     1       3.901   4.463  17.166  0.00  0.00    +0.000 A 
BRANCH  10  11
ATOM     11  C   UNL     1       2.676   3.844  17.750  0.00  0.00    +0.000 C 
ATOM     12  O   UNL     1       1.604   3.934  17.154  0.00  0.00    +0.000 OA
ATOM     13  N   UNL     1       2.810   3.248  18.994  0.00  0.00    +0.000 N 
ATOM     14  H   UNL     1       3.671   3.390  19.507  0.00  0.00    +0.000 HD
BRANCH  13  15
ATOM     15  C   UNL     1       1.677   2.749  19.713  0.00  0.00    +0.000 C 
ATOM     16  C   UNL     1       0.864   3.641  20.610  0.00  0.00    +0.000 C 
ATOM     17  C   UNL     1       1.734   2.573  21.204  0.00  0.00    +0.000 C 
ENDBRANCH  13  15
ENDBRANCH  10  11
ENDBRANCH   3   5
BRANCH   2  18
ATOM     18  C   UNL     1       2.092   7.917  19.377  0.00  0.00    +0.000 A 
ATOM     19  C   UNL     1       1.847   9.067  18.663  0.00  0.00    +0.000 A 
ATOM     20  N   UNL     1       1.084   9.838  19.498  0.00  0.00    +0.000 N 
ATOM     21  N   UNL     1       0.764   9.133  20.608  0.00  0.00    +0.000 NA
ATOM     22  N   UNL     1       1.374   7.954  20.542  0.00  0.00    +0.000 NA
BRANCH  20  23
ATOM     23  C   UNL     1       0.588  11.135  19.244  0.00  0.00    +0.000 A 
ATOM     24  C   UNL     1       1.288  12.221  19.806  0.00  0.00    +0.000 A 
ATOM     25  C   UNL     1       0.900  13.532  19.533  0.00  0.00    +0.000 A 
ATOM     26  C   UNL     1      -0.190  13.772  18.707  0.00  0.00    +0.000 A 
ATOM     27  C   UNL     1      -0.911  12.701  18.180  0.00  0.00    +0.000 A 
ATOM     28  C   UNL     1      -0.557  11.362  18.455  0.00  0.00    +0.000 A 
BRANCH  28  29
ATOM     29  C   UNL     1      -1.525  10.297  17.981  0.00  0.00    +0.000 C 
ATOM     30  F   UNL     1      -2.067   9.510  18.945  0.00  0.00    +0.000 F 
ATOM     31  F   UNL     1      -2.611  10.867  17.371  0.00  0.00    +0.000 F 
ATOM     32  F   UNL     1      -0.983   9.469  17.048  0.00  0.00    +0.000 F 
ENDBRANCH  28  29
ENDBRANCH  20  23
ENDBRANCH   2  18
TORSDOF 6
ENDMDL
MODEL 7
REMARK VINA RESULT:      -8.2      3.413      9.237
REMARK  Name = 
REMARK  6 active torsions:
REMARK  status: ('A' for Active; 'I' for Inactive)
REMARK    1  A    between atoms: C_2  and  C_16
REMARK    2  A    between atoms: N_3  and  C_4
REMARK    3  A    between atoms: C_9  and  C_10
REMARK    4  A    between atoms: N_12  and  C_13
REMARK    5  A    between atoms: N_18  and  C_19
REMARK    6  A    between atoms: C_24  and  C_25
REMARK                            x       y       z     vdW  Elec       q    Type
REMARK                         _______ _______ _______ _____ _____    ______ ____
ROOT
ATOM      1  O   UNL     1       2.272   9.991  17.502  0.00  0.00    +0.000 OA
ATOM      2  C   UNL     1       1.772   9.575  18.542  0.00  0.00    +0.000 C 
ATOM      3  N   UNL     1       1.071  10.351  19.446  0.00  0.00    +0.000 N 
ATOM      4  H   UNL     1       0.981   9.985  20.392  0.00  0.00    +0.000 HD
ENDROOT
BRANCH   3   5
ATOM      5  C   UNL     1       0.829  11.725  19.231  0.00  0.00    +0.000 A 
ATOM      6  C   UNL     1       1.827  12.656  19.572  0.00  0.00    +0.000 A 
ATOM      7  C   UNL     1       1.656  14.016  19.303  0.00  0.00    +0.000 A 
ATOM      8  C   UNL     1       0.486  14.465  18.699  0.00  0.00    +0.000 A 
ATOM      9  C   UNL     1      -0.517  13.552  18.369  0.00  0.00    +0.000 A 
ATOM     10  C   UNL     1      -0.357  12.180  18.633  0.00  0.00    +0.000 A 
BRANCH  10  11
ATOM     11  C   UNL     1      -1.532  11.308  18.343  0.00  0.00    +0.000 C 
ATOM     12  O   UNL     1      -1.356  10.123  18.063  0.00  0.00    +0.000 OA
ATOM     13  N   UNL     1      -2.777  11.916  18.341  0.00  0.00    +0.000 N 
ATOM     14  H   UNL     1      -2.819  12.927  18.382  0.00  0.00    +0.000 HD
BRANCH  13  15
ATOM     15  C   UNL     1      -3.956  11.211  17.940  0.00  0.00    +0.000 C 
ATOM     16  C   UNL     1      -4.461  11.273  16.524  0.00  0.00    +0.000 C 
ATOM     17  C   UNL     1      -5.222  11.956  17.622  0.00  0.00    +0.000 C 
ENDBRANCH  13  15
ENDBRANCH  10  11
ENDBRANCH   3   5
BRANCH   2  18
ATOM     18  C   UNL     1       1.990   8.208  18.985  0.00  0.00    +0.000 A 
ATOM     19  C   UNL     1       2.346   7.148  18.182  0.00  0.00    +0.000 A 
ATOM     20  N   UNL     1       2.288   6.055  19.005  0.00  0.00    +0.000 N 
ATOM     21  N   UNL     1       2.046   6.451  20.277  0.00  0.00    +0.000 NA
ATOM     22  N   UNL     1       1.865   7.768  20.275  0.00  0.00    +0.000 NA
BRANCH  20  23
ATOM     23  C   UNL     1       2.540   4.711  18.655  0.00  0.00    +0.000 A 
ATOM     24  C   UNL     1       1.447   3.821  18.661  0.00  0.00    +0.000 A 
ATOM     25  C   UNL     1       1.609   2.498  18.252  0.00  0.00    +0.000 A 
ATOM     26  C   UNL     1       2.858   2.050  17.842  0.00  0.00    +0.000 A 
ATOM     27  C   UNL     1       3.951   2.915  17.872  0.00  0.00    +0.000 A 
ATOM     28  C   UNL     1       3.825   4.254  18.302  0.00  0.00    +0.000 A 
BRANCH  28  29
ATOM     29  C   UNL     1       5.114   5.034  18.466  0.00  0.00    +0.000 C 
ATOM     30  F   UNL     1       5.252   6.132  17.680  0.00  0.00    +0.000 F 
ATOM     31  F   UNL     1       5.222   5.525  19.741  0.00  0.00    +0.000 F 
ATOM     32  F   UNL     1       6.222   4.268  18.281  0.00  0.00    +0.000 F 
ENDBRANCH  28  29
ENDBRANCH  20  23
ENDBRANCH   2  18
TORSDOF 6
ENDMDL
MODEL 8
REMARK VINA RESULT:      -8.1      3.154      8.845
REMARK  Name = 
REMARK  6 active torsions:
REMARK  status: ('A' for Active; 'I' for Inactive)
REMARK    1  A    between atoms: C_2  and  C_16
REMARK    2  A    between atoms: N_3  and  C_4
REMARK    3  A    between atoms: C_9  and  C_10
REMARK    4  A    between atoms: N_12  and  C_13
REMARK    5  A    between atoms: N_18  and  C_19
REMARK    6  A    between atoms: C_24  and  C_25
REMARK                            x       y       z     vdW  Elec       q    Type
REMARK                         _______ _______ _______ _____ _____    ______ ____
ROOT
ATOM      1  O   UNL     1       2.078   9.836  17.451  0.00  0.00    +0.000 OA
ATOM      2  C   UNL     1       1.725   9.436  18.555  0.00  0.00    +0.000 C 
ATOM      3  N   UNL     1       1.120  10.219  19.521  0.00  0.00    +0.000 N 
ATOM      4  H   UNL     1       1.159   9.876  20.480  0.00  0.00    +0.000 HD
ENDROOT
BRANCH   3   5
ATOM      5  C   UNL     1       0.814  11.580  19.305  0.00  0.00    +0.000 A 
ATOM      6  C   UNL     1       1.689  12.563  19.800  0.00  0.00    +0.000 A 
ATOM      7  C   UNL     1       1.462  13.917  19.540  0.00  0.00    +0.000 A 
ATOM      8  C   UNL     1       0.355  14.306  18.792  0.00  0.00    +0.000 A 
ATOM      9  C   UNL     1      -0.528  13.340  18.308  0.00  0.00    +0.000 A 
ATOM     10  C   UNL     1      -0.310  11.974  18.561  0.00  0.00    +0.000 A 
BRANCH  10  11
ATOM     11  C   UNL     1      -1.371  11.036  18.095  0.00  0.00    +0.000 C 
ATOM     12  O   UNL     1      -1.867  10.236  18.886  0.00  0.00    +0.000 OA
ATOM     13  N   UNL     1      -1.694  11.077  16.748  0.00  0.00    +0.000 N 
ATOM     14  H   UNL     1      -1.105  11.618  16.127  0.00  0.00    +0.000 HD
BRANCH  13  15
ATOM     15  C   UNL     1      -2.593  10.130  16.162  0.00  0.00    +0.000 C 
ATOM     16  C   UNL     1      -2.979  10.212  14.711  0.00  0.00    +0.000 C 
ATOM     17  C   UNL     1      -3.987  10.536  15.774  0.00  0.00    +0.000 C 
ENDBRANCH  13  15
ENDBRANCH  10  11
ENDBRANCH   3   5
BRANCH   2  18
ATOM     18  C   UNL     1       2.035   8.088  19.000  0.00  0.00    +0.000 A 
ATOM     19  C   UNL     1       2.431   7.045  18.194  0.00  0.00    +0.000 A 
ATOM     20  N   UNL     1       2.460   5.956  19.024  0.00  0.00    +0.000 N 
ATOM     21  N   UNL     1       2.229   6.347  20.299  0.00  0.00    +0.000 NA
ATOM     22  N   UNL     1       1.970   7.650  20.295  0.00  0.00    +0.000 NA
BRANCH  20  23
ATOM     23  C   UNL     1       2.782   4.627  18.675  0.00  0.00    +0.000 A 
ATOM     24  C   UNL     1       3.506   4.424  17.483  0.00  0.00    +0.000 A 
ATOM     25  C   UNL     1       3.924   3.145  17.117  0.00  0.00    +0.000 A 
ATOM     26  C   UNL     1       3.617   2.060  17.927  0.00  0.00    +0.000 A 
ATOM     27  C   UNL     1       2.866   2.249  19.087  0.00  0.00    +0.000 A 
ATOM     28  C   UNL     1       2.410   3.528  19.475  0.00  0.00    +0.000 A 
BRANCH  28  29
ATOM     29  C   UNL     1       1.450   3.576  20.646  0.00  0.00    +0.000 C 
ATOM     30  F   UNL     1       1.918   4.164  21.777  0.00  0.00    +0.000 F 
ATOM     31  F   UNL     1       0.336   4.307  20.330  0.00  0.00    +0.000 F 
ATOM     32  F   UNL     1       0.985   2.347  20.998  0.00  0.00    +0.000 F 
ENDBRANCH  28  29
ENDBRANCH  20  23
ENDBRANCH   2  18
TORSDOF 6
ENDMDL
MODEL 9
REMARK VINA RESULT:      -8.0      3.381      8.695
REMARK  Name = 
REMARK  6 active torsions:
REMARK  status: ('A' for Active; 'I' for Inactive)
REMARK    1  A    between atoms: C_2  and  C_16
REMARK    2  A    between atoms: N_3  and  C_4
REMARK    3  A    between atoms: C_9  and  C_10
REMARK    4  A    between atoms: N_12  and  C_13
REMARK    5  A    between atoms: N_18  and  C_19
REMARK    6  A    between atoms: C_24  and  C_25
REMARK                            x       y       z     vdW  Elec       q    Type
REMARK                         _______ _______ _______ _____ _____    ______ ____
ROOT
ATOM      1  O   UNL     1       2.337  10.075  17.229  0.00  0.00    +0.000 OA
ATOM      2  C   UNL     1       1.964   9.413  18.192  0.00  0.00    +0.000 C 
ATOM      3  N   UNL     1       1.220   9.907  19.248  0.00  0.00    +0.000 N 
ATOM      4  H   UNL     1       1.240   9.370  20.114  0.00  0.00    +0.000 HD
ENDROOT
BRANCH   3   5
ATOM      5  C   UNL     1       0.779  11.247  19.297  0.00  0.00    +0.000 A 
ATOM      6  C   UNL     1       1.590  12.210  19.924  0.00  0.00    +0.000 A 
ATOM      7  C   UNL     1       1.226  13.558  19.926  0.00  0.00    +0.000 A 
ATOM      8  C   UNL     1       0.045  13.961  19.311  0.00  0.00    +0.000 A 
ATOM      9  C   UNL     1      -0.775  13.012  18.698  0.00  0.00    +0.000 A 
ATOM     10  C   UNL     1      -0.419  11.652  18.688  0.00  0.00    +0.000 A 
BRANCH  10  11
ATOM     11  C   UNL     1      -1.417  10.709  18.105  0.00  0.00    +0.000 C 
ATOM     12  O   UNL     1      -1.770   9.722  18.748  0.00  0.00    +0.000 OA
ATOM     13  N   UNL     1      -1.846  10.973  16.814  0.00  0.00    +0.000 N 
ATOM     14  H   UNL     1      -1.362  11.685  16.281  0.00  0.00    +0.000 HD
BRANCH  13  15
ATOM     15  C   UNL     1      -2.691  10.063  16.104  0.00  0.00    +0.000 C 
ATOM     16  C   UNL     1      -2.859  10.153  14.612  0.00  0.00    +0.000 C 
ATOM     17  C   UNL     1      -3.995  10.528  15.517  0.00  0.00    +0.000 C 
ENDBRANCH  13  15
ENDBRANCH  10  11
ENDBRANCH   3   5
BRANCH   2  18
ATOM     18  C   UNL     1       2.394   8.036  18.369  0.00  0.00    +0.000 A 
ATOM     19  C   UNL     1       1.745   7.078  19.113  0.00  0.00    +0.000 A 
ATOM     20  N   UNL     1       2.590   6.001  19.105  0.00  0.00    +0.000 N 
ATOM     21  N   UNL     1       3.635   6.244  18.279  0.00  0.00    +0.000 NA
ATOM     22  N   UNL     1       3.522   7.487  17.822  0.00  0.00    +0.000 NA
BRANCH  20  23
ATOM     23  C   UNL     1       2.396   4.762  19.753  0.00  0.00    +0.000 A 
ATOM     24  C   UNL     1       2.393   4.758  21.162  0.00  0.00    +0.000 A 
ATOM     25  C   UNL     1       2.131   3.583  21.867  0.00  0.00    +0.000 A 
ATOM     26  C   UNL     1       1.880   2.405  21.176  0.00  0.00    +0.000 A 
ATOM     27  C   UNL     1       1.921   2.394  19.782  0.00  0.00    +0.000 A 
ATOM     28  C   UNL     1       2.205   3.561  19.040  0.00  0.00    +0.000 A 
BRANCH  28  29
ATOM     29  C   UNL     1       2.407   3.381  17.549  0.00  0.00    +0.000 C 
ATOM     30  F   UNL     1       3.653   3.644  17.079  0.00  0.00    +0.000 F 
ATOM     31  F   UNL     1       2.185   2.079  17.185  0.00  0.00    +0.000 F 
ATOM     32  F   UNL     1       1.536   4.115  16.806  0.00  0.00    +0.000 F 
ENDBRANCH  28  29
ENDBRANCH  20  23
ENDBRANCH   2  18
TORSDOF 6
ENDMDL
