MODEL 1
REMARK VINA RESULT:      -9.5      0.000      0.000
REMARK  Name = 
REMARK  5 active torsions:
REMARK  status: ('A' for Active; 'I' for Inactive)
REMARK    1  A    between atoms: C_1  and  N_2
REMARK    2  A    between atoms: C_6  and  C_7
REMARK    3  A    between atoms: C_11  and  C_12
REMARK    4  A    between atoms: N_18  and  C_19
REMARK    5  A    between atoms: C_23  and  C_24
REMARK                            x       y       z     vdW  Elec       q    Type
REMARK                         _______ _______ _______ _____ _____    ______ ____
ROOT
ATOM      1  C   UNL     1       0.027  11.982  19.618  0.00  0.00    +0.000 A 
ATOM      2  C   UNL     1       0.742  11.217  18.700  0.00  0.00    +0.000 A 
ATOM      3  C   UNL     1       1.135   9.955  19.097  0.00  0.00    +0.000 A 
ATOM      4  C   UNL     1       0.853   9.428  20.354  0.00  0.00    +0.000 A 
ATOM      5  C   UNL     1       0.176  10.191  21.302  0.00  0.00    +0.000 A 
ATOM      6  C   UNL     1      -0.235  11.482  20.911  0.00  0.00    +0.000 A 
ATOM      7  C   UNL     1       1.364   8.024  20.420  0.00  0.00    +0.000 C 
ATOM      8  N   UNL     1       1.995   7.826  19.120  0.00  0.00    +0.000 N 
ATOM      9  C   UNL     1       1.872   8.960  18.317  0.00  0.00    +0.000 C 
ATOM     10  O   UNL     1       2.256   9.192  17.184  0.00  0.00    +0.000 OA
ENDROOT
BRANCH   1  16
ATOM     11  C   UNL     1       2.550  14.309  19.161  0.00  0.00    +0.000 C 
ATOM     12  N   UNL     1       1.313  14.869  19.688  0.00  0.00    +0.000 N 
ATOM     13  C   UNL     1       1.011  16.256  19.430  0.00  0.00    +0.000 C 
ATOM     14  C   UNL     1      -0.358  15.845  18.900  0.00  0.00    +0.000 C 
ATOM     15  C   UNL     1       0.132  14.466  19.292  0.00  0.00    +0.000 C 
ATOM     16  C   UNL     1      -0.495  13.285  19.213  0.00  0.00    +0.000 C 
ENDBRANCH   1  16
BRANCH   8  17
ATOM     17  C   UNL     1       2.679   6.628  18.781  0.00  0.00    +0.000 A 
ATOM     18  C   UNL     1       2.299   5.393  19.306  0.00  0.00    +0.000 A 
ATOM     19  C   UNL     1       2.950   4.221  18.924  0.00  0.00    +0.000 A 
ATOM     20  C   UNL     1       3.999   4.272  18.009  0.00  0.00    +0.000 A 
ATOM     21  C   UNL     1       4.437   5.487  17.448  0.00  0.00    +0.000 A 
ATOM     22  C   UNL     1       3.753   6.650  17.874  0.00  0.00    +0.000 A 
BRANCH  21  23
ATOM     23  C   UNL     1       5.606   5.565  16.362  0.00  0.00    +0.000 C 
ATOM     24  F   UNL     1       5.147   6.290  15.304  0.00  0.00    +0.000 F 
ATOM     25  C   UNL     1       6.283   4.233  15.965  0.00  0.00    +0.000 C 
ATOM     26  O   UNL     1       7.604   4.783  16.183  0.00  0.00    +0.000 OA
ATOM     27  C   UNL     1       7.029   5.954  16.813  0.00  0.00    +0.000 C 
ENDBRANCH  21  23
ENDBRANCH   8  17
BRANCH   5  28
ATOM     28  C   UNL     1      -0.127   9.697  22.690  0.00  0.00    +0.000 C 
ATOM     29  F   UNL     1       0.988   9.365  23.401  0.00  0.00    +0.000 F 
ATOM     30  F   UNL     1      -0.785  10.620  23.442  0.00  0.00    +0.000 F 
ATOM     31  F   UNL     1      -0.907   8.582  22.689  0.00  0.00    +0.000 F 
ENDBRANCH   5  28
TORSDOF 4
ENDMDL
MODEL 2
REMARK VINA RESULT:      -9.5      2.086      2.969
REMARK  Name = 
REMARK  5 active torsions:
REMARK  status: ('A' for Active; 'I' for Inactive)
REMARK    1  A    between atoms: C_1  and  N_2
REMARK    2  A    between atoms: C_6  and  C_7
REMARK    3  A    between atoms: C_11  and  C_12
REMARK    4  A    between atoms: N_18  and  C_19
REMARK    5  A    between atoms: C_23  and  C_24
REMARK                            x       y       z     vdW  Elec       q    Type
REMARK                         _______ _______ _______ _____ _____    ______ ____
ROOT
ATOM      1  C   UNL     1       0.054  12.020  19.574  0.00  0.00    +0.000 A 
ATOM      2  C   UNL     1       0.761  11.220  18.681  0.00  0.00    +0.000 A 
ATOM      3  C   UNL     1       1.128   9.961  19.110  0.00  0.00    +0.000 A 
ATOM      4  C   UNL     1       0.828   9.469  20.378  0.00  0.00    +0.000 A 
ATOM      5  C   UNL     1       0.158  10.267  21.301  0.00  0.00    +0.000 A 
ATOM      6  C   UNL     1      -0.227  11.555  20.876  0.00  0.00    +0.000 A 
ATOM      7  C   UNL     1       1.313   8.059  20.481  0.00  0.00    +0.000 C 
ATOM      8  N   UNL     1       1.949   7.819  19.191  0.00  0.00    +0.000 N 
ATOM      9  C   UNL     1       1.853   8.935  18.360  0.00  0.00    +0.000 C 
ATOM     10  O   UNL     1       2.249   9.132  17.225  0.00  0.00    +0.000 OA
ENDROOT
BRANCH   1  16
ATOM     11  C   UNL     1       2.600  14.347  19.277  0.00  0.00    +0.000 C 
ATOM     12  N   UNL     1       1.331  14.907  19.722  0.00  0.00    +0.000 N 
ATOM     13  C   UNL     1       1.046  16.294  19.444  0.00  0.00    +0.000 C 
ATOM     14  C   UNL     1      -0.286  15.881  18.826  0.00  0.00    +0.000 C 
ATOM     15  C   UNL     1       0.178  14.504  19.252  0.00  0.00    +0.000 C 
ATOM     16  C   UNL     1      -0.442  13.321  19.134  0.00  0.00    +0.000 C 
ENDBRANCH   1  16
BRANCH   8  17
ATOM     17  C   UNL     1       2.614   6.601  18.885  0.00  0.00    +0.000 A 
ATOM     18  C   UNL     1       3.695   6.556  18.003  0.00  0.00    +0.000 A 
ATOM     19  C   UNL     1       4.367   5.362  17.753  0.00  0.00    +0.000 A 
ATOM     20  C   UNL     1       3.961   4.187  18.383  0.00  0.00    +0.000 A 
ATOM     21  C   UNL     1       2.874   4.162  19.278  0.00  0.00    +0.000 A 
ATOM     22  C   UNL     1       2.216   5.397  19.492  0.00  0.00    +0.000 A 
BRANCH  21  23
ATOM     23  C   UNL     1       2.420   2.838  20.047  0.00  0.00    +0.000 C 
ATOM     24  F   UNL     1       2.451   1.805  19.159  0.00  0.00    +0.000 F 
ATOM     25  C   UNL     1       1.115   2.919  20.871  0.00  0.00    +0.000 C 
ATOM     26  O   UNL     1       1.759   2.357  22.040  0.00  0.00    +0.000 OA
ATOM     27  C   UNL     1       3.057   2.504  21.413  0.00  0.00    +0.000 C 
ENDBRANCH  21  23
ENDBRANCH   8  17
BRANCH   5  28
ATOM     28  C   UNL     1      -0.165   9.812  22.699  0.00  0.00    +0.000 C 
ATOM     29  F   UNL     1       0.940   9.490  23.431  0.00  0.00    +0.000 F 
ATOM     30  F   UNL     1      -0.823  10.760  23.419  0.00  0.00    +0.000 F 
ATOM     31  F   UNL     1      -0.954   8.704  22.718  0.00  0.00    +0.000 F 
ENDBRANCH   5  28
TORSDOF 4
ENDMDL
MODEL 3
REMARK VINA RESULT:      -9.5      0.939      1.273
REMARK  Name = 
REMARK  5 active torsions:
REMARK  status: ('A' for Active; 'I' for Inactive)
REMARK    1  A    between atoms: C_1  and  N_2
REMARK    2  A    between atoms: C_6  and  C_7
REMARK    3  A    between atoms: C_11  and  C_12
REMARK    4  A    between atoms: N_18  and  C_19
REMARK    5  A    between atoms: C_23  and  C_24
REMARK                            x       y       z     vdW  Elec       q    Type
REMARK                         _______ _______ _______ _____ _____    ______ ____
ROOT
ATOM      1  C   UNL     1       0.258  11.711  19.421  0.00  0.00    +0.000 A 
ATOM      2  C   UNL     1       0.968  10.908  18.533  0.00  0.00    +0.000 A 
ATOM      3  C   UNL     1       1.343   9.655  18.972  0.00  0.00    +0.000 A 
ATOM      4  C   UNL     1       1.046   9.172  20.244  0.00  0.00    +0.000 A 
ATOM      5  C   UNL     1       0.373   9.973  21.162  0.00  0.00    +0.000 A 
ATOM      6  C   UNL     1      -0.020  11.256  20.727  0.00  0.00    +0.000 A 
ATOM      7  C   UNL     1       1.540   7.765  20.358  0.00  0.00    +0.000 C 
ATOM      8  N   UNL     1       2.176   7.518  19.069  0.00  0.00    +0.000 N 
ATOM      9  C   UNL     1       2.072   8.627  18.229  0.00  0.00    +0.000 C 
ATOM     10  O   UNL     1       2.466   8.818  17.092  0.00  0.00    +0.000 OA
ENDROOT
BRANCH   1  16
ATOM     11  C   UNL     1       2.711  14.153  19.487  0.00  0.00    +0.000 C 
ATOM     12  N   UNL     1       1.376  14.643  19.806  0.00  0.00    +0.000 N 
ATOM     13  C   UNL     1       1.060  16.026  19.543  0.00  0.00    +0.000 C 
ATOM     14  C   UNL     1      -0.176  15.581  18.767  0.00  0.00    +0.000 C 
ATOM     15  C   UNL     1       0.302  14.209  19.197  0.00  0.00    +0.000 C 
ATOM     16  C   UNL     1      -0.246  13.007  18.971  0.00  0.00    +0.000 C 
ENDBRANCH   1  16
BRANCH   8  17
ATOM     17  C   UNL     1       2.847   6.301  18.772  0.00  0.00    +0.000 A 
ATOM     18  C   UNL     1       2.191   5.071  18.823  0.00  0.00    +0.000 A 
ATOM     19  C   UNL     1       2.852   3.893  18.480  0.00  0.00    +0.000 A 
ATOM     20  C   UNL     1       4.188   3.930  18.086  0.00  0.00    +0.000 A 
ATOM     21  C   UNL     1       4.909   5.138  18.022  0.00  0.00    +0.000 A 
ATOM     22  C   UNL     1       4.199   6.306  18.389  0.00  0.00    +0.000 A 
BRANCH  21  23
ATOM     23  C   UNL     1       6.426   5.211  17.528  0.00  0.00    +0.000 C 
ATOM     24  F   UNL     1       7.142   4.293  18.235  0.00  0.00    +0.000 F 
ATOM     25  C   UNL     1       7.078   6.611  17.475  0.00  0.00    +0.000 C 
ATOM     26  O   UNL     1       7.537   6.400  16.118  0.00  0.00    +0.000 OA
ATOM     27  C   UNL     1       6.727   5.203  16.014  0.00  0.00    +0.000 C 
ENDBRANCH  21  23
ENDBRANCH   8  17
BRANCH   5  28
ATOM     28  C   UNL     1       0.055   9.528  22.563  0.00  0.00    +0.000 C 
ATOM     29  F   UNL     1      -0.772   8.445  22.612  0.00  0.00    +0.000 F 
ATOM     30  F   UNL     1       1.165   9.177  23.266  0.00  0.00    +0.000 F 
ATOM     31  F   UNL     1      -0.565  10.496  23.292  0.00  0.00    +0.000 F 
ENDBRANCH   5  28
TORSDOF 4
ENDMDL
MODEL 4
REMARK VINA RESULT:      -9.3      0.818      1.109
REMARK  Name = 
REMARK  5 active torsions:
REMARK  status: ('A' for Active; 'I' for Inactive)
REMARK    1  A    between atoms: C_1  and  N_2
REMARK    2  A    between atoms: C_6  and  C_7
REMARK    3  A    between atoms: C_11  and  C_12
REMARK    4  A    between atoms: N_18  and  C_19
REMARK    5  A    between atoms: C_23  and  C_24
REMARK                            x       y       z     vdW  Elec       q    Type
REMARK                         _______ _______ _______ _____ _____    ______ ____
ROOT
ATOM      1  C   UNL     1       0.286  11.603  19.378  0.00  0.00    +0.000 A 
ATOM      2  C   UNL     1       1.032  10.740  18.581  0.00  0.00    +0.000 A 
ATOM      3  C   UNL     1       1.372   9.515  19.118  0.00  0.00    +0.000 A 
ATOM      4  C   UNL     1       1.008   9.117  20.402  0.00  0.00    +0.000 A 
ATOM      5  C   UNL     1       0.298   9.981  21.231  0.00  0.00    +0.000 A 
ATOM      6  C   UNL     1      -0.060  11.235  20.696  0.00  0.00    +0.000 A 
ATOM      7  C   UNL     1       1.481   7.717  20.631  0.00  0.00    +0.000 C 
ATOM      8  N   UNL     1       2.179   7.383  19.394  0.00  0.00    +0.000 N 
ATOM      9  C   UNL     1       2.128   8.436  18.481  0.00  0.00    +0.000 C 
ATOM     10  O   UNL     1       2.579   8.550  17.355  0.00  0.00    +0.000 OA
ENDROOT
BRANCH   1  16
ATOM     11  C   UNL     1       2.595  14.146  19.815  0.00  0.00    +0.000 C 
ATOM     12  N   UNL     1       1.207  14.584  19.888  0.00  0.00    +0.000 N 
ATOM     13  C   UNL     1       0.888  15.948  19.545  0.00  0.00    +0.000 C 
ATOM     14  C   UNL     1      -0.176  15.441  18.578  0.00  0.00    +0.000 C 
ATOM     15  C   UNL     1       0.272  14.097  19.112  0.00  0.00    +0.000 C 
ATOM     16  C   UNL     1      -0.181  12.870  18.821  0.00  0.00    +0.000 C 
ENDBRANCH   1  16
BRANCH   8  17
ATOM     17  C   UNL     1       2.852   6.146  19.211  0.00  0.00    +0.000 A 
ATOM     18  C   UNL     1       2.543   5.022  19.979  0.00  0.00    +0.000 A 
ATOM     19  C   UNL     1       3.178   3.803  19.752  0.00  0.00    +0.000 A 
ATOM     20  C   UNL     1       4.142   3.693  18.751  0.00  0.00    +0.000 A 
ATOM     21  C   UNL     1       4.505   4.790  17.947  0.00  0.00    +0.000 A 
ATOM     22  C   UNL     1       3.840   6.009  18.221  0.00  0.00    +0.000 A 
BRANCH  21  23
ATOM     23  C   UNL     1       5.571   4.677  16.763  0.00  0.00    +0.000 C 
ATOM     24  F   UNL     1       5.344   3.505  16.105  0.00  0.00    +0.000 F 
ATOM     25  C   UNL     1       7.053   4.914  17.129  0.00  0.00    +0.000 C 
ATOM     26  O   UNL     1       7.221   5.862  16.048  0.00  0.00    +0.000 OA
ATOM     27  C   UNL     1       5.789   5.884  15.826  0.00  0.00    +0.000 C 
ENDBRANCH  21  23
ENDBRANCH   8  17
BRANCH   5  28
ATOM     28  C   UNL     1      -0.094   9.629  22.641  0.00  0.00    +0.000 C 
ATOM     29  F   UNL     1      -0.745  10.638  23.288  0.00  0.00    +0.000 F 
ATOM     30  F   UNL     1      -0.925   8.554  22.701  0.00  0.00    +0.000 F 
ATOM     31  F   UNL     1       0.978   9.324  23.421  0.00  0.00    +0.000 F 
ENDBRANCH   5  28
TORSDOF 4
ENDMDL
MODEL 5
REMARK VINA RESULT:      -9.3      3.068      8.451
REMARK  Name = 
REMARK  5 active torsions:
REMARK  status: ('A' for Active; 'I' for Inactive)
REMARK    1  A    between atoms: C_1  and  N_2
REMARK    2  A    between atoms: C_6  and  C_7
REMARK    3  A    between atoms: C_11  and  C_12
REMARK    4  A    between atoms: N_18  and  C_19
REMARK    5  A    between atoms: C_23  and  C_24
REMARK                            x       y       z     vdW  Elec       q    Type
REMARK                         _______ _______ _______ _____ _____    ______ ____
ROOT
ATOM      1  C   UNL     1       3.574   4.557  17.716  0.00  0.00    +0.000 A 
ATOM      2  C   UNL     1       3.227   5.905  17.735  0.00  0.00    +0.000 A 
ATOM      3  C   UNL     1       2.509   6.360  18.822  0.00  0.00    +0.000 A 
ATOM      4  C   UNL     1       2.124   5.540  19.880  0.00  0.00    +0.000 A 
ATOM      5  C   UNL     1       2.425   4.181  19.862  0.00  0.00    +0.000 A 
ATOM      6  C   UNL     1       3.161   3.701  18.759  0.00  0.00    +0.000 A 
ATOM      7  C   UNL     1       1.425   6.368  20.910  0.00  0.00    +0.000 C 
ATOM      8  N   UNL     1       1.408   7.703  20.324  0.00  0.00    +0.000 N 
ATOM      9  C   UNL     1       2.046   7.724  19.083  0.00  0.00    +0.000 C 
ATOM     10  O   UNL     1       2.240   8.627  18.290  0.00  0.00    +0.000 OA
ENDROOT
BRANCH   1  16
ATOM     11  C   UNL     1       6.882   5.512  18.088  0.00  0.00    +0.000 C 
ATOM     12  N   UNL     1       6.437   5.432  16.703  0.00  0.00    +0.000 N 
ATOM     13  C   UNL     1       7.412   5.163  15.673  0.00  0.00    +0.000 C 
ATOM     14  C   UNL     1       6.538   4.022  15.164  0.00  0.00    +0.000 C 
ATOM     15  C   UNL     1       5.625   4.499  16.275  0.00  0.00    +0.000 C 
ATOM     16  C   UNL     1       4.416   4.049  16.637  0.00  0.00    +0.000 C 
ENDBRANCH   1  16
BRANCH   8  17
ATOM     17  C   UNL     1       0.766   8.803  20.954  0.00  0.00    +0.000 A 
ATOM     18  C   UNL     1       0.766   8.955  22.342  0.00  0.00    +0.000 A 
ATOM     19  C   UNL     1       0.174  10.065  22.940  0.00  0.00    +0.000 A 
ATOM     20  C   UNL     1      -0.433  11.042  22.154  0.00  0.00    +0.000 A 
ATOM     21  C   UNL     1      -0.474  10.945  20.750  0.00  0.00    +0.000 A 
ATOM     22  C   UNL     1       0.131   9.795  20.188  0.00  0.00    +0.000 A 
BRANCH  21  23
ATOM     23  C   UNL     1      -1.122  12.075  19.826  0.00  0.00    +0.000 C 
ATOM     24  F   UNL     1      -1.500  13.108  20.629  0.00  0.00    +0.000 F 
ATOM     25  C   UNL     1      -2.214  11.624  18.829  0.00  0.00    +0.000 C 
ATOM     26  O   UNL     1      -1.556  12.295  17.728  0.00  0.00    +0.000 OA
ATOM     27  C   UNL     1      -0.382  12.519  18.546  0.00  0.00    +0.000 C 
ENDBRANCH  21  23
ENDBRANCH   8  17
BRANCH   5  28
ATOM     28  C   UNL     1       2.007   3.232  20.952  0.00  0.00    +0.000 C 
ATOM     29  F   UNL     1       0.654   3.126  21.087  0.00  0.00    +0.000 F 
ATOM     30  F   UNL     1       2.458   1.965  20.746  0.00  0.00    +0.000 F 
ATOM     31  F   UNL     1       2.470   3.605  22.176  0.00  0.00    +0.000 F 
ENDBRANCH   5  28
TORSDOF 4
ENDMDL
MODEL 6
REMARK VINA RESULT:      -9.3      3.000      8.388
REMARK  Name = 
REMARK  5 active torsions:
REMARK  status: ('A' for Active; 'I' for Inactive)
REMARK    1  A    between atoms: C_1  and  N_2
REMARK    2  A    between atoms: C_6  and  C_7
REMARK    3  A    between atoms: C_11  and  C_12
REMARK    4  A    between atoms: N_18  and  C_19
REMARK    5  A    between atoms: C_23  and  C_24
REMARK                            x       y       z     vdW  Elec       q    Type
REMARK                         _______ _______ _______ _____ _____    ______ ____
ROOT
ATOM      1  C   UNL     1       3.489   4.680  17.707  0.00  0.00    +0.000 A 
ATOM      2  C   UNL     1       3.149   6.030  17.709  0.00  0.00    +0.000 A 
ATOM      3  C   UNL     1       2.479   6.513  18.814  0.00  0.00    +0.000 A 
ATOM      4  C   UNL     1       2.134   5.719  19.905  0.00  0.00    +0.000 A 
ATOM      5  C   UNL     1       2.427   4.359  19.906  0.00  0.00    +0.000 A 
ATOM      6  C   UNL     1       3.116   3.850  18.785  0.00  0.00    +0.000 A 
ATOM      7  C   UNL     1       1.481   6.575  20.943  0.00  0.00    +0.000 C 
ATOM      8  N   UNL     1       1.446   7.897  20.327  0.00  0.00    +0.000 N 
ATOM      9  C   UNL     1       2.032   7.885  19.062  0.00  0.00    +0.000 C 
ATOM     10  O   UNL     1       2.198   8.769  18.240  0.00  0.00    +0.000 OA
ENDROOT
BRANCH   1  16
ATOM     11  C   UNL     1       6.879   5.209  18.171  0.00  0.00    +0.000 C 
ATOM     12  N   UNL     1       6.453   5.268  16.779  0.00  0.00    +0.000 N 
ATOM     13  C   UNL     1       7.407   4.949  15.745  0.00  0.00    +0.000 C 
ATOM     14  C   UNL     1       6.413   3.953  15.156  0.00  0.00    +0.000 C 
ATOM     15  C   UNL     1       5.544   4.466  16.286  0.00  0.00    +0.000 C 
ATOM     16  C   UNL     1       4.284   4.142  16.606  0.00  0.00    +0.000 C 
ENDBRANCH   1  16
BRANCH   8  17
ATOM     17  C   UNL     1       0.835   9.014  20.958  0.00  0.00    +0.000 A 
ATOM     18  C   UNL     1       0.288   8.925  22.239  0.00  0.00    +0.000 A 
ATOM     19  C   UNL     1      -0.262  10.043  22.862  0.00  0.00    +0.000 A 
ATOM     20  C   UNL     1      -0.277  11.272  22.205  0.00  0.00    +0.000 A 
ATOM     21  C   UNL     1       0.251  11.427  20.909  0.00  0.00    +0.000 A 
ATOM     22  C   UNL     1       0.790  10.262  20.313  0.00  0.00    +0.000 A 
BRANCH  21  23
ATOM     23  C   UNL     1       0.287  12.835  20.155  0.00  0.00    +0.000 C 
ATOM     24  F   UNL     1       0.900  13.734  20.976  0.00  0.00    +0.000 F 
ATOM     25  C   UNL     1      -1.042  13.341  19.551  0.00  0.00    +0.000 C 
ATOM     26  O   UNL     1      -0.419  13.598  18.270  0.00  0.00    +0.000 OA
ATOM     27  C   UNL     1       0.775  12.895  18.692  0.00  0.00    +0.000 C 
ENDBRANCH  21  23
ENDBRANCH   8  17
BRANCH   5  28
ATOM     28  C   UNL     1       2.050   3.438  21.034  0.00  0.00    +0.000 C 
ATOM     29  F   UNL     1       2.428   3.901  22.260  0.00  0.00    +0.000 F 
ATOM     30  F   UNL     1       0.708   3.230  21.115  0.00  0.00    +0.000 F 
ATOM     31  F   UNL     1       2.618   2.207  20.916  0.00  0.00    +0.000 F 
ENDBRANCH   5  28
TORSDOF 4
ENDMDL
MODEL 7
REMARK VINA RESULT:      -9.1      3.004      8.393
REMARK  Name = 
REMARK  5 active torsions:
REMARK  status: ('A' for Active; 'I' for Inactive)
REMARK    1  A    between atoms: C_1  and  N_2
REMARK    2  A    between atoms: C_6  and  C_7
REMARK    3  A    between atoms: C_11  and  C_12
REMARK    4  A    between atoms: N_18  and  C_19
REMARK    5  A    between atoms: C_23  and  C_24
REMARK                            x       y       z     vdW  Elec       q    Type
REMARK                         _______ _______ _______ _____ _____    ______ ____
ROOT
ATOM      1  C   UNL     1       3.606   4.558  17.724  0.00  0.00    +0.000 A 
ATOM      2  C   UNL     1       3.241   5.901  17.672  0.00  0.00    +0.000 A 
ATOM      3  C   UNL     1       2.548   6.411  18.751  0.00  0.00    +0.000 A 
ATOM      4  C   UNL     1       2.204   5.651  19.866  0.00  0.00    +0.000 A 
ATOM      5  C   UNL     1       2.522   4.297  19.920  0.00  0.00    +0.000 A 
ATOM      6  C   UNL     1       3.234   3.761  18.827  0.00  0.00    +0.000 A 
ATOM      7  C   UNL     1       1.523   6.532  20.864  0.00  0.00    +0.000 C 
ATOM      8  N   UNL     1       1.472   7.829  20.200  0.00  0.00    +0.000 N 
ATOM      9  C   UNL     1       2.074   7.782  18.943  0.00  0.00    +0.000 C 
ATOM     10  O   UNL     1       2.234   8.639  18.092  0.00  0.00    +0.000 OA
ENDROOT
BRANCH   1  16
ATOM     11  C   UNL     1       6.891   5.637  17.894  0.00  0.00    +0.000 C 
ATOM     12  N   UNL     1       6.399   5.440  16.537  0.00  0.00    +0.000 N 
ATOM     13  C   UNL     1       7.343   5.125  15.492  0.00  0.00    +0.000 C 
ATOM     14  C   UNL     1       6.490   3.922  15.104  0.00  0.00    +0.000 C 
ATOM     15  C   UNL     1       5.603   4.454  16.211  0.00  0.00    +0.000 C 
ATOM     16  C   UNL     1       4.424   3.996  16.652  0.00  0.00    +0.000 C 
ENDBRANCH   1  16
BRANCH   8  17
ATOM     17  C   UNL     1       0.833   8.957  20.783  0.00  0.00    +0.000 A 
ATOM     18  C   UNL     1       0.656   9.069  22.162  0.00  0.00    +0.000 A 
ATOM     19  C   UNL     1       0.073  10.204  22.720  0.00  0.00    +0.000 A 
ATOM     20  C   UNL     1      -0.349  11.248  21.899  0.00  0.00    +0.000 A 
ATOM     21  C   UNL     1      -0.207  11.195  20.499  0.00  0.00    +0.000 A 
ATOM     22  C   UNL     1       0.382  10.018  19.978  0.00  0.00    +0.000 A 
BRANCH  21  23
ATOM     23  C   UNL     1      -0.639  12.398  19.541  0.00  0.00    +0.000 C 
ATOM     24  F   UNL     1      -1.800  12.044  18.922  0.00  0.00    +0.000 F 
ATOM     25  C   UNL     1       0.439  12.953  18.584  0.00  0.00    +0.000 C 
ATOM     26  O   UNL     1       0.180  14.315  19.001  0.00  0.00    +0.000 OA
ATOM     27  C   UNL     1      -0.643  13.839  20.095  0.00  0.00    +0.000 C 
ENDBRANCH  21  23
ENDBRANCH   8  17
BRANCH   5  28
ATOM     28  C   UNL     1       2.148   3.411  21.077  0.00  0.00    +0.000 C 
ATOM     29  F   UNL     1       2.756   2.191  21.042  0.00  0.00    +0.000 F 
ATOM     30  F   UNL     1       2.475   3.953  22.280  0.00  0.00    +0.000 F 
ATOM     31  F   UNL     1       0.812   3.154  21.127  0.00  0.00    +0.000 F 
ENDBRANCH   5  28
TORSDOF 4
ENDMDL
MODEL 8
REMARK VINA RESULT:      -9.0      1.826      2.465
REMARK  Name = 
REMARK  5 active torsions:
REMARK  status: ('A' for Active; 'I' for Inactive)
REMARK    1  A    between atoms: C_1  and  N_2
REMARK    2  A    between atoms: C_6  and  C_7
REMARK    3  A    between atoms: C_11  and  C_12
REMARK    4  A    between atoms: N_18  and  C_19
REMARK    5  A    between atoms: C_23  and  C_24
REMARK                            x       y       z     vdW  Elec       q    Type
REMARK                         _______ _______ _______ _____ _____    ______ ____
ROOT
ATOM      1  C   UNL     1      -0.281  12.216  19.931  0.00  0.00    +0.000 A 
ATOM      2  C   UNL     1       0.474  11.614  18.928  0.00  0.00    +0.000 A 
ATOM      3  C   UNL     1       0.952  10.343  19.171  0.00  0.00    +0.000 A 
ATOM      4  C   UNL     1       0.716   9.652  20.357  0.00  0.00    +0.000 A 
ATOM      5  C   UNL     1      -0.001  10.251  21.389  0.00  0.00    +0.000 A 
ATOM      6  C   UNL     1      -0.500  11.549  21.154  0.00  0.00    +0.000 A 
ATOM      7  C   UNL     1       1.319   8.288  20.254  0.00  0.00    +0.000 C 
ATOM      8  N   UNL     1       1.950   8.288  18.939  0.00  0.00    +0.000 N 
ATOM      9  C   UNL     1       1.746   9.499  18.277  0.00  0.00    +0.000 C 
ATOM     10  O   UNL     1       2.105   9.889  17.180  0.00  0.00    +0.000 OA
ENDROOT
BRANCH   1  16
ATOM     11  C   UNL     1       2.051  14.775  20.000  0.00  0.00    +0.000 C 
ATOM     12  N   UNL     1       0.740  15.151  20.514  0.00  0.00    +0.000 N 
ATOM     13  C   UNL     1       0.333  16.533  20.441  0.00  0.00    +0.000 C 
ATOM     14  C   UNL     1      -0.961  16.101  19.760  0.00  0.00    +0.000 C 
ATOM     15  C   UNL     1      -0.376  14.722  19.980  0.00  0.00    +0.000 C 
ATOM     16  C   UNL     1      -0.891  13.520  19.684  0.00  0.00    +0.000 C 
ENDBRANCH   1  16
BRANCH   8  17
ATOM     17  C   UNL     1       2.708   7.187  18.459  0.00  0.00    +0.000 A 
ATOM     18  C   UNL     1       3.840   7.368  17.662  0.00  0.00    +0.000 A 
ATOM     19  C   UNL     1       4.601   6.279  17.242  0.00  0.00    +0.000 A 
ATOM     20  C   UNL     1       4.234   4.986  17.610  0.00  0.00    +0.000 A 
ATOM     21  C   UNL     1       3.099   4.735  18.405  0.00  0.00    +0.000 A 
ATOM     22  C   UNL     1       2.352   5.871  18.800  0.00  0.00    +0.000 A 
BRANCH  21  23
ATOM     23  C   UNL     1       2.685   3.267  18.879  0.00  0.00    +0.000 C 
ATOM     24  F   UNL     1       1.598   3.380  19.692  0.00  0.00    +0.000 F 
ATOM     25  C   UNL     1       3.808   2.373  19.453  0.00  0.00    +0.000 C 
ATOM     26  O   UNL     1       3.446   1.274  18.583  0.00  0.00    +0.000 OA
ATOM     27  C   UNL     1       2.563   2.142  17.829  0.00  0.00    +0.000 C 
ENDBRANCH  21  23
ENDBRANCH   8  17
BRANCH   5  28
ATOM     28  C   UNL     1      -0.260   9.577  22.708  0.00  0.00    +0.000 C 
ATOM     29  F   UNL     1       0.876   9.329  23.421  0.00  0.00    +0.000 F 
ATOM     30  F   UNL     1      -1.056  10.315  23.527  0.00  0.00    +0.000 F 
ATOM     31  F   UNL     1      -0.875   8.371  22.567  0.00  0.00    +0.000 F 
ENDBRANCH   5  28
TORSDOF 4
ENDMDL
MODEL 9
REMARK VINA RESULT:      -9.0      1.856      2.686
REMARK  Name = 
REMARK  5 active torsions:
REMARK  status: ('A' for Active; 'I' for Inactive)
REMARK    1  A    between atoms: C_1  and  N_2
REMARK    2  A    between atoms: C_6  and  C_7
REMARK    3  A    between atoms: C_11  and  C_12
REMARK    4  A    between atoms: N_18  and  C_19
REMARK    5  A    between atoms: C_23  and  C_24
REMARK                            x       y       z     vdW  Elec       q    Type
REMARK                         _______ _______ _______ _____ _____    ______ ____
ROOT
ATOM      1  C   UNL     1      -0.213  12.213  19.898  0.00  0.00    +0.000 A 
ATOM      2  C   UNL     1       0.525  11.607  18.885  0.00  0.00    +0.000 A 
ATOM      3  C   UNL     1       0.993  10.331  19.119  0.00  0.00    +0.000 A 
ATOM      4  C   UNL     1       0.762   9.638  20.305  0.00  0.00    +0.000 A 
ATOM      5  C   UNL     1       0.062  10.241  21.346  0.00  0.00    +0.000 A 
ATOM      6  C   UNL     1      -0.425  11.545  21.122  0.00  0.00    +0.000 A 
ATOM      7  C   UNL     1       1.350   8.268  20.192  0.00  0.00    +0.000 C 
ATOM      8  N   UNL     1       1.967   8.266  18.870  0.00  0.00    +0.000 N 
ATOM      9  C   UNL     1       1.769   9.481  18.214  0.00  0.00    +0.000 C 
ATOM     10  O   UNL     1       2.119   9.871  17.114  0.00  0.00    +0.000 OA
ENDROOT
BRANCH   1  16
ATOM     11  C   UNL     1       2.176  14.705  19.632  0.00  0.00    +0.000 C 
ATOM     12  N   UNL     1       0.934  15.137  20.259  0.00  0.00    +0.000 N 
ATOM     13  C   UNL     1       0.556  16.527  20.173  0.00  0.00    +0.000 C 
ATOM     14  C   UNL     1      -0.811  16.107  19.641  0.00  0.00    +0.000 C 
ATOM     15  C   UNL     1      -0.240  14.721  19.857  0.00  0.00    +0.000 C 
ATOM     16  C   UNL     1      -0.812  13.524  19.662  0.00  0.00    +0.000 C 
ENDBRANCH   1  16
BRANCH   8  17
ATOM     17  C   UNL     1       2.709   7.159  18.379  0.00  0.00    +0.000 A 
ATOM     18  C   UNL     1       3.954   7.323  17.769  0.00  0.00    +0.000 A 
ATOM     19  C   UNL     1       4.690   6.221  17.337  0.00  0.00    +0.000 A 
ATOM     20  C   UNL     1       4.185   4.933  17.506  0.00  0.00    +0.000 A 
ATOM     21  C   UNL     1       2.933   4.701  18.106  0.00  0.00    +0.000 A 
ATOM     22  C   UNL     1       2.217   5.850  18.519  0.00  0.00    +0.000 A 
BRANCH  21  23
ATOM     23  C   UNL     1       2.355   3.232  18.353  0.00  0.00    +0.000 C 
ATOM     24  F   UNL     1       2.296   2.597  17.149  0.00  0.00    +0.000 F 
ATOM     25  C   UNL     1       1.058   3.121  19.186  0.00  0.00    +0.000 C 
ATOM     26  O   UNL     1       1.640   2.117  20.051  0.00  0.00    +0.000 OA
ATOM     27  C   UNL     1       2.950   2.367  19.484  0.00  0.00    +0.000 C 
ENDBRANCH  21  23
ENDBRANCH   8  17
BRANCH   5  28
ATOM     28  C   UNL     1      -0.189   9.565  22.667  0.00  0.00    +0.000 C 
ATOM     29  F   UNL     1      -0.846   8.376  22.549  0.00  0.00    +0.000 F 
ATOM     30  F   UNL     1       0.960   9.288  23.341  0.00  0.00    +0.000 F 
ATOM     31  F   UNL     1      -0.948  10.322  23.505  0.00  0.00    +0.000 F 
ENDBRANCH   5  28
TORSDOF 4
ENDMDL
