MODEL 1
REMARK VINA RESULT:      -8.1      0.000      0.000
REMARK  Name = 
REMARK  6 active torsions:
REMARK  status: ('A' for Active; 'I' for Inactive)
REMARK    1  A    between atoms: C_1  and  C_2
REMARK    2  A    between atoms: C_5  and  N_6
REMARK    3  A    between atoms: C_7  and  C_9
REMARK    4  A    between atoms: C_16  and  C_17
REMARK    5  A    between atoms: N_18  and  C_19
REMARK    6  A    between atoms: C_21  and  C_22
REMARK                            x       y       z     vdW  Elec       q    Type
REMARK                         _______ _______ _______ _____ _____    ______ ____
ROOT
ATOM      1  N   UNL     1       2.114   7.759  18.912  0.00  0.00    +0.000 N 
ATOM      2  C   UNL     1       1.668   8.977  18.422  0.00  0.00    +0.000 C 
ATOM      3  O   UNL     1       1.941   9.471  17.335  0.00  0.00    +0.000 OA
ATOM      4  H   UNL     1       1.858   7.517  19.860  0.00  0.00    +0.000 HD
ENDROOT
BRANCH   2   5
ATOM      5  C   UNL     1       0.797   9.767  19.341  0.00  0.00    +0.000 A 
ATOM      6  C   UNL     1       0.812   9.440  20.706  0.00  0.00    +0.000 A 
ATOM      7  C   UNL     1       0.015  10.119  21.635  0.00  0.00    +0.000 A 
ATOM      8  C   UNL     1      -0.782  11.157  21.140  0.00  0.00    +0.000 A 
ATOM      9  C   UNL     1      -0.788  11.523  19.799  0.00  0.00    +0.000 A 
ATOM     10  C   UNL     1       0.007  10.829  18.877  0.00  0.00    +0.000 A 
ATOM     11  N   UNL     1      -1.623  12.586  19.585  0.00  0.00    +0.000 NA
ATOM     12  C   UNL     1      -2.129  12.893  20.763  0.00  0.00    +0.000 A 
ATOM     13  C   UNL     1      -3.053  14.025  21.018  0.00  0.00    +0.000 C 
ATOM     14  N   UNL     1      -1.675  12.023  21.728  0.00  0.00    +0.000 N 
ATOM     15  C   UNL     1      -2.050  11.987  23.124  0.00  0.00    +0.000 C 
ENDBRANCH   2   5
BRANCH   1  20
ATOM     16  C   UNL     1       5.321   3.854  16.168  0.00  0.00    +0.000 C 
ATOM     17  C   UNL     1       4.480   4.845  16.923  0.00  0.00    +0.000 A 
ATOM     18  C   UNL     1       4.793   6.207  16.812  0.00  0.00    +0.000 A 
ATOM     19  C   UNL     1       4.035   7.182  17.464  0.00  0.00    +0.000 A 
ATOM     20  C   UNL     1       2.940   6.827  18.244  0.00  0.00    +0.000 A 
ATOM     21  C   UNL     1       2.632   5.468  18.379  0.00  0.00    +0.000 A 
ATOM     22  C   UNL     1       3.392   4.462  17.734  0.00  0.00    +0.000 A 
BRANCH  22  23
ATOM     23  C   UNL     1       2.983   3.023  17.976  0.00  0.00    +0.000 C 
ATOM     24  F   UNL     1       2.501   2.359  16.891  0.00  0.00    +0.000 F 
ATOM     25  F   UNL     1       4.026   2.268  18.430  0.00  0.00    +0.000 F 
ATOM     26  F   UNL     1       2.015   2.918  18.930  0.00  0.00    +0.000 F 
ENDBRANCH  22  23
ENDBRANCH   1  20
TORSDOF 3
ENDMDL
MODEL 2
REMARK VINA RESULT:      -8.0      1.130      1.977
REMARK  Name = 
REMARK  6 active torsions:
REMARK  status: ('A' for Active; 'I' for Inactive)
REMARK    1  A    between atoms: C_1  and  C_2
REMARK    2  A    between atoms: C_5  and  N_6
REMARK    3  A    between atoms: C_7  and  C_9
REMARK    4  A    between atoms: C_16  and  C_17
REMARK    5  A    between atoms: N_18  and  C_19
REMARK    6  A    between atoms: C_21  and  C_22
REMARK                            x       y       z     vdW  Elec       q    Type
REMARK                         _______ _______ _______ _____ _____    ______ ____
ROOT
ATOM      1  N   UNL     1       2.038   8.105  18.645  0.00  0.00    +0.000 N 
ATOM      2  C   UNL     1       1.583   8.203  19.951  0.00  0.00    +0.000 C 
ATOM      3  O   UNL     1       1.774   7.397  20.854  0.00  0.00    +0.000 OA
ATOM      4  H   UNL     1       1.739   8.818  17.994  0.00  0.00    +0.000 HD
ENDROOT
BRANCH   2   5
ATOM      5  C   UNL     1       0.750   9.402  20.261  0.00  0.00    +0.000 A 
ATOM      6  C   UNL     1       0.128  10.066  19.191  0.00  0.00    +0.000 A 
ATOM      7  C   UNL     1      -0.659  11.206  19.389  0.00  0.00    +0.000 A 
ATOM      8  C   UNL     1      -0.813  11.642  20.710  0.00  0.00    +0.000 A 
ATOM      9  C   UNL     1      -0.237  10.982  21.789  0.00  0.00    +0.000 A 
ATOM     10  C   UNL     1       0.556   9.846  21.577  0.00  0.00    +0.000 A 
ATOM     11  N   UNL     1      -0.571  11.588  22.970  0.00  0.00    +0.000 NA
ATOM     12  C   UNL     1      -1.348  12.604  22.649  0.00  0.00    +0.000 A 
ATOM     13  C   UNL     1      -1.992  13.518  23.623  0.00  0.00    +0.000 C 
ATOM     14  N   UNL     1      -1.487  12.696  21.283  0.00  0.00    +0.000 N 
ATOM     15  C   UNL     1      -2.202  13.709  20.540  0.00  0.00    +0.000 C 
ENDBRANCH   2   5
BRANCH   1  20
ATOM     16  C   UNL     1       5.151   3.821  16.403  0.00  0.00    +0.000 C 
ATOM     17  C   UNL     1       4.329   4.914  17.028  0.00  0.00    +0.000 A 
ATOM     18  C   UNL     1       4.748   6.241  16.863  0.00  0.00    +0.000 A 
ATOM     19  C   UNL     1       4.016   7.306  17.393  0.00  0.00    +0.000 A 
ATOM     20  C   UNL     1       2.842   7.078  18.102  0.00  0.00    +0.000 A 
ATOM     21  C   UNL     1       2.426   5.754  18.291  0.00  0.00    +0.000 A 
ATOM     22  C   UNL     1       3.157   4.659  17.770  0.00  0.00    +0.000 A 
BRANCH  22  23
ATOM     23  C   UNL     1       2.627   3.270  18.063  0.00  0.00    +0.000 C 
ATOM     24  F   UNL     1       3.460   2.462  18.774  0.00  0.00    +0.000 F 
ATOM     25  F   UNL     1       1.463   3.309  18.773  0.00  0.00    +0.000 F 
ATOM     26  F   UNL     1       2.335   2.581  16.923  0.00  0.00    +0.000 F 
ENDBRANCH  22  23
ENDBRANCH   1  20
TORSDOF 3
ENDMDL
MODEL 3
REMARK VINA RESULT:      -8.0      0.865      1.517
REMARK  Name = 
REMARK  6 active torsions:
REMARK  status: ('A' for Active; 'I' for Inactive)
REMARK    1  A    between atoms: C_1  and  C_2
REMARK    2  A    between atoms: C_5  and  N_6
REMARK    3  A    between atoms: C_7  and  C_9
REMARK    4  A    between atoms: C_16  and  C_17
REMARK    5  A    between atoms: N_18  and  C_19
REMARK    6  A    between atoms: C_21  and  C_22
REMARK                            x       y       z     vdW  Elec       q    Type
REMARK                         _______ _______ _______ _____ _____    ______ ____
ROOT
ATOM      1  N   UNL     1       1.771   7.948  18.762  0.00  0.00    +0.000 N 
ATOM      2  C   UNL     1       1.563   9.210  18.227  0.00  0.00    +0.000 C 
ATOM      3  O   UNL     1       2.106   9.681  17.234  0.00  0.00    +0.000 OA
ATOM      4  H   UNL     1       1.301   7.727  19.628  0.00  0.00    +0.000 HD
ENDROOT
BRANCH   2   5
ATOM      5  C   UNL     1       0.605  10.081  18.969  0.00  0.00    +0.000 A 
ATOM      6  C   UNL     1      -0.658  10.304  18.398  0.00  0.00    +0.000 A 
ATOM      7  C   UNL     1      -1.613  11.119  19.019  0.00  0.00    +0.000 A 
ATOM      8  C   UNL     1      -1.255  11.683  20.247  0.00  0.00    +0.000 A 
ATOM      9  C   UNL     1      -0.024  11.449  20.850  0.00  0.00    +0.000 A 
ATOM     10  C   UNL     1       0.927  10.639  20.214  0.00  0.00    +0.000 A 
ATOM     11  N   UNL     1       0.060  12.086  22.058  0.00  0.00    +0.000 NA
ATOM     12  C   UNL     1      -1.093  12.704  22.222  0.00  0.00    +0.000 A 
ATOM     13  C   UNL     1      -1.470  13.485  23.426  0.00  0.00    +0.000 C 
ATOM     14  N   UNL     1      -1.905  12.518  21.127  0.00  0.00    +0.000 N 
ATOM     15  C   UNL     1      -3.214  13.086  20.899  0.00  0.00    +0.000 C 
ENDBRANCH   2   5
BRANCH   1  20
ATOM     16  C   UNL     1       5.064   3.738  16.639  0.00  0.00    +0.000 C 
ATOM     17  C   UNL     1       4.193   4.811  17.232  0.00  0.00    +0.000 A 
ATOM     18  C   UNL     1       4.604   6.145  17.112  0.00  0.00    +0.000 A 
ATOM     19  C   UNL     1       3.829   7.193  17.615  0.00  0.00    +0.000 A 
ATOM     20  C   UNL     1       2.619   6.939  18.250  0.00  0.00    +0.000 A 
ATOM     21  C   UNL     1       2.209   5.608  18.394  0.00  0.00    +0.000 A 
ATOM     22  C   UNL     1       2.983   4.530  17.899  0.00  0.00    +0.000 A 
BRANCH  22  23
ATOM     23  C   UNL     1       2.455   3.130  18.139  0.00  0.00    +0.000 C 
ATOM     24  F   UNL     1       2.372   2.338  17.036  0.00  0.00    +0.000 F 
ATOM     25  F   UNL     1       3.228   2.439  19.026  0.00  0.00    +0.000 F 
ATOM     26  F   UNL     1       1.202   3.139  18.677  0.00  0.00    +0.000 F 
ENDBRANCH  22  23
ENDBRANCH   1  20
TORSDOF 3
ENDMDL
MODEL 4
REMARK VINA RESULT:      -8.0      2.163      2.638
REMARK  Name = 
REMARK  6 active torsions:
REMARK  status: ('A' for Active; 'I' for Inactive)
REMARK    1  A    between atoms: C_1  and  C_2
REMARK    2  A    between atoms: C_5  and  N_6
REMARK    3  A    between atoms: C_7  and  C_9
REMARK    4  A    between atoms: C_16  and  C_17
REMARK    5  A    between atoms: N_18  and  C_19
REMARK    6  A    between atoms: C_21  and  C_22
REMARK                            x       y       z     vdW  Elec       q    Type
REMARK                         _______ _______ _______ _____ _____    ______ ____
ROOT
ATOM      1  N   UNL     1       2.400   7.245  18.864  0.00  0.00    +0.000 N 
ATOM      2  C   UNL     1       1.960   8.471  18.388  0.00  0.00    +0.000 C 
ATOM      3  O   UNL     1       2.222   8.969  17.300  0.00  0.00    +0.000 OA
ATOM      4  H   UNL     1       2.156   7.001  19.814  0.00  0.00    +0.000 HD
ENDROOT
BRANCH   2   5
ATOM      5  C   UNL     1       1.112   9.266  19.324  0.00  0.00    +0.000 A 
ATOM      6  C   UNL     1       1.101   8.894  20.679  0.00  0.00    +0.000 A 
ATOM      7  C   UNL     1       0.323   9.575  21.623  0.00  0.00    +0.000 A 
ATOM      8  C   UNL     1      -0.427  10.659  21.155  0.00  0.00    +0.000 A 
ATOM      9  C   UNL     1      -0.406  11.068  19.827  0.00  0.00    +0.000 A 
ATOM     10  C   UNL     1       0.370  10.373  18.889  0.00  0.00    +0.000 A 
ATOM     11  N   UNL     1      -1.196  12.170  19.640  0.00  0.00    +0.000 NA
ATOM     12  C   UNL     1      -1.701  12.458  20.824  0.00  0.00    +0.000 A 
ATOM     13  C   UNL     1      -2.582  13.617  21.108  0.00  0.00    +0.000 C 
ATOM     14  N   UNL     1      -1.291  11.541  21.763  0.00  0.00    +0.000 N 
ATOM     15  C   UNL     1      -1.680  11.475  23.154  0.00  0.00    +0.000 C 
ENDBRANCH   2   5
BRANCH   1  20
ATOM     16  C   UNL     1       5.826   3.492  16.173  0.00  0.00    +0.000 C 
ATOM     17  C   UNL     1       4.951   4.509  16.852  0.00  0.00    +0.000 A 
ATOM     18  C   UNL     1       3.610   4.180  17.095  0.00  0.00    +0.000 A 
ATOM     19  C   UNL     1       2.751   5.066  17.747  0.00  0.00    +0.000 A 
ATOM     20  C   UNL     1       3.204   6.308  18.178  0.00  0.00    +0.000 A 
ATOM     21  C   UNL     1       4.536   6.655  17.920  0.00  0.00    +0.000 A 
ATOM     22  C   UNL     1       5.423   5.775  17.253  0.00  0.00    +0.000 A 
BRANCH  22  23
ATOM     23  C   UNL     1       6.833   6.270  17.004  0.00  0.00    +0.000 C 
ATOM     24  F   UNL     1       7.330   6.025  15.761  0.00  0.00    +0.000 F 
ATOM     25  F   UNL     1       6.936   7.620  17.177  0.00  0.00    +0.000 F 
ATOM     26  F   UNL     1       7.731   5.722  17.871  0.00  0.00    +0.000 F 
ENDBRANCH  22  23
ENDBRANCH   1  20
TORSDOF 3
ENDMDL
MODEL 5
REMARK VINA RESULT:      -7.9      1.631      2.372
REMARK  Name = 
REMARK  6 active torsions:
REMARK  status: ('A' for Active; 'I' for Inactive)
REMARK    1  A    between atoms: C_1  and  C_2
REMARK    2  A    between atoms: C_5  and  N_6
REMARK    3  A    between atoms: C_7  and  C_9
REMARK    4  A    between atoms: C_16  and  C_17
REMARK    5  A    between atoms: N_18  and  C_19
REMARK    6  A    between atoms: C_21  and  C_22
REMARK                            x       y       z     vdW  Elec       q    Type
REMARK                         _______ _______ _______ _____ _____    ______ ____
ROOT
ATOM      1  N   UNL     1       2.142   7.917  19.313  0.00  0.00    +0.000 N 
ATOM      2  C   UNL     1       1.747   8.962  18.493  0.00  0.00    +0.000 C 
ATOM      3  O   UNL     1       1.728   8.962  17.268  0.00  0.00    +0.000 OA
ATOM      4  H   UNL     1       2.170   8.091  20.308  0.00  0.00    +0.000 HD
ENDROOT
BRANCH   2   5
ATOM      5  C   UNL     1       1.342  10.218  19.190  0.00  0.00    +0.000 A 
ATOM      6  C   UNL     1       1.653  11.442  18.575  0.00  0.00    +0.000 A 
ATOM      7  C   UNL     1       1.323  12.668  19.165  0.00  0.00    +0.000 A 
ATOM      8  C   UNL     1       0.648  12.614  20.389  0.00  0.00    +0.000 A 
ATOM      9  C   UNL     1       0.298  11.416  21.001  0.00  0.00    +0.000 A 
ATOM     10  C   UNL     1       0.642  10.195  20.404  0.00  0.00    +0.000 A 
ATOM     11  N   UNL     1      -0.384  11.641  22.166  0.00  0.00    +0.000 NA
ATOM     12  C   UNL     1      -0.472  12.951  22.287  0.00  0.00    +0.000 A 
ATOM     13  C   UNL     1      -1.181  13.653  23.385  0.00  0.00    +0.000 C 
ATOM     14  N   UNL     1       0.177  13.579  21.250  0.00  0.00    +0.000 N 
ATOM     15  C   UNL     1       0.361  15.001  21.062  0.00  0.00    +0.000 C 
ENDBRANCH   2   5
BRANCH   1  20
ATOM     16  C   UNL     1       3.674   2.629  17.651  0.00  0.00    +0.000 C 
ATOM     17  C   UNL     1       3.263   3.994  18.129  0.00  0.00    +0.000 A 
ATOM     18  C   UNL     1       4.007   5.102  17.702  0.00  0.00    +0.000 A 
ATOM     19  C   UNL     1       3.663   6.401  18.085  0.00  0.00    +0.000 A 
ATOM     20  C   UNL     1       2.564   6.631  18.905  0.00  0.00    +0.000 A 
ATOM     21  C   UNL     1       1.827   5.529  19.355  0.00  0.00    +0.000 A 
ATOM     22  C   UNL     1       2.163   4.203  18.986  0.00  0.00    +0.000 A 
BRANCH  22  23
ATOM     23  C   UNL     1       1.312   3.088  19.557  0.00  0.00    +0.000 C 
ATOM     24  F   UNL     1       1.995   2.088  20.178  0.00  0.00    +0.000 F 
ATOM     25  F   UNL     1       0.423   3.550  20.483  0.00  0.00    +0.000 F 
ATOM     26  F   UNL     1       0.557   2.477  18.601  0.00  0.00    +0.000 F 
ENDBRANCH  22  23
ENDBRANCH   1  20
TORSDOF 3
ENDMDL
MODEL 6
REMARK VINA RESULT:      -7.8      1.170      1.452
REMARK  Name = 
REMARK  6 active torsions:
REMARK  status: ('A' for Active; 'I' for Inactive)
REMARK    1  A    between atoms: C_1  and  C_2
REMARK    2  A    between atoms: C_5  and  N_6
REMARK    3  A    between atoms: C_7  and  C_9
REMARK    4  A    between atoms: C_16  and  C_17
REMARK    5  A    between atoms: N_18  and  C_19
REMARK    6  A    between atoms: C_21  and  C_22
REMARK                            x       y       z     vdW  Elec       q    Type
REMARK                         _______ _______ _______ _____ _____    ______ ____
ROOT
ATOM      1  N   UNL     1       2.145   7.852  18.991  0.00  0.00    +0.000 N 
ATOM      2  C   UNL     1       1.641   7.708  20.274  0.00  0.00    +0.000 C 
ATOM      3  O   UNL     1       1.774   6.735  21.006  0.00  0.00    +0.000 OA
ATOM      4  H   UNL     1       1.892   8.688  18.483  0.00  0.00    +0.000 HD
ENDROOT
BRANCH   2   5
ATOM      5  C   UNL     1       0.827   8.850  20.785  0.00  0.00    +0.000 A 
ATOM      6  C   UNL     1       0.593   8.924  22.168  0.00  0.00    +0.000 A 
ATOM      7  C   UNL     1      -0.172   9.954  22.731  0.00  0.00    +0.000 A 
ATOM      8  C   UNL     1      -0.674  10.918  21.850  0.00  0.00    +0.000 A 
ATOM      9  C   UNL     1      -0.426  10.885  20.482  0.00  0.00    +0.000 A 
ATOM     10  C   UNL     1       0.333   9.845  19.930  0.00  0.00    +0.000 A 
ATOM     11  N   UNL     1      -0.998  11.959  19.855  0.00  0.00    +0.000 NA
ATOM     12  C   UNL     1      -1.588  12.661  20.803  0.00  0.00    +0.000 A 
ATOM     13  C   UNL     1      -2.296  13.946  20.588  0.00  0.00    +0.000 C 
ATOM     14  N   UNL     1      -1.449  12.041  22.024  0.00  0.00    +0.000 N 
ATOM     15  C   UNL     1      -2.008  12.460  23.289  0.00  0.00    +0.000 C 
ENDBRANCH   2   5
BRANCH   1  20
ATOM     16  C   UNL     1       5.241   3.966  16.094  0.00  0.00    +0.000 C 
ATOM     17  C   UNL     1       4.429   4.952  16.889  0.00  0.00    +0.000 A 
ATOM     18  C   UNL     1       4.745   6.314  16.784  0.00  0.00    +0.000 A 
ATOM     19  C   UNL     1       4.013   7.284  17.472  0.00  0.00    +0.000 A 
ATOM     20  C   UNL     1       2.944   6.925  18.285  0.00  0.00    +0.000 A 
ATOM     21  C   UNL     1       2.635   5.565  18.414  0.00  0.00    +0.000 A 
ATOM     22  C   UNL     1       3.368   4.563  17.732  0.00  0.00    +0.000 A 
BRANCH  22  23
ATOM     23  C   UNL     1       2.962   3.123  17.971  0.00  0.00    +0.000 C 
ATOM     24  F   UNL     1       3.963   2.287  18.355  0.00  0.00    +0.000 F 
ATOM     25  F   UNL     1       2.008   3.019  18.941  0.00  0.00    +0.000 F 
ATOM     26  F   UNL     1       2.415   2.553  16.860  0.00  0.00    +0.000 F 
ENDBRANCH  22  23
ENDBRANCH   1  20
TORSDOF 3
ENDMDL
MODEL 7
REMARK VINA RESULT:      -7.7      1.730      2.602
REMARK  Name = 
REMARK  6 active torsions:
REMARK  status: ('A' for Active; 'I' for Inactive)
REMARK    1  A    between atoms: C_1  and  C_2
REMARK    2  A    between atoms: C_5  and  N_6
REMARK    3  A    between atoms: C_7  and  C_9
REMARK    4  A    between atoms: C_16  and  C_17
REMARK    5  A    between atoms: N_18  and  C_19
REMARK    6  A    between atoms: C_21  and  C_22
REMARK                            x       y       z     vdW  Elec       q    Type
REMARK                         _______ _______ _______ _____ _____    ______ ____
ROOT
ATOM      1  N   UNL     1       1.704   7.629  20.134  0.00  0.00    +0.000 N 
ATOM      2  C   UNL     1       1.534   8.676  19.241  0.00  0.00    +0.000 C 
ATOM      3  O   UNL     1       2.021   8.766  18.120  0.00  0.00    +0.000 OA
ATOM      4  H   UNL     1       1.294   7.730  21.052  0.00  0.00    +0.000 HD
ENDROOT
BRANCH   2   5
ATOM      5  C   UNL     1       0.699   9.814  19.725  0.00  0.00    +0.000 A 
ATOM      6  C   UNL     1      -0.158  10.439  18.804  0.00  0.00    +0.000 A 
ATOM      7  C   UNL     1      -0.966  11.523  19.168  0.00  0.00    +0.000 A 
ATOM      8  C   UNL     1      -0.894  11.939  20.502  0.00  0.00    +0.000 A 
ATOM      9  C   UNL     1      -0.081  11.315  21.440  0.00  0.00    +0.000 A 
ATOM     10  C   UNL     1       0.730  10.236  21.061  0.00  0.00    +0.000 A 
ATOM     11  N   UNL     1      -0.224  11.890  22.674  0.00  0.00    +0.000 NA
ATOM     12  C   UNL     1      -1.112  12.853  22.524  0.00  0.00    +0.000 A 
ATOM     13  C   UNL     1      -1.618  13.715  23.620  0.00  0.00    +0.000 C 
ATOM     14  N   UNL     1      -1.514  12.942  21.211  0.00  0.00    +0.000 N 
ATOM     15  C   UNL     1      -2.422  13.909  20.636  0.00  0.00    +0.000 C 
ENDBRANCH   2   5
BRANCH   1  20
ATOM     16  C   UNL     1       4.532   2.699  19.259  0.00  0.00    +0.000 C 
ATOM     17  C   UNL     1       3.784   3.974  19.533  0.00  0.00    +0.000 A 
ATOM     18  C   UNL     1       4.270   5.165  18.976  0.00  0.00    +0.000 A 
ATOM     19  C   UNL     1       3.608   6.380  19.167  0.00  0.00    +0.000 A 
ATOM     20  C   UNL     1       2.440   6.442  19.918  0.00  0.00    +0.000 A 
ATOM     21  C   UNL     1       1.958   5.261  20.497  0.00  0.00    +0.000 A 
ATOM     22  C   UNL     1       2.618   4.020  20.324  0.00  0.00    +0.000 A 
BRANCH  22  23
ATOM     23  C   UNL     1       2.021   2.815  21.021  0.00  0.00    +0.000 C 
ATOM     24  F   UNL     1       2.832   2.196  21.921  0.00  0.00    +0.000 F 
ATOM     25  F   UNL     1       0.889   3.136  21.713  0.00  0.00    +0.000 F 
ATOM     26  F   UNL     1       1.646   1.845  20.140  0.00  0.00    +0.000 F 
ENDBRANCH  22  23
ENDBRANCH   1  20
TORSDOF 3
ENDMDL
MODEL 8
REMARK VINA RESULT:      -7.7      1.690      2.439
REMARK  Name = 
REMARK  6 active torsions:
REMARK  status: ('A' for Active; 'I' for Inactive)
REMARK    1  A    between atoms: C_1  and  C_2
REMARK    2  A    between atoms: C_5  and  N_6
REMARK    3  A    between atoms: C_7  and  C_9
REMARK    4  A    between atoms: C_16  and  C_17
REMARK    5  A    between atoms: N_18  and  C_19
REMARK    6  A    between atoms: C_21  and  C_22
REMARK                            x       y       z     vdW  Elec       q    Type
REMARK                         _______ _______ _______ _____ _____    ______ ____
ROOT
ATOM      1  N   UNL     1       1.964   7.791  19.811  0.00  0.00    +0.000 N 
ATOM      2  C   UNL     1       1.646   8.788  18.901  0.00  0.00    +0.000 C 
ATOM      3  O   UNL     1       1.839   8.761  17.691  0.00  0.00    +0.000 OA
ATOM      4  H   UNL     1       1.807   7.988  20.790  0.00  0.00    +0.000 HD
ENDROOT
BRANCH   2   5
ATOM      5  C   UNL     1       1.040  10.024  19.476  0.00  0.00    +0.000 A 
ATOM      6  C   UNL     1       0.815  11.109  18.613  0.00  0.00    +0.000 A 
ATOM      7  C   UNL     1       0.264  12.312  19.071  0.00  0.00    +0.000 A 
ATOM      8  C   UNL     1      -0.072  12.373  20.428  0.00  0.00    +0.000 A 
ATOM      9  C   UNL     1       0.107  11.301  21.294  0.00  0.00    +0.000 A 
ATOM     10  C   UNL     1       0.668  10.105  20.826  0.00  0.00    +0.000 A 
ATOM     11  N   UNL     1      -0.335  11.607  22.553  0.00  0.00    +0.000 NA
ATOM     12  C   UNL     1      -0.791  12.843  22.485  0.00  0.00    +0.000 A 
ATOM     13  C   UNL     1      -1.420  13.575  23.612  0.00  0.00    +0.000 C 
ATOM     14  N   UNL     1      -0.614  13.358  21.222  0.00  0.00    +0.000 N 
ATOM     15  C   UNL     1      -0.922  14.696  20.769  0.00  0.00    +0.000 C 
ENDBRANCH   2   5
BRANCH   1  20
ATOM     16  C   UNL     1       4.130   2.586  18.676  0.00  0.00    +0.000 C 
ATOM     17  C   UNL     1       3.561   3.935  19.019  0.00  0.00    +0.000 A 
ATOM     18  C   UNL     1       4.054   5.059  18.341  0.00  0.00    +0.000 A 
ATOM     19  C   UNL     1       3.551   6.337  18.591  0.00  0.00    +0.000 A 
ATOM     20  C   UNL     1       2.538   6.532  19.524  0.00  0.00    +0.000 A 
ATOM     21  C   UNL     1       2.054   5.419  20.222  0.00  0.00    +0.000 A 
ATOM     22  C   UNL     1       2.556   4.115  19.991  0.00  0.00    +0.000 A 
BRANCH  22  23
ATOM     23  C   UNL     1       1.977   2.992  20.827  0.00  0.00    +0.000 C 
ATOM     24  F   UNL     1       1.557   1.900  20.133  0.00  0.00    +0.000 F 
ATOM     25  F   UNL     1       2.878   2.519  21.737  0.00  0.00    +0.000 F 
ATOM     26  F   UNL     1       0.900   3.398  21.558  0.00  0.00    +0.000 F 
ENDBRANCH  22  23
ENDBRANCH   1  20
TORSDOF 3
ENDMDL
MODEL 9
REMARK VINA RESULT:      -7.7      3.879      8.873
REMARK  Name = 
REMARK  6 active torsions:
REMARK  status: ('A' for Active; 'I' for Inactive)
REMARK    1  A    between atoms: C_1  and  C_2
REMARK    2  A    between atoms: C_5  and  N_6
REMARK    3  A    between atoms: C_7  and  C_9
REMARK    4  A    between atoms: C_16  and  C_17
REMARK    5  A    between atoms: N_18  and  C_19
REMARK    6  A    between atoms: C_21  and  C_22
REMARK                            x       y       z     vdW  Elec       q    Type
REMARK                         _______ _______ _______ _____ _____    ______ ____
ROOT
ATOM      1  N   UNL     1       0.696   9.054  18.979  0.00  0.00    +0.000 N 
ATOM      2  C   UNL     1       1.838   9.140  18.199  0.00  0.00    +0.000 C 
ATOM      3  O   UNL     1       2.302  10.155  17.692  0.00  0.00    +0.000 OA
ATOM      4  H   UNL     1       0.399   8.132  19.269  0.00  0.00    +0.000 HD
ENDROOT
BRANCH   2   5
ATOM      5  C   UNL     1       2.541   7.852  17.930  0.00  0.00    +0.000 A 
ATOM      6  C   UNL     1       3.793   7.905  17.297  0.00  0.00    +0.000 A 
ATOM      7  C   UNL     1       4.515   6.744  16.994  0.00  0.00    +0.000 A 
ATOM      8  C   UNL     1       3.938   5.528  17.374  0.00  0.00    +0.000 A 
ATOM      9  C   UNL     1       2.716   5.451  18.033  0.00  0.00    +0.000 A 
ATOM     10  C   UNL     1       1.999   6.620  18.323  0.00  0.00    +0.000 A 
ATOM     11  N   UNL     1       2.396   4.152  18.323  0.00  0.00    +0.000 NA
ATOM     12  C   UNL     1       3.394   3.422  17.864  0.00  0.00    +0.000 A 
ATOM     13  C   UNL     1       3.499   1.949  18.004  0.00  0.00    +0.000 C 
ATOM     14  N   UNL     1       4.332   4.216  17.245  0.00  0.00    +0.000 N 
ATOM     15  C   UNL     1       5.531   3.786  16.561  0.00  0.00    +0.000 C 
ENDBRANCH   2   5
BRANCH   1  20
ATOM     16  C   UNL     1      -2.594  13.423  20.758  0.00  0.00    +0.000 C 
ATOM     17  C   UNL     1      -1.751  12.254  20.329  0.00  0.00    +0.000 A 
ATOM     18  C   UNL     1      -1.607  12.003  18.958  0.00  0.00    +0.000 A 
ATOM     19  C   UNL     1      -0.815  10.952  18.491  0.00  0.00    +0.000 A 
ATOM     20  C   UNL     1      -0.141  10.121  19.379  0.00  0.00    +0.000 A 
ATOM     21  C   UNL     1      -0.296  10.350  20.752  0.00  0.00    +0.000 A 
ATOM     22  C   UNL     1      -1.101  11.404  21.248  0.00  0.00    +0.000 A 
BRANCH  22  23
ATOM     23  C   UNL     1      -1.219  11.537  22.752  0.00  0.00    +0.000 C 
ATOM     24  F   UNL     1      -2.483  11.472  23.250  0.00  0.00    +0.000 F 
ATOM     25  F   UNL     1      -0.519  10.564  23.405  0.00  0.00    +0.000 F 
ATOM     26  F   UNL     1      -0.708  12.718  23.205  0.00  0.00    +0.000 F 
ENDBRANCH  22  23
ENDBRANCH   1  20
TORSDOF 3
ENDMDL
