MODEL 1
REMARK VINA RESULT:      -8.7      0.000      0.000
REMARK  Name = 
REMARK  7 active torsions:
REMARK  status: ('A' for Active; 'I' for Inactive)
REMARK    1  A    between atoms: C_1  and  C_2
REMARK    2  A    between atoms: C_5  and  C_6
REMARK    3  A    between atoms: C_9  and  C_10
REMARK    4  A    between atoms: C_10  and  N_11
REMARK    5  A    between atoms: N_11  and  C_12
REMARK    6  A    between atoms: N_11  and  C_13
REMARK    7  A    between atoms: C_13  and  C_14
REMARK                            x       y       z     vdW  Elec       q    Type
REMARK                         _______ _______ _______ _____ _____    ______ ____
ROOT
ATOM      1  N   UNL     1       5.704   5.347  16.502  0.00  0.00    +0.000 NA
ATOM      2  C   UNL     1       5.188   6.127  15.378  0.00  0.00    +0.000 C 
ENDROOT
BRANCH   1   3
ATOM      3  C   UNL     1       7.171   5.535  16.660  0.00  0.00    +0.000 C 
BRANCH   3   7
ATOM      4  C   UNL     1       8.285   8.552  18.218  0.00  0.00    +0.000 A 
ATOM      5  N   UNL     1       8.556   7.683  19.207  0.00  0.00    +0.000 NA
ATOM      6  O   UNL     1       8.125   6.460  18.700  0.00  0.00    +0.000 OA
ATOM      7  C   UNL     1       7.622   6.711  17.458  0.00  0.00    +0.000 A 
ATOM      8  N   UNL     1       7.670   7.979  17.127  0.00  0.00    +0.000 NA
BRANCH   4  13
ATOM      9  C   UNL     1       9.704  14.144  18.418  0.00  0.00    +0.000 C 
ATOM     10  C   UNL     1       9.354  12.689  18.367  0.00  0.00    +0.000 A 
ATOM     11  C   UNL     1      10.075  11.743  19.102  0.00  0.00    +0.000 A 
ATOM     12  C   UNL     1       9.728  10.390  19.035  0.00  0.00    +0.000 A 
ATOM     13  C   UNL     1       8.658   9.959  18.235  0.00  0.00    +0.000 A 
ATOM     14  C   UNL     1       7.939  10.908  17.499  0.00  0.00    +0.000 A 
ATOM     15  C   UNL     1       8.288  12.253  17.575  0.00  0.00    +0.000 A 
ATOM     16  F   UNL     1       7.573  13.146  16.875  0.00  0.00    +0.000 F 
ENDBRANCH   4  13
ENDBRANCH   3   7
ENDBRANCH   1   3
BRANCH   1  17
ATOM     17  C   UNL     1       5.323   3.921  16.372  0.00  0.00    +0.000 C 
BRANCH  17  18
ATOM     18  C   UNL     1       4.184   3.619  17.338  0.00  0.00    +0.000 A 
ATOM     19  N   UNL     1       4.421   3.184  18.531  0.00  0.00    +0.000 NA
ATOM     20  C   UNL     1       3.332   3.057  19.408  0.00  0.00    +0.000 A 
ATOM     21  C   UNL     1       3.577   2.653  20.723  0.00  0.00    +0.000 A 
ATOM     22  C   UNL     1       2.534   2.584  21.649  0.00  0.00    +0.000 A 
ATOM     23  C   UNL     1       1.233   2.917  21.268  0.00  0.00    +0.000 A 
ATOM     24  C   UNL     1       0.971   3.313  19.957  0.00  0.00    +0.000 A 
ATOM     25  C   UNL     1       2.023   3.378  19.038  0.00  0.00    +0.000 A 
ATOM     26  C   UNL     1       1.802   3.834  17.654  0.00  0.00    +0.000 A 
ATOM     27  O   UNL     1       0.699   4.167  17.242  0.00  0.00    +0.000 OA
ATOM     28  N   UNL     1       2.924   3.898  16.870  0.00  0.00    +0.000 N 
ATOM     29  H   UNL     1       2.816   4.300  15.949  0.00  0.00    +0.000 HD
ENDBRANCH  17  18
ENDBRANCH   1  17
TORSDOF 5
ENDMDL
MODEL 2
REMARK VINA RESULT:      -8.4      4.792      7.318
REMARK  Name = 
REMARK  7 active torsions:
REMARK  status: ('A' for Active; 'I' for Inactive)
REMARK    1  A    between atoms: C_1  and  C_2
REMARK    2  A    between atoms: C_5  and  C_6
REMARK    3  A    between atoms: C_9  and  C_10
REMARK    4  A    between atoms: C_10  and  N_11
REMARK    5  A    between atoms: N_11  and  C_12
REMARK    6  A    between atoms: N_11  and  C_13
REMARK    7  A    between atoms: C_13  and  C_14
REMARK                            x       y       z     vdW  Elec       q    Type
REMARK                         _______ _______ _______ _____ _____    ______ ____
ROOT
ATOM      1  N   UNL     1       2.616   3.383  20.641  0.00  0.00    +0.000 NA
ATOM      2  C   UNL     1       1.936   2.693  21.736  0.00  0.00    +0.000 C 
ENDROOT
BRANCH   1   3
ATOM      3  C   UNL     1       1.657   4.170  19.821  0.00  0.00    +0.000 C 
BRANCH   3   7
ATOM      4  C   UNL     1       1.463   7.709  20.279  0.00  0.00    +0.000 A 
ATOM      5  N   UNL     1       2.375   7.665  19.292  0.00  0.00    +0.000 NA
ATOM      6  O   UNL     1       2.543   6.304  19.055  0.00  0.00    +0.000 OA
ATOM      7  C   UNL     1       1.726   5.655  19.933  0.00  0.00    +0.000 A 
ATOM      8  N   UNL     1       1.066   6.467  20.724  0.00  0.00    +0.000 NA
BRANCH   4  13
ATOM      9  C   UNL     1      -0.730  12.610  22.395  0.00  0.00    +0.000 C 
ATOM     10  C   UNL     1      -0.166  11.345  21.829  0.00  0.00    +0.000 A 
ATOM     11  C   UNL     1       0.502  11.333  20.601  0.00  0.00    +0.000 A 
ATOM     12  C   UNL     1       1.018  10.137  20.094  0.00  0.00    +0.000 A 
ATOM     13  C   UNL     1       0.876   8.933  20.803  0.00  0.00    +0.000 A 
ATOM     14  C   UNL     1       0.206   8.947  22.032  0.00  0.00    +0.000 A 
ATOM     15  C   UNL     1      -0.300  10.143  22.531  0.00  0.00    +0.000 A 
ATOM     16  F   UNL     1      -0.923  10.135  23.719  0.00  0.00    +0.000 F 
ENDBRANCH   4  13
ENDBRANCH   3   7
ENDBRANCH   1   3
BRANCH   1  17
ATOM     17  C   UNL     1       3.410   2.431  19.831  0.00  0.00    +0.000 C 
BRANCH  17  18
ATOM     18  C   UNL     1       4.425   3.207  19.000  0.00  0.00    +0.000 A 
ATOM     19  N   UNL     1       4.346   3.237  17.711  0.00  0.00    +0.000 NA
ATOM     20  C   UNL     1       5.230   4.081  17.022  0.00  0.00    +0.000 A 
ATOM     21  C   UNL     1       5.116   4.178  15.632  0.00  0.00    +0.000 A 
ATOM     22  C   UNL     1       5.926   5.059  14.914  0.00  0.00    +0.000 A 
ATOM     23  C   UNL     1       6.863   5.853  15.579  0.00  0.00    +0.000 A 
ATOM     24  C   UNL     1       6.995   5.761  16.963  0.00  0.00    +0.000 A 
ATOM     25  C   UNL     1       6.179   4.874  17.673  0.00  0.00    +0.000 A 
ATOM     26  C   UNL     1       6.253   4.775  19.141  0.00  0.00    +0.000 A 
ATOM     27  O   UNL     1       7.029   5.450  19.805  0.00  0.00    +0.000 OA
ATOM     28  N   UNL     1       5.365   3.904  19.717  0.00  0.00    +0.000 N 
ATOM     29  H   UNL     1       5.328   3.891  20.727  0.00  0.00    +0.000 HD
ENDBRANCH  17  18
ENDBRANCH   1  17
TORSDOF 5
ENDMDL
MODEL 3
REMARK VINA RESULT:      -8.4      4.646      7.219
REMARK  Name = 
REMARK  7 active torsions:
REMARK  status: ('A' for Active; 'I' for Inactive)
REMARK    1  A    between atoms: C_1  and  C_2
REMARK    2  A    between atoms: C_5  and  C_6
REMARK    3  A    between atoms: C_9  and  C_10
REMARK    4  A    between atoms: C_10  and  N_11
REMARK    5  A    between atoms: N_11  and  C_12
REMARK    6  A    between atoms: N_11  and  C_13
REMARK    7  A    between atoms: C_13  and  C_14
REMARK                            x       y       z     vdW  Elec       q    Type
REMARK                         _______ _______ _______ _____ _____    ______ ____
ROOT
ATOM      1  N   UNL     1       2.631   3.384  20.553  0.00  0.00    +0.000 NA
ATOM      2  C   UNL     1       2.591   2.470  21.694  0.00  0.00    +0.000 C 
ENDROOT
BRANCH   1   3
ATOM      3  C   UNL     1       1.388   4.195  20.468  0.00  0.00    +0.000 C 
BRANCH   3   7
ATOM      4  C   UNL     1       1.386   7.762  20.685  0.00  0.00    +0.000 A 
ATOM      5  N   UNL     1       2.348   7.600  19.760  0.00  0.00    +0.000 NA
ATOM      6  O   UNL     1       2.446   6.218  19.622  0.00  0.00    +0.000 OA
ATOM      7  C   UNL     1       1.542   5.678  20.489  0.00  0.00    +0.000 A 
ATOM      8  N   UNL     1       0.889   6.579  21.183  0.00  0.00    +0.000 NA
BRANCH   4  13
ATOM      9  C   UNL     1      -0.887  12.823  22.276  0.00  0.00    +0.000 C 
ATOM     10  C   UNL     1      -0.293  11.507  21.881  0.00  0.00    +0.000 A 
ATOM     11  C   UNL     1      -0.370  10.394  22.724  0.00  0.00    +0.000 A 
ATOM     12  C   UNL     1       0.196   9.177  22.331  0.00  0.00    +0.000 A 
ATOM     13  C   UNL     1       0.847   9.051  21.093  0.00  0.00    +0.000 A 
ATOM     14  C   UNL     1       0.924  10.168  20.253  0.00  0.00    +0.000 A 
ATOM     15  C   UNL     1       0.354  11.373  20.649  0.00  0.00    +0.000 A 
ATOM     16  F   UNL     1       0.424  12.424  19.820  0.00  0.00    +0.000 F 
ENDBRANCH   4  13
ENDBRANCH   3   7
ENDBRANCH   1   3
BRANCH   1  17
ATOM     17  C   UNL     1       2.919   2.649  19.300  0.00  0.00    +0.000 C 
BRANCH  17  18
ATOM     18  C   UNL     1       4.101   3.305  18.597  0.00  0.00    +0.000 A 
ATOM     19  N   UNL     1       4.209   3.278  17.310  0.00  0.00    +0.000 NA
ATOM     20  C   UNL     1       5.248   4.018  16.725  0.00  0.00    +0.000 A 
ATOM     21  C   UNL     1       5.341   4.056  15.332  0.00  0.00    +0.000 A 
ATOM     22  C   UNL     1       6.314   4.838  14.706  0.00  0.00    +0.000 A 
ATOM     23  C   UNL     1       7.209   5.589  15.470  0.00  0.00    +0.000 A 
ATOM     24  C   UNL     1       7.135   5.555  16.862  0.00  0.00    +0.000 A 
ATOM     25  C   UNL     1       6.157   4.768  17.478  0.00  0.00    +0.000 A 
ATOM     26  C   UNL     1       6.013   4.735  18.944  0.00  0.00    +0.000 A 
ATOM     27  O   UNL     1       6.739   5.381  19.688  0.00  0.00    +0.000 OA
ATOM     28  N   UNL     1       4.985   3.963  19.417  0.00  0.00    +0.000 N 
ATOM     29  H   UNL     1       4.804   4.001  20.410  0.00  0.00    +0.000 HD
ENDBRANCH  17  18
ENDBRANCH   1  17
TORSDOF 5
ENDMDL
MODEL 4
REMARK VINA RESULT:      -8.3      4.492      6.791
REMARK  Name = 
REMARK  7 active torsions:
REMARK  status: ('A' for Active; 'I' for Inactive)
REMARK    1  A    between atoms: C_1  and  C_2
REMARK    2  A    between atoms: C_5  and  C_6
REMARK    3  A    between atoms: C_9  and  C_10
REMARK    4  A    between atoms: C_10  and  N_11
REMARK    5  A    between atoms: N_11  and  C_12
REMARK    6  A    between atoms: N_11  and  C_13
REMARK    7  A    between atoms: C_13  and  C_14
REMARK                            x       y       z     vdW  Elec       q    Type
REMARK                         _______ _______ _______ _____ _____    ______ ____
ROOT
ATOM      1  N   UNL     1       2.399   3.575  20.165  0.00  0.00    +0.000 NA
ATOM      2  C   UNL     1       1.453   2.599  20.704  0.00  0.00    +0.000 C 
ENDROOT
BRANCH   1   3
ATOM      3  C   UNL     1       3.727   2.956  19.912  0.00  0.00    +0.000 C 
BRANCH   3   7
ATOM      4  C   UNL     1       5.620   4.201  17.149  0.00  0.00    +0.000 A 
ATOM      5  N   UNL     1       6.356   4.696  18.159  0.00  0.00    +0.000 NA
ATOM      6  O   UNL     1       5.675   4.281  19.300  0.00  0.00    +0.000 OA
ATOM      7  C   UNL     1       4.583   3.587  18.868  0.00  0.00    +0.000 A 
ATOM      8  N   UNL     1       4.487   3.534  17.561  0.00  0.00    +0.000 NA
BRANCH   4  13
ATOM      9  C   UNL     1       7.144   4.386  11.585  0.00  0.00    +0.000 C 
ATOM     10  C   UNL     1       6.731   4.338  13.023  0.00  0.00    +0.000 A 
ATOM     11  C   UNL     1       5.607   3.613  13.431  0.00  0.00    +0.000 A 
ATOM     12  C   UNL     1       5.242   3.587  14.780  0.00  0.00    +0.000 A 
ATOM     13  C   UNL     1       5.991   4.282  15.744  0.00  0.00    +0.000 A 
ATOM     14  C   UNL     1       7.114   5.008  15.332  0.00  0.00    +0.000 A 
ATOM     15  C   UNL     1       7.473   5.025  13.987  0.00  0.00    +0.000 A 
ATOM     16  F   UNL     1       8.564   5.712  13.619  0.00  0.00    +0.000 F 
ENDBRANCH   4  13
ENDBRANCH   3   7
ENDBRANCH   1   3
BRANCH   1  17
ATOM     17  C   UNL     1       2.483   4.766  21.042  0.00  0.00    +0.000 C 
BRANCH  17  18
ATOM     18  C   UNL     1       2.249   6.019  20.206  0.00  0.00    +0.000 A 
ATOM     19  N   UNL     1       1.522   6.989  20.650  0.00  0.00    +0.000 NA
ATOM     20  C   UNL     1       1.462   8.164  19.885  0.00  0.00    +0.000 A 
ATOM     21  C   UNL     1       0.735   9.249  20.381  0.00  0.00    +0.000 A 
ATOM     22  C   UNL     1       0.708  10.462  19.690  0.00  0.00    +0.000 A 
ATOM     23  C   UNL     1       1.409  10.601  18.490  0.00  0.00    +0.000 A 
ATOM     24  C   UNL     1       2.132   9.525  17.977  0.00  0.00    +0.000 A 
ATOM     25  C   UNL     1       2.151   8.315  18.678  0.00  0.00    +0.000 A 
ATOM     26  C   UNL     1       2.937   7.165  18.197  0.00  0.00    +0.000 A 
ATOM     27  O   UNL     1       3.598   7.208  17.168  0.00  0.00    +0.000 OA
ATOM     28  N   UNL     1       2.909   6.056  19.002  0.00  0.00    +0.000 N 
ATOM     29  H   UNL     1       3.516   5.291  18.746  0.00  0.00    +0.000 HD
ENDBRANCH  17  18
ENDBRANCH   1  17
TORSDOF 5
ENDMDL
MODEL 5
REMARK VINA RESULT:      -8.2      4.345      5.578
REMARK  Name = 
REMARK  7 active torsions:
REMARK  status: ('A' for Active; 'I' for Inactive)
REMARK    1  A    between atoms: C_1  and  C_2
REMARK    2  A    between atoms: C_5  and  C_6
REMARK    3  A    between atoms: C_9  and  C_10
REMARK    4  A    between atoms: C_10  and  N_11
REMARK    5  A    between atoms: N_11  and  C_12
REMARK    6  A    between atoms: N_11  and  C_13
REMARK    7  A    between atoms: C_13  and  C_14
REMARK                            x       y       z     vdW  Elec       q    Type
REMARK                         _______ _______ _______ _____ _____    ______ ____
ROOT
ATOM      1  N   UNL     1       5.029   5.600  16.155  0.00  0.00    +0.000 NA
ATOM      2  C   UNL     1       5.811   5.809  14.937  0.00  0.00    +0.000 C 
ENDROOT
BRANCH   1   3
ATOM      3  C   UNL     1       5.130   6.769  17.068  0.00  0.00    +0.000 C 
BRANCH   3   7
ATOM      4  C   UNL     1       2.190   8.107  18.596  0.00  0.00    +0.000 A 
ATOM      5  N   UNL     1       2.455   7.114  19.464  0.00  0.00    +0.000 NA
ATOM      6  O   UNL     1       3.588   6.504  18.933  0.00  0.00    +0.000 OA
ATOM      7  C   UNL     1       3.890   7.179  17.787  0.00  0.00    +0.000 A 
ATOM      8  N   UNL     1       3.049   8.149  17.521  0.00  0.00    +0.000 NA
BRANCH   4  13
ATOM      9  C   UNL     1      -2.024  11.966  19.413  0.00  0.00    +0.000 C 
ATOM     10  C   UNL     1      -0.920  10.976  19.212  0.00  0.00    +0.000 A 
ATOM     11  C   UNL     1      -0.009  10.686  20.233  0.00  0.00    +0.000 A 
ATOM     12  C   UNL     1       1.014   9.758  20.018  0.00  0.00    +0.000 A 
ATOM     13  C   UNL     1       1.146   9.104  18.782  0.00  0.00    +0.000 A 
ATOM     14  C   UNL     1       0.234   9.397  17.761  0.00  0.00    +0.000 A 
ATOM     15  C   UNL     1      -0.784  10.319  17.986  0.00  0.00    +0.000 A 
ATOM     16  F   UNL     1      -1.656  10.570  16.999  0.00  0.00    +0.000 F 
ENDBRANCH   4  13
ENDBRANCH   3   7
ENDBRANCH   1   3
BRANCH   1  17
ATOM     17  C   UNL     1       5.407   4.328  16.813  0.00  0.00    +0.000 C 
BRANCH  17  18
ATOM     18  C   UNL     1       4.250   3.850  17.681  0.00  0.00    +0.000 A 
ATOM     19  N   UNL     1       4.454   3.391  18.870  0.00  0.00    +0.000 NA
ATOM     20  C   UNL     1       3.332   3.097  19.660  0.00  0.00    +0.000 A 
ATOM     21  C   UNL     1       3.533   2.663  20.972  0.00  0.00    +0.000 A 
ATOM     22  C   UNL     1       2.445   2.430  21.817  0.00  0.00    +0.000 A 
ATOM     23  C   UNL     1       1.143   2.627  21.354  0.00  0.00    +0.000 A 
ATOM     24  C   UNL     1       0.925   3.051  20.044  0.00  0.00    +0.000 A 
ATOM     25  C   UNL     1       2.022   3.281  19.207  0.00  0.00    +0.000 A 
ATOM     26  C   UNL     1       1.843   3.772  17.830  0.00  0.00    +0.000 A 
ATOM     27  O   UNL     1       0.738   3.993  17.351  0.00  0.00    +0.000 OA
ATOM     28  N   UNL     1       3.000   4.003  17.132  0.00  0.00    +0.000 N 
ATOM     29  H   UNL     1       2.907   4.432  16.223  0.00  0.00    +0.000 HD
ENDBRANCH  17  18
ENDBRANCH   1  17
TORSDOF 5
ENDMDL
MODEL 6
REMARK VINA RESULT:      -8.2      7.026      9.703
REMARK  Name = 
REMARK  7 active torsions:
REMARK  status: ('A' for Active; 'I' for Inactive)
REMARK    1  A    between atoms: C_1  and  C_2
REMARK    2  A    between atoms: C_5  and  C_6
REMARK    3  A    between atoms: C_9  and  C_10
REMARK    4  A    between atoms: C_10  and  N_11
REMARK    5  A    between atoms: N_11  and  C_12
REMARK    6  A    between atoms: N_11  and  C_13
REMARK    7  A    between atoms: C_13  and  C_14
REMARK                            x       y       z     vdW  Elec       q    Type
REMARK                         _______ _______ _______ _____ _____    ______ ____
ROOT
ATOM      1  N   UNL     1      -0.150   9.919  21.790  0.00  0.00    +0.000 NA
ATOM      2  C   UNL     1      -0.805  10.044  23.091  0.00  0.00    +0.000 C 
ENDROOT
BRANCH   1   3
ATOM      3  C   UNL     1       1.144   9.196  21.905  0.00  0.00    +0.000 C 
BRANCH   3   7
ATOM      4  C   UNL     1       2.119   6.723  19.516  0.00  0.00    +0.000 A 
ATOM      5  N   UNL     1       2.198   7.819  18.741  0.00  0.00    +0.000 NA
ATOM      6  O   UNL     1       1.804   8.852  19.587  0.00  0.00    +0.000 OA
ATOM      7  C   UNL     1       1.511   8.278  20.789  0.00  0.00    +0.000 A 
ATOM      8  N   UNL     1       1.660   6.975  20.790  0.00  0.00    +0.000 NA
BRANCH   4  13
ATOM      9  C   UNL     1       3.667   1.389  17.945  0.00  0.00    +0.000 C 
ATOM     10  C   UNL     1       3.262   2.777  18.335  0.00  0.00    +0.000 A 
ATOM     11  C   UNL     1       2.218   3.438  17.681  0.00  0.00    +0.000 A 
ATOM     12  C   UNL     1       1.861   4.735  18.064  0.00  0.00    +0.000 A 
ATOM     13  C   UNL     1       2.539   5.392  19.103  0.00  0.00    +0.000 A 
ATOM     14  C   UNL     1       3.585   4.728  19.754  0.00  0.00    +0.000 A 
ATOM     15  C   UNL     1       3.931   3.436  19.370  0.00  0.00    +0.000 A 
ATOM     16  F   UNL     1       4.924   2.813  20.021  0.00  0.00    +0.000 F 
ENDBRANCH   4  13
ENDBRANCH   3   7
ENDBRANCH   1   3
BRANCH   1  17
ATOM     17  C   UNL     1      -0.008  11.243  21.142  0.00  0.00    +0.000 C 
BRANCH  17  18
ATOM     18  C   UNL     1      -1.067  11.384  20.055  0.00  0.00    +0.000 A 
ATOM     19  N   UNL     1      -0.967  10.739  18.940  0.00  0.00    +0.000 NA
ATOM     20  C   UNL     1      -2.044  10.812  18.044  0.00  0.00    +0.000 A 
ATOM     21  C   UNL     1      -1.984  10.067  16.863  0.00  0.00    +0.000 A 
ATOM     22  C   UNL     1      -3.063  10.052  15.978  0.00  0.00    +0.000 A 
ATOM     23  C   UNL     1      -4.217  10.785  16.265  0.00  0.00    +0.000 A 
ATOM     24  C   UNL     1      -4.289  11.540  17.434  0.00  0.00    +0.000 A 
ATOM     25  C   UNL     1      -3.202  11.549  18.313  0.00  0.00    +0.000 A 
ATOM     26  C   UNL     1      -3.250  12.296  19.582  0.00  0.00    +0.000 A 
ATOM     27  O   UNL     1      -4.229  12.946  19.923  0.00  0.00    +0.000 OA
ATOM     28  N   UNL     1      -2.137  12.182  20.375  0.00  0.00    +0.000 N 
ATOM     29  H   UNL     1      -2.185  12.603  21.292  0.00  0.00    +0.000 HD
ENDBRANCH  17  18
ENDBRANCH   1  17
TORSDOF 5
ENDMDL
MODEL 7
REMARK VINA RESULT:      -8.2      7.103      9.757
REMARK  Name = 
REMARK  7 active torsions:
REMARK  status: ('A' for Active; 'I' for Inactive)
REMARK    1  A    between atoms: C_1  and  C_2
REMARK    2  A    between atoms: C_5  and  C_6
REMARK    3  A    between atoms: C_9  and  C_10
REMARK    4  A    between atoms: C_10  and  N_11
REMARK    5  A    between atoms: N_11  and  C_12
REMARK    6  A    between atoms: N_11  and  C_13
REMARK    7  A    between atoms: C_13  and  C_14
REMARK                            x       y       z     vdW  Elec       q    Type
REMARK                         _______ _______ _______ _____ _____    ______ ____
ROOT
ATOM      1  N   UNL     1      -0.263  10.148  21.904  0.00  0.00    +0.000 NA
ATOM      2  C   UNL     1      -0.899  10.284  23.214  0.00  0.00    +0.000 C 
ENDROOT
BRANCH   1   3
ATOM      3  C   UNL     1       1.048   9.454  22.011  0.00  0.00    +0.000 C 
BRANCH   3   7
ATOM      4  C   UNL     1       1.932   6.825  19.757  0.00  0.00    +0.000 A 
ATOM      5  N   UNL     1       2.057   7.876  18.928  0.00  0.00    +0.000 NA
ATOM      6  O   UNL     1       1.701   8.966  19.717  0.00  0.00    +0.000 OA
ATOM      7  C   UNL     1       1.382   8.467  20.945  0.00  0.00    +0.000 A 
ATOM      8  N   UNL     1       1.479   7.160  21.014  0.00  0.00    +0.000 NA
BRANCH   4  13
ATOM      9  C   UNL     1       3.533   1.444  18.420  0.00  0.00    +0.000 C 
ATOM     10  C   UNL     1       3.111   2.833  18.783  0.00  0.00    +0.000 A 
ATOM     11  C   UNL     1       3.148   3.281  20.107  0.00  0.00    +0.000 A 
ATOM     12  C   UNL     1       2.745   4.583  20.419  0.00  0.00    +0.000 A 
ATOM     13  C   UNL     1       2.301   5.459  19.416  0.00  0.00    +0.000 A 
ATOM     14  C   UNL     1       2.263   5.008  18.091  0.00  0.00    +0.000 A 
ATOM     15  C   UNL     1       2.670   3.712  17.789  0.00  0.00    +0.000 A 
ATOM     16  F   UNL     1       2.643   3.309  16.511  0.00  0.00    +0.000 F 
ENDBRANCH   4  13
ENDBRANCH   3   7
ENDBRANCH   1   3
BRANCH   1  17
ATOM     17  C   UNL     1      -0.159  11.463  21.230  0.00  0.00    +0.000 C 
BRANCH  17  18
ATOM     18  C   UNL     1      -1.179  11.528  20.100  0.00  0.00    +0.000 A 
ATOM     19  N   UNL     1      -0.992  10.884  18.997  0.00  0.00    +0.000 NA
ATOM     20  C   UNL     1      -2.035  10.881  18.058  0.00  0.00    +0.000 A 
ATOM     21  C   UNL     1      -1.879  10.134  16.887  0.00  0.00    +0.000 A 
ATOM     22  C   UNL     1      -2.918  10.043  15.959  0.00  0.00    +0.000 A 
ATOM     23  C   UNL     1      -4.127  10.702  16.192  0.00  0.00    +0.000 A 
ATOM     24  C   UNL     1      -4.295  11.458  17.351  0.00  0.00    +0.000 A 
ATOM     25  C   UNL     1      -3.247  11.543  18.273  0.00  0.00    +0.000 A 
ATOM     26  C   UNL     1      -3.395  12.294  19.532  0.00  0.00    +0.000 A 
ATOM     27  O   UNL     1      -4.428  12.881  19.827  0.00  0.00    +0.000 OA
ATOM     28  N   UNL     1      -2.311  12.257  20.370  0.00  0.00    +0.000 N 
ATOM     29  H   UNL     1      -2.423  12.680  21.280  0.00  0.00    +0.000 HD
ENDBRANCH  17  18
ENDBRANCH   1  17
TORSDOF 5
ENDMDL
MODEL 8
REMARK VINA RESULT:      -8.2      1.774      2.188
REMARK  Name = 
REMARK  7 active torsions:
REMARK  status: ('A' for Active; 'I' for Inactive)
REMARK    1  A    between atoms: C_1  and  C_2
REMARK    2  A    between atoms: C_5  and  C_6
REMARK    3  A    between atoms: C_9  and  C_10
REMARK    4  A    between atoms: C_10  and  N_11
REMARK    5  A    between atoms: N_11  and  C_12
REMARK    6  A    between atoms: N_11  and  C_13
REMARK    7  A    between atoms: C_13  and  C_14
REMARK                            x       y       z     vdW  Elec       q    Type
REMARK                         _______ _______ _______ _____ _____    ______ ____
ROOT
ATOM      1  N   UNL     1       6.218   5.162  15.458  0.00  0.00    +0.000 NA
ATOM      2  C   UNL     1       7.002   5.077  14.227  0.00  0.00    +0.000 C 
ENDROOT
BRANCH   1   3
ATOM      3  C   UNL     1       7.055   4.864  16.651  0.00  0.00    +0.000 C 
BRANCH   3   7
ATOM      4  C   UNL     1       8.110   7.845  18.315  0.00  0.00    +0.000 A 
ATOM      5  N   UNL     1       8.364   6.951  19.286  0.00  0.00    +0.000 NA
ATOM      6  O   UNL     1       7.954   5.739  18.737  0.00  0.00    +0.000 OA
ATOM      7  C   UNL     1       7.479   6.021  17.490  0.00  0.00    +0.000 A 
ATOM      8  N   UNL     1       7.525   7.298  17.195  0.00  0.00    +0.000 NA
BRANCH   4  13
ATOM      9  C   UNL     1       9.627  13.412  18.447  0.00  0.00    +0.000 C 
ATOM     10  C   UNL     1       9.217  11.974  18.409  0.00  0.00    +0.000 A 
ATOM     11  C   UNL     1       8.280  11.511  17.479  0.00  0.00    +0.000 A 
ATOM     12  C   UNL     1       7.913  10.162  17.466  0.00  0.00    +0.000 A 
ATOM     13  C   UNL     1       8.473   9.253  18.378  0.00  0.00    +0.000 A 
ATOM     14  C   UNL     1       9.408   9.720  19.309  0.00  0.00    +0.000 A 
ATOM     15  C   UNL     1       9.772  11.063  19.312  0.00  0.00    +0.000 A 
ATOM     16  F   UNL     1      10.684  11.483  20.201  0.00  0.00    +0.000 F 
ENDBRANCH   4  13
ENDBRANCH   3   7
ENDBRANCH   1   3
BRANCH   1  17
ATOM     17  C   UNL     1       5.014   4.304  15.377  0.00  0.00    +0.000 C 
BRANCH  17  18
ATOM     18  C   UNL     1       4.419   4.145  16.771  0.00  0.00    +0.000 A 
ATOM     19  N   UNL     1       3.888   5.148  17.387  0.00  0.00    +0.000 NA
ATOM     20  C   UNL     1       3.240   4.899  18.606  0.00  0.00    +0.000 A 
ATOM     21  C   UNL     1       2.602   5.959  19.254  0.00  0.00    +0.000 A 
ATOM     22  C   UNL     1       1.884   5.743  20.431  0.00  0.00    +0.000 A 
ATOM     23  C   UNL     1       1.798   4.459  20.976  0.00  0.00    +0.000 A 
ATOM     24  C   UNL     1       2.437   3.392  20.346  0.00  0.00    +0.000 A 
ATOM     25  C   UNL     1       3.155   3.621  19.168  0.00  0.00    +0.000 A 
ATOM     26  C   UNL     1       3.809   2.517  18.444  0.00  0.00    +0.000 A 
ATOM     27  O   UNL     1       3.765   1.359  18.837  0.00  0.00    +0.000 OA
ATOM     28  N   UNL     1       4.437   2.869  17.278  0.00  0.00    +0.000 N 
ATOM     29  H   UNL     1       4.808   2.117  16.714  0.00  0.00    +0.000 HD
ENDBRANCH  17  18
ENDBRANCH   1  17
TORSDOF 5
ENDMDL
MODEL 9
REMARK VINA RESULT:      -8.1      4.548      7.158
REMARK  Name = 
REMARK  7 active torsions:
REMARK  status: ('A' for Active; 'I' for Inactive)
REMARK    1  A    between atoms: C_1  and  C_2
REMARK    2  A    between atoms: C_5  and  C_6
REMARK    3  A    between atoms: C_9  and  C_10
REMARK    4  A    between atoms: C_10  and  N_11
REMARK    5  A    between atoms: N_11  and  C_12
REMARK    6  A    between atoms: N_11  and  C_13
REMARK    7  A    between atoms: C_13  and  C_14
REMARK                            x       y       z     vdW  Elec       q    Type
REMARK                         _______ _______ _______ _____ _____    ______ ____
ROOT
ATOM      1  N   UNL     1       2.758   3.274  20.823  0.00  0.00    +0.000 NA
ATOM      2  C   UNL     1       2.032   2.379  21.723  0.00  0.00    +0.000 C 
ENDROOT
BRANCH   1   3
ATOM      3  C   UNL     1       1.824   4.040  19.956  0.00  0.00    +0.000 C 
BRANCH   3   7
ATOM      4  C   UNL     1       1.457   7.547  20.537  0.00  0.00    +0.000 A 
ATOM      5  N   UNL     1       2.304   7.585  19.493  0.00  0.00    +0.000 NA
ATOM      6  O   UNL     1       2.534   6.243  19.204  0.00  0.00    +0.000 OA
ATOM      7  C   UNL     1       1.815   5.523  20.111  0.00  0.00    +0.000 A 
ATOM      8  N   UNL     1       1.162   6.272  20.966  0.00  0.00    +0.000 NA
BRANCH   4  13
ATOM      9  C   UNL     1      -1.136  12.139  22.882  0.00  0.00    +0.000 C 
ATOM     10  C   UNL     1      -0.458  10.943  22.291  0.00  0.00    +0.000 A 
ATOM     11  C   UNL     1      -0.429   9.718  22.965  0.00  0.00    +0.000 A 
ATOM     12  C   UNL     1       0.213   8.617  22.391  0.00  0.00    +0.000 A 
ATOM     13  C   UNL     1       0.836   8.719  21.136  0.00  0.00    +0.000 A 
ATOM     14  C   UNL     1       0.807   9.947  20.465  0.00  0.00    +0.000 A 
ATOM     15  C   UNL     1       0.161  11.036  21.041  0.00  0.00    +0.000 A 
ATOM     16  F   UNL     1       0.131  12.197  20.371  0.00  0.00    +0.000 F 
ENDBRANCH   4  13
ENDBRANCH   3   7
ENDBRANCH   1   3
BRANCH   1  17
ATOM     17  C   UNL     1       3.775   2.529  20.046  0.00  0.00    +0.000 C 
BRANCH  17  18
ATOM     18  C   UNL     1       4.529   3.502  19.147  0.00  0.00    +0.000 A 
ATOM     19  N   UNL     1       5.364   4.354  19.640  0.00  0.00    +0.000 NA
ATOM     20  C   UNL     1       6.120   5.123  18.742  0.00  0.00    +0.000 A 
ATOM     21  C   UNL     1       7.077   6.003  19.255  0.00  0.00    +0.000 A 
ATOM     22  C   UNL     1       7.901   6.733  18.397  0.00  0.00    +0.000 A 
ATOM     23  C   UNL     1       7.775   6.594  17.014  0.00  0.00    +0.000 A 
ATOM     24  C   UNL     1       6.818   5.728  16.486  0.00  0.00    +0.000 A 
ATOM     25  C   UNL     1       5.997   5.001  17.355  0.00  0.00    +0.000 A 
ATOM     26  C   UNL     1       5.003   4.041  16.843  0.00  0.00    +0.000 A 
ATOM     27  O   UNL     1       4.842   3.840  15.647  0.00  0.00    +0.000 OA
ATOM     28  N   UNL     1       4.298   3.359  17.801  0.00  0.00    +0.000 N 
ATOM     29  H   UNL     1       3.682   2.626  17.478  0.00  0.00    +0.000 HD
ENDBRANCH  17  18
ENDBRANCH   1  17
TORSDOF 5
ENDMDL
