MODEL 1
REMARK VINA RESULT:      -8.6      0.000      0.000
REMARK  Name = 
REMARK  3 active torsions:
REMARK  status: ('A' for Active; 'I' for Inactive)
REMARK    1  A    between atoms: C_4  and  C_5
REMARK    2  A    between atoms: N_18  and  C_19
REMARK    3  A    between atoms: C_19  and  C_20
REMARK                            x       y       z     vdW  Elec       q    Type
REMARK                         _______ _______ _______ _____ _____    ______ ____
ROOT
ATOM      1  O   UNL     1       0.639   2.932  18.307  0.00  0.00    +0.000 OA
ATOM      2  C   UNL     1       1.690   2.743  18.893  0.00  0.00    +0.000 C 
ATOM      3  C   UNL     1       2.756   1.753  18.480  0.00  0.00    +0.000 C 
ATOM      4  C   UNL     1       3.978   2.211  19.275  0.00  0.00    +0.000 C 
ATOM      5  C   UNL     1       3.380   2.851  20.516  0.00  0.00    +0.000 C 
ATOM      6  N   UNL     1       2.146   3.413  20.020  0.00  0.00    +0.000 N 
ENDROOT
BRANCH   4   7
ATOM      7  C   UNL     1       4.830   3.210  18.496  0.00  0.00    +0.000 A 
ATOM      8  N   UNL     1       5.618   4.015  19.133  0.00  0.00    +0.000 NA
ATOM      9  C   UNL     1       6.353   4.955  18.386  0.00  0.00    +0.000 A 
ATOM     10  C   UNL     1       7.184   5.854  19.055  0.00  0.00    +0.000 A 
ATOM     11  C   UNL     1       7.877   6.826  18.339  0.00  0.00    +0.000 A 
ATOM     12  F   UNL     1       8.654   7.697  18.993  0.00  0.00    +0.000 F 
ATOM     13  C   UNL     1       7.767   6.921  16.953  0.00  0.00    +0.000 A 
ATOM     14  C   UNL     1       6.958   6.019  16.268  0.00  0.00    +0.000 A 
ATOM     15  C   UNL     1       6.259   5.046  16.992  0.00  0.00    +0.000 A 
ATOM     16  C   UNL     1       5.372   4.094  16.311  0.00  0.00    +0.000 A 
ATOM     17  O   UNL     1       5.222   4.092  15.096  0.00  0.00    +0.000 OA
ATOM     18  N   UNL     1       4.705   3.224  17.131  0.00  0.00    +0.000 N 
ATOM     19  H   UNL     1       4.071   2.598  16.652  0.00  0.00    +0.000 HD
ENDBRANCH   4   7
BRANCH   6  20
ATOM     20  C   UNL     1       1.330   4.325  20.802  0.00  0.00    +0.000 C 
BRANCH  20  21
ATOM     21  C   UNL     1       1.555   5.766  20.427  0.00  0.00    +0.000 A 
ATOM     22  C   UNL     1       1.007   6.806  21.189  0.00  0.00    +0.000 A 
ATOM     23  C   UNL     1       1.177   8.135  20.797  0.00  0.00    +0.000 A 
ATOM     24  C   UNL     1       1.902   8.437  19.644  0.00  0.00    +0.000 A 
ATOM     25  C   UNL     1       2.463   7.412  18.887  0.00  0.00    +0.000 A 
ATOM     26  C   UNL     1       2.289   6.083  19.274  0.00  0.00    +0.000 A 
ENDBRANCH  20  21
ENDBRANCH   6  20
TORSDOF 3
ENDMDL
MODEL 2
REMARK VINA RESULT:      -8.0      2.119      2.811
REMARK  Name = 
REMARK  3 active torsions:
REMARK  status: ('A' for Active; 'I' for Inactive)
REMARK    1  A    between atoms: C_4  and  C_5
REMARK    2  A    between atoms: N_18  and  C_19
REMARK    3  A    between atoms: C_19  and  C_20
REMARK                            x       y       z     vdW  Elec       q    Type
REMARK                         _______ _______ _______ _____ _____    ______ ____
ROOT
ATOM      1  O   UNL     1       0.709   3.616  18.648  0.00  0.00    +0.000 OA
ATOM      2  C   UNL     1       1.798   3.428  19.162  0.00  0.00    +0.000 C 
ATOM      3  C   UNL     1       2.690   2.234  18.907  0.00  0.00    +0.000 C 
ATOM      4  C   UNL     1       4.044   2.695  19.446  0.00  0.00    +0.000 C 
ATOM      5  C   UNL     1       3.679   3.683  20.541  0.00  0.00    +0.000 C 
ATOM      6  N   UNL     1       2.460   4.275  20.039  0.00  0.00    +0.000 N 
ENDROOT
BRANCH   4   7
ATOM      7  C   UNL     1       4.897   3.359  18.367  0.00  0.00    +0.000 A 
ATOM      8  N   UNL     1       4.626   3.153  17.118  0.00  0.00    +0.000 NA
ATOM      9  C   UNL     1       5.462   3.743  16.152  0.00  0.00    +0.000 A 
ATOM     10  C   UNL     1       5.209   3.507  14.800  0.00  0.00    +0.000 A 
ATOM     11  C   UNL     1       6.056   4.037  13.831  0.00  0.00    +0.000 A 
ATOM     12  F   UNL     1       5.816   3.787  12.538  0.00  0.00    +0.000 F 
ATOM     13  C   UNL     1       7.159   4.813  14.179  0.00  0.00    +0.000 A 
ATOM     14  C   UNL     1       7.415   5.075  15.522  0.00  0.00    +0.000 A 
ATOM     15  C   UNL     1       6.564   4.536  16.494  0.00  0.00    +0.000 A 
ATOM     16  C   UNL     1       6.815   4.763  17.923  0.00  0.00    +0.000 A 
ATOM     17  O   UNL     1       7.751   5.443  18.324  0.00  0.00    +0.000 OA
ATOM     18  N   UNL     1       5.943   4.144  18.778  0.00  0.00    +0.000 N 
ATOM     19  H   UNL     1       6.149   4.280  19.759  0.00  0.00    +0.000 HD
ENDBRANCH   4   7
BRANCH   6  20
ATOM     20  C   UNL     1       1.852   5.447  20.644  0.00  0.00    +0.000 C 
BRANCH  20  21
ATOM     21  C   UNL     1       2.023   6.685  19.803  0.00  0.00    +0.000 A 
ATOM     22  C   UNL     1       1.432   7.899  20.176  0.00  0.00    +0.000 A 
ATOM     23  C   UNL     1       1.553   9.023  19.357  0.00  0.00    +0.000 A 
ATOM     24  C   UNL     1       2.269   8.946  18.163  0.00  0.00    +0.000 A 
ATOM     25  C   UNL     1       2.872   7.748  17.790  0.00  0.00    +0.000 A 
ATOM     26  C   UNL     1       2.748   6.622  18.604  0.00  0.00    +0.000 A 
ENDBRANCH  20  21
ENDBRANCH   6  20
TORSDOF 3
ENDMDL
MODEL 3
REMARK VINA RESULT:      -7.9      3.536      5.359
REMARK  Name = 
REMARK  3 active torsions:
REMARK  status: ('A' for Active; 'I' for Inactive)
REMARK    1  A    between atoms: C_4  and  C_5
REMARK    2  A    between atoms: N_18  and  C_19
REMARK    3  A    between atoms: C_19  and  C_20
REMARK                            x       y       z     vdW  Elec       q    Type
REMARK                         _______ _______ _______ _____ _____    ______ ____
ROOT
ATOM      1  O   UNL     1       7.191   4.846  19.277  0.00  0.00    +0.000 OA
ATOM      2  C   UNL     1       6.295   5.184  18.523  0.00  0.00    +0.000 C 
ATOM      3  C   UNL     1       6.270   6.458  17.710  0.00  0.00    +0.000 C 
ATOM      4  C   UNL     1       5.182   6.184  16.672  0.00  0.00    +0.000 C 
ATOM      5  C   UNL     1       4.248   5.216  17.378  0.00  0.00    +0.000 C 
ATOM      6  N   UNL     1       5.148   4.464  18.220  0.00  0.00    +0.000 N 
ENDROOT
BRANCH   4   7
ATOM      7  C   UNL     1       5.748   5.569  15.394  0.00  0.00    +0.000 A 
ATOM      8  N   UNL     1       5.045   4.711  14.729  0.00  0.00    +0.000 NA
ATOM      9  C   UNL     1       5.618   4.130  13.582  0.00  0.00    +0.000 A 
ATOM     10  C   UNL     1       4.889   3.177  12.868  0.00  0.00    +0.000 A 
ATOM     11  C   UNL     1       5.459   2.551  11.763  0.00  0.00    +0.000 A 
ATOM     12  F   UNL     1       4.759   1.624  11.099  0.00  0.00    +0.000 F 
ATOM     13  C   UNL     1       6.750   2.860  11.341  0.00  0.00    +0.000 A 
ATOM     14  C   UNL     1       7.483   3.822  12.030  0.00  0.00    +0.000 A 
ATOM     15  C   UNL     1       6.909   4.446  13.144  0.00  0.00    +0.000 A 
ATOM     16  C   UNL     1       7.658   5.446  13.916  0.00  0.00    +0.000 A 
ATOM     17  O   UNL     1       8.793   5.791  13.613  0.00  0.00    +0.000 OA
ATOM     18  N   UNL     1       7.010   5.947  15.012  0.00  0.00    +0.000 N 
ATOM     19  H   UNL     1       7.551   6.608  15.555  0.00  0.00    +0.000 HD
ENDBRANCH   4   7
BRANCH   6  20
ATOM     20  C   UNL     1       4.740   3.261  18.925  0.00  0.00    +0.000 C 
BRANCH  20  21
ATOM     21  C   UNL     1       3.274   3.264  19.271  0.00  0.00    +0.000 A 
ATOM     22  C   UNL     1       2.786   4.028  20.340  0.00  0.00    +0.000 A 
ATOM     23  C   UNL     1       1.434   3.977  20.683  0.00  0.00    +0.000 A 
ATOM     24  C   UNL     1       0.557   3.169  19.959  0.00  0.00    +0.000 A 
ATOM     25  C   UNL     1       1.030   2.418  18.886  0.00  0.00    +0.000 A 
ATOM     26  C   UNL     1       2.381   2.462  18.545  0.00  0.00    +0.000 A 
ENDBRANCH  20  21
ENDBRANCH   6  20
TORSDOF 3
ENDMDL
MODEL 4
REMARK VINA RESULT:      -7.3      2.812      5.803
REMARK  Name = 
REMARK  3 active torsions:
REMARK  status: ('A' for Active; 'I' for Inactive)
REMARK    1  A    between atoms: C_4  and  C_5
REMARK    2  A    between atoms: N_18  and  C_19
REMARK    3  A    between atoms: C_19  and  C_20
REMARK                            x       y       z     vdW  Elec       q    Type
REMARK                         _______ _______ _______ _____ _____    ______ ____
ROOT
ATOM      1  O   UNL     1       5.195   3.155  20.005  0.00  0.00    +0.000 OA
ATOM      2  C   UNL     1       4.372   3.488  19.170  0.00  0.00    +0.000 C 
ATOM      3  C   UNL     1       2.872   3.410  19.342  0.00  0.00    +0.000 C 
ATOM      4  C   UNL     1       2.350   4.308  18.221  0.00  0.00    +0.000 C 
ATOM      5  C   UNL     1       3.422   4.205  17.149  0.00  0.00    +0.000 C 
ATOM      6  N   UNL     1       4.630   4.041  17.924  0.00  0.00    +0.000 N 
ENDROOT
BRANCH   4   7
ATOM      7  C   UNL     1       2.166   5.753  18.679  0.00  0.00    +0.000 A 
ATOM      8  N   UNL     1       1.816   5.998  19.900  0.00  0.00    +0.000 NA
ATOM      9  C   UNL     1       1.609   7.340  20.275  0.00  0.00    +0.000 A 
ATOM     10  C   UNL     1       1.199   7.625  21.577  0.00  0.00    +0.000 A 
ATOM     11  C   UNL     1       0.937   8.940  21.952  0.00  0.00    +0.000 A 
ATOM     12  F   UNL     1       0.524   9.200  23.198  0.00  0.00    +0.000 F 
ATOM     13  C   UNL     1       1.084   9.993  21.051  0.00  0.00    +0.000 A 
ATOM     14  C   UNL     1       1.511   9.727  19.753  0.00  0.00    +0.000 A 
ATOM     15  C   UNL     1       1.768   8.403  19.378  0.00  0.00    +0.000 A 
ATOM     16  C   UNL     1       2.193   8.077  18.011  0.00  0.00    +0.000 A 
ATOM     17  O   UNL     1       2.361   8.936  17.154  0.00  0.00    +0.000 OA
ATOM     18  N   UNL     1       2.365   6.743  17.753  0.00  0.00    +0.000 N 
ATOM     19  H   UNL     1       2.623   6.531  16.798  0.00  0.00    +0.000 HD
ENDBRANCH   4   7
BRANCH   6  20
ATOM     20  C   UNL     1       5.955   4.124  17.336  0.00  0.00    +0.000 C 
BRANCH  20  21
ATOM     21  C   UNL     1       6.651   5.419  17.664  0.00  0.00    +0.000 A 
ATOM     22  C   UNL     1       6.429   6.573  16.901  0.00  0.00    +0.000 A 
ATOM     23  C   UNL     1       7.124   7.750  17.184  0.00  0.00    +0.000 A 
ATOM     24  C   UNL     1       8.042   7.787  18.233  0.00  0.00    +0.000 A 
ATOM     25  C   UNL     1       8.260   6.649  19.007  0.00  0.00    +0.000 A 
ATOM     26  C   UNL     1       7.571   5.471  18.723  0.00  0.00    +0.000 A 
ENDBRANCH  20  21
ENDBRANCH   6  20
TORSDOF 3
ENDMDL
MODEL 5
REMARK VINA RESULT:      -7.3      2.813      6.682
REMARK  Name = 
REMARK  3 active torsions:
REMARK  status: ('A' for Active; 'I' for Inactive)
REMARK    1  A    between atoms: C_4  and  C_5
REMARK    2  A    between atoms: N_18  and  C_19
REMARK    3  A    between atoms: C_19  and  C_20
REMARK                            x       y       z     vdW  Elec       q    Type
REMARK                         _______ _______ _______ _____ _____    ______ ____
ROOT
ATOM      1  O   UNL     1       7.371   7.933  17.552  0.00  0.00    +0.000 OA
ATOM      2  C   UNL     1       7.372   6.714  17.570  0.00  0.00    +0.000 C 
ATOM      3  C   UNL     1       7.599   5.858  18.795  0.00  0.00    +0.000 C 
ATOM      4  C   UNL     1       7.093   4.485  18.354  0.00  0.00    +0.000 C 
ATOM      5  C   UNL     1       7.324   4.482  16.852  0.00  0.00    +0.000 C 
ATOM      6  N   UNL     1       7.126   5.868  16.498  0.00  0.00    +0.000 N 
ENDROOT
BRANCH   4   7
ATOM      7  C   UNL     1       5.616   4.283  18.685  0.00  0.00    +0.000 A 
ATOM      8  N   UNL     1       4.942   5.249  19.222  0.00  0.00    +0.000 NA
ATOM      9  C   UNL     1       3.595   5.011  19.556  0.00  0.00    +0.000 A 
ATOM     10  C   UNL     1       2.858   6.027  20.166  0.00  0.00    +0.000 A 
ATOM     11  C   UNL     1       1.541   5.794  20.554  0.00  0.00    +0.000 A 
ATOM     12  F   UNL     1       0.851   6.768  21.158  0.00  0.00    +0.000 F 
ATOM     13  C   UNL     1       0.930   4.561  20.340  0.00  0.00    +0.000 A 
ATOM     14  C   UNL     1       1.645   3.543  19.715  0.00  0.00    +0.000 A 
ATOM     15  C   UNL     1       2.970   3.779  19.331  0.00  0.00    +0.000 A 
ATOM     16  C   UNL     1       3.769   2.723  18.695  0.00  0.00    +0.000 A 
ATOM     17  O   UNL     1       3.313   1.612  18.454  0.00  0.00    +0.000 OA
ATOM     18  N   UNL     1       5.066   3.058  18.411  0.00  0.00    +0.000 N 
ATOM     19  H   UNL     1       5.614   2.310  18.006  0.00  0.00    +0.000 HD
ENDBRANCH   4   7
BRANCH   6  20
ATOM     20  C   UNL     1       7.022   6.317  15.121  0.00  0.00    +0.000 C 
BRANCH  20  21
ATOM     21  C   UNL     1       6.664   5.201  14.176  0.00  0.00    +0.000 A 
ATOM     22  C   UNL     1       7.503   4.862  13.106  0.00  0.00    +0.000 A 
ATOM     23  C   UNL     1       7.130   3.863  12.205  0.00  0.00    +0.000 A 
ATOM     24  C   UNL     1       5.919   3.189  12.369  0.00  0.00    +0.000 A 
ATOM     25  C   UNL     1       5.085   3.508  13.437  0.00  0.00    +0.000 A 
ATOM     26  C   UNL     1       5.453   4.511  14.334  0.00  0.00    +0.000 A 
ENDBRANCH  20  21
ENDBRANCH   6  20
TORSDOF 3
ENDMDL
MODEL 6
REMARK VINA RESULT:      -7.2      6.410      9.480
REMARK  Name = 
REMARK  3 active torsions:
REMARK  status: ('A' for Active; 'I' for Inactive)
REMARK    1  A    between atoms: C_4  and  C_5
REMARK    2  A    between atoms: N_18  and  C_19
REMARK    3  A    between atoms: C_19  and  C_20
REMARK                            x       y       z     vdW  Elec       q    Type
REMARK                         _______ _______ _______ _____ _____    ______ ____
ROOT
ATOM      1  O   UNL     1      -4.823  12.216  22.375  0.00  0.00    +0.000 OA
ATOM      2  C   UNL     1      -3.826  12.674  21.842  0.00  0.00    +0.000 C 
ATOM      3  C   UNL     1      -2.618  13.220  22.570  0.00  0.00    +0.000 C 
ATOM      4  C   UNL     1      -1.548  13.259  21.480  0.00  0.00    +0.000 C 
ATOM      5  C   UNL     1      -2.344  13.456  20.201  0.00  0.00    +0.000 C 
ATOM      6  N   UNL     1      -3.572  12.750  20.480  0.00  0.00    +0.000 N 
ENDROOT
BRANCH   4   7
ATOM      7  C   UNL     1      -0.733  11.969  21.428  0.00  0.00    +0.000 A 
ATOM      8  N   UNL     1      -0.215  11.583  20.307  0.00  0.00    +0.000 NA
ATOM      9  C   UNL     1       0.491  10.365  20.287  0.00  0.00    +0.000 A 
ATOM     10  C   UNL     1       1.030   9.913  19.082  0.00  0.00    +0.000 A 
ATOM     11  C   UNL     1       1.684   8.685  19.029  0.00  0.00    +0.000 A 
ATOM     12  F   UNL     1       2.178   8.252  17.864  0.00  0.00    +0.000 F 
ATOM     13  C   UNL     1       1.822   7.889  20.164  0.00  0.00    +0.000 A 
ATOM     14  C   UNL     1       1.307   8.334  21.378  0.00  0.00    +0.000 A 
ATOM     15  C   UNL     1       0.646   9.567  21.426  0.00  0.00    +0.000 A 
ATOM     16  C   UNL     1       0.062  10.060  22.681  0.00  0.00    +0.000 A 
ATOM     17  O   UNL     1       0.146   9.436  23.731  0.00  0.00    +0.000 OA
ATOM     18  N   UNL     1      -0.601  11.254  22.590  0.00  0.00    +0.000 N 
ATOM     19  H   UNL     1      -1.028  11.563  23.453  0.00  0.00    +0.000 HD
ENDBRANCH   4   7
BRANCH   6  20
ATOM     20  C   UNL     1      -4.564  12.469  19.457  0.00  0.00    +0.000 C 
BRANCH  20  21
ATOM     21  C   UNL     1      -4.013  11.630  18.334  0.00  0.00    +0.000 A 
ATOM     22  C   UNL     1      -4.520  11.741  17.032  0.00  0.00    +0.000 A 
ATOM     23  C   UNL     1      -4.037  10.917  16.015  0.00  0.00    +0.000 A 
ATOM     24  C   UNL     1      -3.040   9.980  16.285  0.00  0.00    +0.000 A 
ATOM     25  C   UNL     1      -2.518   9.872  17.572  0.00  0.00    +0.000 A 
ATOM     26  C   UNL     1      -3.004  10.690  18.592  0.00  0.00    +0.000 A 
ENDBRANCH  20  21
ENDBRANCH   6  20
TORSDOF 3
ENDMDL
MODEL 7
REMARK VINA RESULT:      -7.2      3.365      7.251
REMARK  Name = 
REMARK  3 active torsions:
REMARK  status: ('A' for Active; 'I' for Inactive)
REMARK    1  A    between atoms: C_4  and  C_5
REMARK    2  A    between atoms: N_18  and  C_19
REMARK    3  A    between atoms: C_19  and  C_20
REMARK                            x       y       z     vdW  Elec       q    Type
REMARK                         _______ _______ _______ _____ _____    ______ ____
ROOT
ATOM      1  O   UNL     1       5.221   6.999  14.653  0.00  0.00    +0.000 OA
ATOM      2  C   UNL     1       5.609   5.948  15.135  0.00  0.00    +0.000 C 
ATOM      3  C   UNL     1       6.349   5.806  16.445  0.00  0.00    +0.000 C 
ATOM      4  C   UNL     1       6.217   4.316  16.756  0.00  0.00    +0.000 C 
ATOM      5  C   UNL     1       6.111   3.670  15.385  0.00  0.00    +0.000 C 
ATOM      6  N   UNL     1       5.417   4.676  14.614  0.00  0.00    +0.000 N 
ENDROOT
BRANCH   4   7
ATOM      7  C   UNL     1       4.984   4.013  17.605  0.00  0.00    +0.000 A 
ATOM      8  N   UNL     1       4.364   4.978  18.203  0.00  0.00    +0.000 NA
ATOM      9  C   UNL     1       3.261   4.656  19.015  0.00  0.00    +0.000 A 
ATOM     10  C   UNL     1       2.597   5.677  19.696  0.00  0.00    +0.000 A 
ATOM     11  C   UNL     1       1.538   5.373  20.546  0.00  0.00    +0.000 A 
ATOM     12  F   UNL     1       0.922   6.358  21.210  0.00  0.00    +0.000 F 
ATOM     13  C   UNL     1       1.112   4.060  20.732  0.00  0.00    +0.000 A 
ATOM     14  C   UNL     1       1.750   3.031  20.045  0.00  0.00    +0.000 A 
ATOM     15  C   UNL     1       2.818   3.340  19.195  0.00  0.00    +0.000 A 
ATOM     16  C   UNL     1       3.538   2.281  18.474  0.00  0.00    +0.000 A 
ATOM     17  O   UNL     1       3.227   1.100  18.564  0.00  0.00    +0.000 OA
ATOM     18  N   UNL     1       4.594   2.703  17.713  0.00  0.00    +0.000 N 
ATOM     19  H   UNL     1       5.102   1.960  17.251  0.00  0.00    +0.000 HD
ENDBRANCH   4   7
BRANCH   6  20
ATOM     20  C   UNL     1       4.886   4.417  13.287  0.00  0.00    +0.000 C 
BRANCH  20  21
ATOM     21  C   UNL     1       5.759   3.485  12.489  0.00  0.00    +0.000 A 
ATOM     22  C   UNL     1       7.099   3.800  12.222  0.00  0.00    +0.000 A 
ATOM     23  C   UNL     1       7.879   2.954  11.433  0.00  0.00    +0.000 A 
ATOM     24  C   UNL     1       7.331   1.783  10.909  0.00  0.00    +0.000 A 
ATOM     25  C   UNL     1       6.006   1.453  11.179  0.00  0.00    +0.000 A 
ATOM     26  C   UNL     1       5.223   2.301  11.963  0.00  0.00    +0.000 A 
ENDBRANCH  20  21
ENDBRANCH   6  20
TORSDOF 3
ENDMDL
MODEL 8
REMARK VINA RESULT:      -7.1      8.414     11.505
REMARK  Name = 
REMARK  3 active torsions:
REMARK  status: ('A' for Active; 'I' for Inactive)
REMARK    1  A    between atoms: C_4  and  C_5
REMARK    2  A    between atoms: N_18  and  C_19
REMARK    3  A    between atoms: C_19  and  C_20
REMARK                            x       y       z     vdW  Elec       q    Type
REMARK                         _______ _______ _______ _____ _____    ______ ____
ROOT
ATOM      1  O   UNL     1      -5.873  11.995  24.528  0.00  0.00    +0.000 OA
ATOM      2  C   UNL     1      -5.175  12.830  23.977  0.00  0.00    +0.000 C 
ATOM      3  C   UNL     1      -3.820  13.295  24.461  0.00  0.00    +0.000 C 
ATOM      4  C   UNL     1      -3.236  13.990  23.232  0.00  0.00    +0.000 C 
ATOM      5  C   UNL     1      -4.460  14.496  22.489  0.00  0.00    +0.000 C 
ATOM      6  N   UNL     1      -5.451  13.488  22.787  0.00  0.00    +0.000 N 
ENDROOT
BRANCH   4   7
ATOM      7  C   UNL     1      -2.420  13.035  22.364  0.00  0.00    +0.000 A 
ATOM      8  N   UNL     1      -2.645  12.975  21.091  0.00  0.00    +0.000 NA
ATOM      9  C   UNL     1      -1.906  12.049  20.330  0.00  0.00    +0.000 A 
ATOM     10  C   UNL     1      -2.155  11.944  18.961  0.00  0.00    +0.000 A 
ATOM     11  C   UNL     1      -1.475  10.997  18.201  0.00  0.00    +0.000 A 
ATOM     12  F   UNL     1      -1.737  10.890  16.893  0.00  0.00    +0.000 F 
ATOM     13  C   UNL     1      -0.534  10.146  18.777  0.00  0.00    +0.000 A 
ATOM     14  C   UNL     1      -0.260  10.251  20.137  0.00  0.00    +0.000 A 
ATOM     15  C   UNL     1      -0.949  11.200  20.900  0.00  0.00    +0.000 A 
ATOM     16  C   UNL     1      -0.711  11.324  22.344  0.00  0.00    +0.000 A 
ATOM     17  O   UNL     1       0.106  10.630  22.935  0.00  0.00    +0.000 OA
ATOM     18  N   UNL     1      -1.482  12.254  22.988  0.00  0.00    +0.000 N 
ATOM     19  H   UNL     1      -1.332  12.304  23.988  0.00  0.00    +0.000 HD
ENDBRANCH   4   7
BRANCH   6  20
ATOM     20  C   UNL     1      -6.732  13.423  22.106  0.00  0.00    +0.000 C 
BRANCH  20  21
ATOM     21  C   UNL     1      -6.772  12.347  21.053  0.00  0.00    +0.000 A 
ATOM     22  C   UNL     1      -7.506  11.170  21.250  0.00  0.00    +0.000 A 
ATOM     23  C   UNL     1      -7.487  10.158  20.289  0.00  0.00    +0.000 A 
ATOM     24  C   UNL     1      -6.742  10.315  19.120  0.00  0.00    +0.000 A 
ATOM     25  C   UNL     1      -6.021  11.488  18.908  0.00  0.00    +0.000 A 
ATOM     26  C   UNL     1      -6.033  12.497  19.870  0.00  0.00    +0.000 A 
ENDBRANCH  20  21
ENDBRANCH   6  20
TORSDOF 3
ENDMDL
MODEL 9
REMARK VINA RESULT:      -7.1      3.283      6.782
REMARK  Name = 
REMARK  3 active torsions:
REMARK  status: ('A' for Active; 'I' for Inactive)
REMARK    1  A    between atoms: C_4  and  C_5
REMARK    2  A    between atoms: N_18  and  C_19
REMARK    3  A    between atoms: C_19  and  C_20
REMARK                            x       y       z     vdW  Elec       q    Type
REMARK                         _______ _______ _______ _____ _____    ______ ____
ROOT
ATOM      1  O   UNL     1       6.513   5.313  19.706  0.00  0.00    +0.000 OA
ATOM      2  C   UNL     1       5.474   5.243  19.072  0.00  0.00    +0.000 C 
ATOM      3  C   UNL     1       4.160   4.716  19.601  0.00  0.00    +0.000 C 
ATOM      4  C   UNL     1       3.146   5.231  18.580  0.00  0.00    +0.000 C 
ATOM      5  C   UNL     1       3.947   5.325  17.293  0.00  0.00    +0.000 C 
ATOM      6  N   UNL     1       5.269   5.666  17.766  0.00  0.00    +0.000 N 
ENDROOT
BRANCH   4   7
ATOM      7  C   UNL     1       2.574   6.592  18.973  0.00  0.00    +0.000 A 
ATOM      8  N   UNL     1       2.144   6.782  20.179  0.00  0.00    +0.000 NA
ATOM      9  C   UNL     1       1.580   8.034  20.492  0.00  0.00    +0.000 A 
ATOM     10  C   UNL     1       1.080   8.250  21.776  0.00  0.00    +0.000 A 
ATOM     11  C   UNL     1       0.470   9.462  22.090  0.00  0.00    +0.000 A 
ATOM     12  F   UNL     1      -0.025   9.651  23.319  0.00  0.00    +0.000 F 
ATOM     13  C   UNL     1       0.351  10.479  21.146  0.00  0.00    +0.000 A 
ATOM     14  C   UNL     1       0.862  10.286  19.865  0.00  0.00    +0.000 A 
ATOM     15  C   UNL     1       1.470   9.065  19.552  0.00  0.00    +0.000 A 
ATOM     16  C   UNL     1       1.997   8.810  18.204  0.00  0.00    +0.000 A 
ATOM     17  O   UNL     1       1.950   9.649  17.313  0.00  0.00    +0.000 OA
ATOM     18  N   UNL     1       2.523   7.562  18.007  0.00  0.00    +0.000 N 
ATOM     19  H   UNL     1       2.849   7.389  17.065  0.00  0.00    +0.000 HD
ENDBRANCH   4   7
BRANCH   6  20
ATOM     20  C   UNL     1       6.336   6.084  16.875  0.00  0.00    +0.000 C 
BRANCH  20  21
ATOM     21  C   UNL     1       6.326   5.331  15.570  0.00  0.00    +0.000 A 
ATOM     22  C   UNL     1       5.272   4.468  15.242  0.00  0.00    +0.000 A 
ATOM     23  C   UNL     1       5.304   3.734  14.055  0.00  0.00    +0.000 A 
ATOM     24  C   UNL     1       6.385   3.861  13.183  0.00  0.00    +0.000 A 
ATOM     25  C   UNL     1       7.431   4.727  13.492  0.00  0.00    +0.000 A 
ATOM     26  C   UNL     1       7.403   5.456  14.681  0.00  0.00    +0.000 A 
ENDBRANCH  20  21
ENDBRANCH   6  20
TORSDOF 3
ENDMDL
