MODEL 1
REMARK VINA RESULT:      -9.7      0.000      0.000
REMARK  Name = 
REMARK  6 active torsions:
REMARK  status: ('A' for Active; 'I' for Inactive)
REMARK    1  A    between atoms: C_1  and  C_2
REMARK    2  A    between atoms: C_2  and  S_3
REMARK    3  A    between atoms: C_2  and  C_10
REMARK    4  A    between atoms: S_3  and  C_4
REMARK    5  A    between atoms: N_8  and  C_9
REMARK    6  A    between atoms: C_14  and  N_15
REMARK                            x       y       z     vdW  Elec       q    Type
REMARK                         _______ _______ _______ _____ _____    ______ ____
ROOT
ATOM      1  C   UNL     1       4.477   4.924  17.435  0.00  0.00    +0.000 A 
ATOM      2  C   UNL     1       3.723   3.744  17.535  0.00  0.00    +0.000 A 
ATOM      3  C   UNL     1       2.470   3.753  18.139  0.00  0.00    +0.000 A 
ATOM      4  C   UNL     1       1.956   4.938  18.666  0.00  0.00    +0.000 A 
ATOM      5  C   UNL     1       2.683   6.127  18.580  0.00  0.00    +0.000 A 
ATOM      6  C   UNL     1       3.935   6.111  17.956  0.00  0.00    +0.000 A 
ENDROOT
BRANCH   5   7
ATOM      7  N   UNL     1       2.259   7.339  19.154  0.00  0.00    +0.000 N 
ATOM      8  C   UNL     1       2.001   8.519  18.489  0.00  0.00    +0.000 C 
ATOM      9  O   UNL     1       2.368   8.766  17.334  0.00  0.00    +0.000 OA
ATOM     10  N   UNL     1       1.193   9.410  19.226  0.00  0.00    +0.000 N 
ATOM     11  C   UNL     1       0.630  10.496  18.575  0.00  0.00    +0.000 C 
ATOM     12  C   UNL     1      -0.279  11.290  19.139  0.00  0.00    +0.000 C 
ATOM     13  C   UNL     1      -0.545  11.124  20.560  0.00  0.00    +0.000 A 
ATOM     14  C   UNL     1      -1.199  12.129  21.278  0.00  0.00    +0.000 A 
ATOM     15  C   UNL     1      -1.452  11.963  22.632  0.00  0.00    +0.000 A 
ATOM     16  C   UNL     1      -1.110  10.762  23.257  0.00  0.00    +0.000 A 
ATOM     17  C   UNL     1      -0.452   9.754  22.541  0.00  0.00    +0.000 A 
ATOM     18  C   UNL     1      -0.100   9.957  21.199  0.00  0.00    +0.000 A 
ATOM     19  N   UNL     1       0.622   8.948  20.483  0.00  0.00    +0.000 N 
ATOM     20  H   UNL     1       2.140   7.397  20.159  0.00  0.00    +0.000 HD
ATOM     21  H   UNL     1      -0.054   8.216  20.252  0.00  0.00    +0.000 HD
ENDBRANCH   5   7
BRANCH   1  23
ATOM     22  C   UNL     1       7.023   4.779  17.807  0.00  0.00    +0.000 C 
ATOM     23  C   UNL     1       5.862   4.870  16.813  0.00  0.00    +0.000 C 
BRANCH  23  24
ATOM     24  S   UNL     1       5.967   3.650  15.445  0.00  0.00    +0.000 S 
BRANCH  24  25
ATOM     25  C   UNL     1       6.902   4.445  14.234  0.00  0.00    +0.000 A 
ATOM     26  N   UNL     1       7.774   5.412  14.412  0.00  0.00    +0.000 NA
ATOM     27  N   UNL     1       8.264   5.780  13.181  0.00  0.00    +0.000 NA
ATOM     28  C   UNL     1       7.650   5.046  12.282  0.00  0.00    +0.000 A 
ATOM     29  N   UNL     1       6.787   4.187  12.898  0.00  0.00    +0.000 N 
ATOM     30  C   UNL     1       5.940   3.244  12.219  0.00  0.00    +0.000 C 
ENDBRANCH  24  25
ENDBRANCH  23  24
ENDBRANCH   1  23
TORSDOF 4
ENDMDL
MODEL 2
REMARK VINA RESULT:      -8.8      3.570      9.627
REMARK  Name = 
REMARK  6 active torsions:
REMARK  status: ('A' for Active; 'I' for Inactive)
REMARK    1  A    between atoms: C_1  and  C_2
REMARK    2  A    between atoms: C_2  and  S_3
REMARK    3  A    between atoms: C_2  and  C_10
REMARK    4  A    between atoms: S_3  and  C_4
REMARK    5  A    between atoms: N_8  and  C_9
REMARK    6  A    between atoms: C_14  and  N_15
REMARK                            x       y       z     vdW  Elec       q    Type
REMARK                         _______ _______ _______ _____ _____    ______ ____
ROOT
ATOM      1  C   UNL     1      -0.251  10.407  20.434  0.00  0.00    +0.000 A 
ATOM      2  C   UNL     1      -0.460  10.454  21.822  0.00  0.00    +0.000 A 
ATOM      3  C   UNL     1       0.240   9.606  22.674  0.00  0.00    +0.000 A 
ATOM      4  C   UNL     1       1.149   8.686  22.153  0.00  0.00    +0.000 A 
ATOM      5  C   UNL     1       1.378   8.616  20.776  0.00  0.00    +0.000 A 
ATOM      6  C   UNL     1       0.682   9.485  19.930  0.00  0.00    +0.000 A 
ENDROOT
BRANCH   5   7
ATOM      7  N   UNL     1       2.223   7.663  20.179  0.00  0.00    +0.000 N 
ATOM      8  C   UNL     1       2.025   6.299  20.136  0.00  0.00    +0.000 C 
ATOM      9  O   UNL     1       1.223   5.686  20.851  0.00  0.00    +0.000 OA
ATOM     10  N   UNL     1       2.772   5.658  19.126  0.00  0.00    +0.000 N 
ATOM     11  C   UNL     1       2.459   4.350  18.790  0.00  0.00    +0.000 C 
ATOM     12  C   UNL     1       2.987   3.724  17.741  0.00  0.00    +0.000 C 
ATOM     13  C   UNL     1       4.083   4.372  17.036  0.00  0.00    +0.000 A 
ATOM     14  C   UNL     1       4.904   3.637  16.177  0.00  0.00    +0.000 A 
ATOM     15  C   UNL     1       5.944   4.263  15.506  0.00  0.00    +0.000 A 
ATOM     16  C   UNL     1       6.125   5.641  15.641  0.00  0.00    +0.000 A 
ATOM     17  C   UNL     1       5.305   6.380  16.503  0.00  0.00    +0.000 A 
ATOM     18  C   UNL     1       4.319   5.736  17.265  0.00  0.00    +0.000 A 
ATOM     19  N   UNL     1       3.518   6.484  18.187  0.00  0.00    +0.000 N 
ATOM     20  H   UNL     1       3.086   7.968  19.745  0.00  0.00    +0.000 HD
ATOM     21  H   UNL     1       2.831   6.994  17.628  0.00  0.00    +0.000 HD
ENDBRANCH   5   7
BRANCH   1  23
ATOM     22  C   UNL     1      -0.396  12.635  19.148  0.00  0.00    +0.000 C 
ATOM     23  C   UNL     1      -1.066  11.312  19.528  0.00  0.00    +0.000 C 
BRANCH  23  24
ATOM     24  S   UNL     1      -1.778  10.410  18.096  0.00  0.00    +0.000 S 
BRANCH  24  25
ATOM     25  C   UNL     1      -3.302  11.171  17.825  0.00  0.00    +0.000 A 
ATOM     26  N   UNL     1      -4.098  11.695  18.730  0.00  0.00    +0.000 NA
ATOM     27  N   UNL     1      -5.223  12.163  18.091  0.00  0.00    +0.000 NA
ATOM     28  C   UNL     1      -5.093  11.879  16.815  0.00  0.00    +0.000 A 
ATOM     29  N   UNL     1      -3.897  11.259  16.600  0.00  0.00    +0.000 N 
ATOM     30  C   UNL     1      -3.429  10.796  15.321  0.00  0.00    +0.000 C 
ENDBRANCH  24  25
ENDBRANCH  23  24
ENDBRANCH   1  23
TORSDOF 4
ENDMDL
MODEL 3
REMARK VINA RESULT:      -8.4      2.488      3.249
REMARK  Name = 
REMARK  6 active torsions:
REMARK  status: ('A' for Active; 'I' for Inactive)
REMARK    1  A    between atoms: C_1  and  C_2
REMARK    2  A    between atoms: C_2  and  S_3
REMARK    3  A    between atoms: C_2  and  C_10
REMARK    4  A    between atoms: S_3  and  C_4
REMARK    5  A    between atoms: N_8  and  C_9
REMARK    6  A    between atoms: C_14  and  N_15
REMARK                            x       y       z     vdW  Elec       q    Type
REMARK                         _______ _______ _______ _____ _____    ______ ____
ROOT
ATOM      1  C   UNL     1       3.343   3.406  19.309  0.00  0.00    +0.000 A 
ATOM      2  C   UNL     1       2.888   2.430  20.211  0.00  0.00    +0.000 A 
ATOM      3  C   UNL     1       2.083   2.783  21.289  0.00  0.00    +0.000 A 
ATOM      4  C   UNL     1       1.730   4.117  21.492  0.00  0.00    +0.000 A 
ATOM      5  C   UNL     1       2.167   5.109  20.610  0.00  0.00    +0.000 A 
ATOM      6  C   UNL     1       2.963   4.741  19.520  0.00  0.00    +0.000 A 
ENDROOT
BRANCH   5   7
ATOM      7  N   UNL     1       1.911   6.479  20.797  0.00  0.00    +0.000 N 
ATOM      8  C   UNL     1       2.026   7.474  19.848  0.00  0.00    +0.000 C 
ATOM      9  O   UNL     1       2.633   7.353  18.778  0.00  0.00    +0.000 OA
ATOM     10  N   UNL     1       1.306   8.641  20.175  0.00  0.00    +0.000 N 
ATOM     11  C   UNL     1       1.105   9.600  19.194  0.00  0.00    +0.000 C 
ATOM     12  C   UNL     1       0.297  10.646  19.355  0.00  0.00    +0.000 C 
ATOM     13  C   UNL     1      -0.242  10.897  20.683  0.00  0.00    +0.000 A 
ATOM     14  C   UNL     1      -0.787  12.144  21.000  0.00  0.00    +0.000 A 
ATOM     15  C   UNL     1      -1.302  12.375  22.268  0.00  0.00    +0.000 A 
ATOM     16  C   UNL     1      -1.334  11.337  23.201  0.00  0.00    +0.000 A 
ATOM     17  C   UNL     1      -0.786  10.086  22.886  0.00  0.00    +0.000 A 
ATOM     18  C   UNL     1      -0.170   9.878  21.644  0.00  0.00    +0.000 A 
ATOM     19  N   UNL     1       0.439   8.617  21.345  0.00  0.00    +0.000 N 
ATOM     20  H   UNL     1       1.633   6.812  21.712  0.00  0.00    +0.000 HD
ATOM     21  H   UNL     1      -0.324   7.968  21.137  0.00  0.00    +0.000 HD
ENDBRANCH   5   7
BRANCH   1  23
ATOM     22  C   UNL     1       3.724   1.884  17.264  0.00  0.00    +0.000 C 
ATOM     23  C   UNL     1       4.261   2.995  18.171  0.00  0.00    +0.000 C 
BRANCH  23  24
ATOM     24  S   UNL     1       4.923   4.440  17.251  0.00  0.00    +0.000 S 
BRANCH  24  25
ATOM     25  C   UNL     1       6.202   5.030  18.247  0.00  0.00    +0.000 A 
ATOM     26  N   UNL     1       6.518   4.624  19.456  0.00  0.00    +0.000 NA
ATOM     27  N   UNL     1       7.576   5.383  19.900  0.00  0.00    +0.000 NA
ATOM     28  C   UNL     1       7.854   6.254  18.957  0.00  0.00    +0.000 A 
ATOM     29  N   UNL     1       7.019   6.066  17.895  0.00  0.00    +0.000 N 
ATOM     30  C   UNL     1       7.032   6.851  16.690  0.00  0.00    +0.000 C 
ENDBRANCH  24  25
ENDBRANCH  23  24
ENDBRANCH   1  23
TORSDOF 4
ENDMDL
MODEL 4
REMARK VINA RESULT:      -8.3      3.596      9.340
REMARK  Name = 
REMARK  6 active torsions:
REMARK  status: ('A' for Active; 'I' for Inactive)
REMARK    1  A    between atoms: C_1  and  C_2
REMARK    2  A    between atoms: C_2  and  S_3
REMARK    3  A    between atoms: C_2  and  C_10
REMARK    4  A    between atoms: S_3  and  C_4
REMARK    5  A    between atoms: N_8  and  C_9
REMARK    6  A    between atoms: C_14  and  N_15
REMARK                            x       y       z     vdW  Elec       q    Type
REMARK                         _______ _______ _______ _____ _____    ______ ____
ROOT
ATOM      1  C   UNL     1      -0.119  10.420  19.973  0.00  0.00    +0.000 A 
ATOM      2  C   UNL     1      -0.543  10.348  21.310  0.00  0.00    +0.000 A 
ATOM      3  C   UNL     1      -0.005   9.399  22.174  0.00  0.00    +0.000 A 
ATOM      4  C   UNL     1       0.955   8.499  21.714  0.00  0.00    +0.000 A 
ATOM      5  C   UNL     1       1.397   8.547  20.389  0.00  0.00    +0.000 A 
ATOM      6  C   UNL     1       0.862   9.515  19.533  0.00  0.00    +0.000 A 
ENDROOT
BRANCH   5   7
ATOM      7  N   UNL     1       2.304   7.623  19.841  0.00  0.00    +0.000 N 
ATOM      8  C   UNL     1       2.246   6.249  19.948  0.00  0.00    +0.000 C 
ATOM      9  O   UNL     1       1.548   5.640  20.767  0.00  0.00    +0.000 OA
ATOM     10  N   UNL     1       3.004   5.581  18.964  0.00  0.00    +0.000 N 
ATOM     11  C   UNL     1       2.811   4.220  18.781  0.00  0.00    +0.000 C 
ATOM     12  C   UNL     1       3.348   3.540  17.770  0.00  0.00    +0.000 C 
ATOM     13  C   UNL     1       4.335   4.214  16.939  0.00  0.00    +0.000 A 
ATOM     14  C   UNL     1       5.184   3.475  16.111  0.00  0.00    +0.000 A 
ATOM     15  C   UNL     1       6.120   4.125  15.319  0.00  0.00    +0.000 A 
ATOM     16  C   UNL     1       6.164   5.520  15.304  0.00  0.00    +0.000 A 
ATOM     17  C   UNL     1       5.316   6.263  16.135  0.00  0.00    +0.000 A 
ATOM     18  C   UNL     1       4.441   5.611  17.015  0.00  0.00    +0.000 A 
ATOM     19  N   UNL     1       3.614   6.370  17.904  0.00  0.00    +0.000 N 
ATOM     20  H   UNL     1       3.109   7.963  19.328  0.00  0.00    +0.000 HD
ATOM     21  H   UNL     1       2.851   6.750  17.338  0.00  0.00    +0.000 HD
ENDBRANCH   5   7
BRANCH   1  23
ATOM     22  C   UNL     1      -2.095  11.005  18.426  0.00  0.00    +0.000 C 
ATOM     23  C   UNL     1      -0.761  11.434  19.043  0.00  0.00    +0.000 C 
BRANCH  23  24
ATOM     24  S   UNL     1      -0.794  13.122  19.767  0.00  0.00    +0.000 S 
BRANCH  24  25
ATOM     25  C   UNL     1       0.814  13.373  20.337  0.00  0.00    +0.000 A 
ATOM     26  N   UNL     1       1.199  13.526  21.584  0.00  0.00    +0.000 NA
ATOM     27  N   UNL     1       2.558  13.736  21.591  0.00  0.00    +0.000 NA
ATOM     28  C   UNL     1       2.958  13.738  20.341  0.00  0.00    +0.000 A 
ATOM     29  N   UNL     1       1.896  13.508  19.515  0.00  0.00    +0.000 N 
ATOM     30  C   UNL     1       1.966  13.455  18.080  0.00  0.00    +0.000 C 
ENDBRANCH  24  25
ENDBRANCH  23  24
ENDBRANCH   1  23
TORSDOF 4
ENDMDL
MODEL 5
REMARK VINA RESULT:      -8.2      2.402      2.950
REMARK  Name = 
REMARK  6 active torsions:
REMARK  status: ('A' for Active; 'I' for Inactive)
REMARK    1  A    between atoms: C_1  and  C_2
REMARK    2  A    between atoms: C_2  and  S_3
REMARK    3  A    between atoms: C_2  and  C_10
REMARK    4  A    between atoms: S_3  and  C_4
REMARK    5  A    between atoms: N_8  and  C_9
REMARK    6  A    between atoms: C_14  and  N_15
REMARK                            x       y       z     vdW  Elec       q    Type
REMARK                         _______ _______ _______ _____ _____    ______ ____
ROOT
ATOM      1  C   UNL     1       3.277   3.715  19.850  0.00  0.00    +0.000 A 
ATOM      2  C   UNL     1       2.231   2.795  20.029  0.00  0.00    +0.000 A 
ATOM      3  C   UNL     1       0.959   3.230  20.386  0.00  0.00    +0.000 A 
ATOM      4  C   UNL     1       0.714   4.588  20.585  0.00  0.00    +0.000 A 
ATOM      5  C   UNL     1       1.735   5.526  20.414  0.00  0.00    +0.000 A 
ATOM      6  C   UNL     1       3.007   5.081  20.039  0.00  0.00    +0.000 A 
ENDROOT
BRANCH   5   7
ATOM      7  N   UNL     1       1.576   6.900  20.671  0.00  0.00    +0.000 N 
ATOM      8  C   UNL     1       1.800   7.934  19.785  0.00  0.00    +0.000 C 
ATOM      9  O   UNL     1       2.433   7.825  18.729  0.00  0.00    +0.000 OA
ATOM     10  N   UNL     1       1.158   9.134  20.155  0.00  0.00    +0.000 N 
ATOM     11  C   UNL     1       1.065  10.157  19.225  0.00  0.00    +0.000 C 
ATOM     12  C   UNL     1       0.333  11.252  19.420  0.00  0.00    +0.000 C 
ATOM     13  C   UNL     1      -0.232  11.471  20.743  0.00  0.00    +0.000 A 
ATOM     14  C   UNL     1      -0.692  12.737  21.114  0.00  0.00    +0.000 A 
ATOM     15  C   UNL     1      -1.233  12.937  22.376  0.00  0.00    +0.000 A 
ATOM     16  C   UNL     1      -1.376  11.855  23.247  0.00  0.00    +0.000 A 
ATOM     17  C   UNL     1      -0.913  10.585  22.879  0.00  0.00    +0.000 A 
ATOM     18  C   UNL     1      -0.271  10.398  21.647  0.00  0.00    +0.000 A 
ATOM     19  N   UNL     1       0.252   9.112  21.294  0.00  0.00    +0.000 N 
ATOM     20  H   UNL     1       1.292   7.203  21.595  0.00  0.00    +0.000 HD
ATOM     21  H   UNL     1      -0.550   8.536  21.026  0.00  0.00    +0.000 HD
ENDBRANCH   5   7
BRANCH   1  23
ATOM     22  C   UNL     1       4.931   1.738  19.865  0.00  0.00    +0.000 C 
ATOM     23  C   UNL     1       4.666   3.204  19.509  0.00  0.00    +0.000 C 
BRANCH  23  24
ATOM     24  S   UNL     1       5.173   3.649  17.801  0.00  0.00    +0.000 S 
BRANCH  24  25
ATOM     25  C   UNL     1       6.301   4.937  18.013  0.00  0.00    +0.000 A 
ATOM     26  N   UNL     1       7.269   5.007  18.898  0.00  0.00    +0.000 NA
ATOM     27  N   UNL     1       7.904   6.217  18.745  0.00  0.00    +0.000 NA
ATOM     28  C   UNL     1       7.281   6.866  17.788  0.00  0.00    +0.000 A 
ATOM     29  N   UNL     1       6.268   6.098  17.293  0.00  0.00    +0.000 N 
ATOM     30  C   UNL     1       5.369   6.497  16.244  0.00  0.00    +0.000 C 
ENDBRANCH  24  25
ENDBRANCH  23  24
ENDBRANCH   1  23
TORSDOF 4
ENDMDL
MODEL 6
REMARK VINA RESULT:      -8.2      3.267      4.710
REMARK  Name = 
REMARK  6 active torsions:
REMARK  status: ('A' for Active; 'I' for Inactive)
REMARK    1  A    between atoms: C_1  and  C_2
REMARK    2  A    between atoms: C_2  and  S_3
REMARK    3  A    between atoms: C_2  and  C_10
REMARK    4  A    between atoms: S_3  and  C_4
REMARK    5  A    between atoms: N_8  and  C_9
REMARK    6  A    between atoms: C_14  and  N_15
REMARK                            x       y       z     vdW  Elec       q    Type
REMARK                         _______ _______ _______ _____ _____    ______ ____
ROOT
ATOM      1  C   UNL     1       2.934   6.712  18.221  0.00  0.00    +0.000 A 
ATOM      2  C   UNL     1       2.616   6.168  19.476  0.00  0.00    +0.000 A 
ATOM      3  C   UNL     1       1.917   6.918  20.417  0.00  0.00    +0.000 A 
ATOM      4  C   UNL     1       1.538   8.228  20.125  0.00  0.00    +0.000 A 
ATOM      5  C   UNL     1       1.840   8.795  18.884  0.00  0.00    +0.000 A 
ATOM      6  C   UNL     1       2.528   8.027  17.939  0.00  0.00    +0.000 A 
ENDROOT
BRANCH   5   7
ATOM      7  N   UNL     1       1.554  10.132  18.553  0.00  0.00    +0.000 N 
ATOM      8  C   UNL     1       0.392  10.819  18.834  0.00  0.00    +0.000 C 
ATOM      9  O   UNL     1      -0.671  10.286  19.173  0.00  0.00    +0.000 OA
ATOM     10  N   UNL     1       0.546  12.220  18.783  0.00  0.00    +0.000 N 
ATOM     11  C   UNL     1      -0.451  13.022  19.314  0.00  0.00    +0.000 C 
ATOM     12  C   UNL     1      -0.320  14.339  19.467  0.00  0.00    +0.000 C 
ATOM     13  C   UNL     1       0.840  14.985  18.873  0.00  0.00    +0.000 A 
ATOM     14  C   UNL     1       0.859  16.370  18.685  0.00  0.00    +0.000 A 
ATOM     15  C   UNL     1       1.970  16.979  18.121  0.00  0.00    +0.000 A 
ATOM     16  C   UNL     1       3.093  16.213  17.804  0.00  0.00    +0.000 A 
ATOM     17  C   UNL     1       3.076  14.824  17.988  0.00  0.00    +0.000 A 
ATOM     18  C   UNL     1       1.919  14.189  18.460  0.00  0.00    +0.000 A 
ATOM     19  N   UNL     1       1.884  12.763  18.596  0.00  0.00    +0.000 N 
ATOM     20  H   UNL     1       2.237  10.671  18.034  0.00  0.00    +0.000 HD
ATOM     21  H   UNL     1       2.418  12.539  19.439  0.00  0.00    +0.000 HD
ENDBRANCH   5   7
BRANCH   1  23
ATOM     22  C   UNL     1       4.793   6.657  16.437  0.00  0.00    +0.000 C 
ATOM     23  C   UNL     1       3.740   5.884  17.236  0.00  0.00    +0.000 C 
BRANCH  23  24
ATOM     24  S   UNL     1       4.377   4.333  17.984  0.00  0.00    +0.000 S 
BRANCH  24  25
ATOM     25  C   UNL     1       5.916   4.770  18.629  0.00  0.00    +0.000 A 
ATOM     26  N   UNL     1       6.172   5.219  19.837  0.00  0.00    +0.000 NA
ATOM     27  N   UNL     1       7.520   5.478  19.922  0.00  0.00    +0.000 NA
ATOM     28  C   UNL     1       8.043   5.209  18.748  0.00  0.00    +0.000 A 
ATOM     29  N   UNL     1       7.073   4.755  17.903  0.00  0.00    +0.000 N 
ATOM     30  C   UNL     1       7.287   4.377  16.532  0.00  0.00    +0.000 C 
ENDBRANCH  24  25
ENDBRANCH  23  24
ENDBRANCH   1  23
TORSDOF 4
ENDMDL
MODEL 7
REMARK VINA RESULT:      -8.2      3.263      4.805
REMARK  Name = 
REMARK  6 active torsions:
REMARK  status: ('A' for Active; 'I' for Inactive)
REMARK    1  A    between atoms: C_1  and  C_2
REMARK    2  A    between atoms: C_2  and  S_3
REMARK    3  A    between atoms: C_2  and  C_10
REMARK    4  A    between atoms: S_3  and  C_4
REMARK    5  A    between atoms: N_8  and  C_9
REMARK    6  A    between atoms: C_14  and  N_15
REMARK                            x       y       z     vdW  Elec       q    Type
REMARK                         _______ _______ _______ _____ _____    ______ ____
ROOT
ATOM      1  C   UNL     1       2.581   6.048  18.907  0.00  0.00    +0.000 A 
ATOM      2  C   UNL     1       2.122   5.690  20.185  0.00  0.00    +0.000 A 
ATOM      3  C   UNL     1       1.490   6.624  20.999  0.00  0.00    +0.000 A 
ATOM      4  C   UNL     1       1.320   7.935  20.557  0.00  0.00    +0.000 A 
ATOM      5  C   UNL     1       1.765   8.321  19.290  0.00  0.00    +0.000 A 
ATOM      6  C   UNL     1       2.384   7.370  18.472  0.00  0.00    +0.000 A 
ENDROOT
BRANCH   5   7
ATOM      7  N   UNL     1       1.693   9.642  18.812  0.00  0.00    +0.000 N 
ATOM      8  C   UNL     1       0.574  10.448  18.789  0.00  0.00    +0.000 C 
ATOM      9  O   UNL     1      -0.585  10.041  18.928  0.00  0.00    +0.000 OA
ATOM     10  N   UNL     1       0.878  11.820  18.674  0.00  0.00    +0.000 N 
ATOM     11  C   UNL     1      -0.120  12.750  18.920  0.00  0.00    +0.000 C 
ATOM     12  C   UNL     1       0.110  14.059  19.006  0.00  0.00    +0.000 C 
ATOM     13  C   UNL     1       1.429  14.548  18.630  0.00  0.00    +0.000 A 
ATOM     14  C   UNL     1       1.627  15.903  18.355  0.00  0.00    +0.000 A 
ATOM     15  C   UNL     1       2.888  16.362  18.000  0.00  0.00    +0.000 A 
ATOM     16  C   UNL     1       3.968  15.477  17.986  0.00  0.00    +0.000 A 
ATOM     17  C   UNL     1       3.771  14.117  18.260  0.00  0.00    +0.000 A 
ATOM     18  C   UNL     1       2.482  13.628  18.515  0.00  0.00    +0.000 A 
ATOM     19  N   UNL     1       2.274  12.229  18.740  0.00  0.00    +0.000 N 
ATOM     20  H   UNL     1       2.519  10.072  18.415  0.00  0.00    +0.000 HD
ATOM     21  H   UNL     1       2.595  12.037  19.692  0.00  0.00    +0.000 HD
ENDBRANCH   5   7
BRANCH   1  23
ATOM     22  C   UNL     1       2.412   4.112  17.214  0.00  0.00    +0.000 C 
ATOM     23  C   UNL     1       3.309   5.018  18.062  0.00  0.00    +0.000 C 
BRANCH  23  24
ATOM     24  S   UNL     1       4.713   5.746  17.129  0.00  0.00    +0.000 S 
BRANCH  24  25
ATOM     25  C   UNL     1       6.042   5.667  18.225  0.00  0.00    +0.000 A 
ATOM     26  N   UNL     1       6.142   4.915  19.298  0.00  0.00    +0.000 NA
ATOM     27  N   UNL     1       7.348   5.187  19.901  0.00  0.00    +0.000 NA
ATOM     28  C   UNL     1       7.935   6.125  19.194  0.00  0.00    +0.000 A 
ATOM     29  N   UNL     1       7.153   6.455  18.126  0.00  0.00    +0.000 N 
ATOM     30  C   UNL     1       7.479   7.455  17.146  0.00  0.00    +0.000 C 
ENDBRANCH  24  25
ENDBRANCH  23  24
ENDBRANCH   1  23
TORSDOF 4
ENDMDL
MODEL 8
REMARK VINA RESULT:      -8.2      3.076      4.658
REMARK  Name = 
REMARK  6 active torsions:
REMARK  status: ('A' for Active; 'I' for Inactive)
REMARK    1  A    between atoms: C_1  and  C_2
REMARK    2  A    between atoms: C_2  and  S_3
REMARK    3  A    between atoms: C_2  and  C_10
REMARK    4  A    between atoms: S_3  and  C_4
REMARK    5  A    between atoms: N_8  and  C_9
REMARK    6  A    between atoms: C_14  and  N_15
REMARK                            x       y       z     vdW  Elec       q    Type
REMARK                         _______ _______ _______ _____ _____    ______ ____
ROOT
ATOM      1  C   UNL     1       2.201   7.356  19.440  0.00  0.00    +0.000 A 
ATOM      2  C   UNL     1       2.189   7.683  18.074  0.00  0.00    +0.000 A 
ATOM      3  C   UNL     1       1.710   8.917  17.644  0.00  0.00    +0.000 A 
ATOM      4  C   UNL     1       1.223   9.839  18.570  0.00  0.00    +0.000 A 
ATOM      5  C   UNL     1       1.223   9.542  19.935  0.00  0.00    +0.000 A 
ATOM      6  C   UNL     1       1.722   8.305  20.358  0.00  0.00    +0.000 A 
ENDROOT
BRANCH   5   7
ATOM      7  N   UNL     1       0.679  10.393  20.914  0.00  0.00    +0.000 N 
ATOM      8  C   UNL     1       1.018  11.711  21.139  0.00  0.00    +0.000 C 
ATOM      9  O   UNL     1       2.038  12.255  20.701  0.00  0.00    +0.000 OA
ATOM     10  N   UNL     1       0.037  12.424  21.859  0.00  0.00    +0.000 N 
ATOM     11  C   UNL     1       0.117  13.807  21.909  0.00  0.00    +0.000 C 
ATOM     12  C   UNL     1      -0.849  14.573  22.413  0.00  0.00    +0.000 C 
ATOM     13  C   UNL     1      -1.943  13.921  23.117  0.00  0.00    +0.000 A 
ATOM     14  C   UNL     1      -2.778  14.657  23.961  0.00  0.00    +0.000 A 
ATOM     15  C   UNL     1      -3.821  14.028  24.626  0.00  0.00    +0.000 A 
ATOM     16  C   UNL     1      -4.072  12.675  24.396  0.00  0.00    +0.000 A 
ATOM     17  C   UNL     1      -3.235  11.933  23.553  0.00  0.00    +0.000 A 
ATOM     18  C   UNL     1      -2.117  12.537  22.960  0.00  0.00    +0.000 A 
ATOM     19  N   UNL     1      -1.231  11.765  22.142  0.00  0.00    +0.000 N 
ATOM     20  H   UNL     1      -0.020  10.032  21.553  0.00  0.00    +0.000 HD
ATOM     21  H   UNL     1      -1.704  11.633  21.244  0.00  0.00    +0.000 HD
ENDBRANCH   5   7
BRANCH   1  23
ATOM     22  C   UNL     1       1.679   5.158  20.680  0.00  0.00    +0.000 C 
ATOM     23  C   UNL     1       2.684   5.983  19.871  0.00  0.00    +0.000 C 
BRANCH  23  24
ATOM     24  S   UNL     1       3.459   5.050  18.491  0.00  0.00    +0.000 S 
BRANCH  24  25
ATOM     25  C   UNL     1       5.152   5.302  18.704  0.00  0.00    +0.000 A 
ATOM     26  N   UNL     1       5.898   4.881  19.700  0.00  0.00    +0.000 NA
ATOM     27  N   UNL     1       7.181   5.331  19.494  0.00  0.00    +0.000 NA
ATOM     28  C   UNL     1       7.173   6.044  18.392  0.00  0.00    +0.000 A 
ATOM     29  N   UNL     1       5.918   6.050  17.856  0.00  0.00    +0.000 N 
ATOM     30  C   UNL     1       5.540   6.742  16.653  0.00  0.00    +0.000 C 
ENDBRANCH  24  25
ENDBRANCH  23  24
ENDBRANCH   1  23
TORSDOF 4
ENDMDL
MODEL 9
REMARK VINA RESULT:      -8.2      3.511      9.337
REMARK  Name = 
REMARK  6 active torsions:
REMARK  status: ('A' for Active; 'I' for Inactive)
REMARK    1  A    between atoms: C_1  and  C_2
REMARK    2  A    between atoms: C_2  and  S_3
REMARK    3  A    between atoms: C_2  and  C_10
REMARK    4  A    between atoms: S_3  and  C_4
REMARK    5  A    between atoms: N_8  and  C_9
REMARK    6  A    between atoms: C_14  and  N_15
REMARK                            x       y       z     vdW  Elec       q    Type
REMARK                         _______ _______ _______ _____ _____    ______ ____
ROOT
ATOM      1  C   UNL     1      -0.091  10.239  19.741  0.00  0.00    +0.000 A 
ATOM      2  C   UNL     1      -0.419  10.260  21.106  0.00  0.00    +0.000 A 
ATOM      3  C   UNL     1       0.211   9.401  22.000  0.00  0.00    +0.000 A 
ATOM      4  C   UNL     1       1.169   8.496  21.544  0.00  0.00    +0.000 A 
ATOM      5  C   UNL     1       1.517   8.453  20.191  0.00  0.00    +0.000 A 
ATOM      6  C   UNL     1       0.889   9.333  19.303  0.00  0.00    +0.000 A 
ENDROOT
BRANCH   5   7
ATOM      7  N   UNL     1       2.418   7.518  19.652  0.00  0.00    +0.000 N 
ATOM      8  C   UNL     1       2.332   6.144  19.744  0.00  0.00    +0.000 C 
ATOM      9  O   UNL     1       1.606   5.541  20.544  0.00  0.00    +0.000 OA
ATOM     10  N   UNL     1       3.097   5.470  18.770  0.00  0.00    +0.000 N 
ATOM     11  C   UNL     1       2.882   4.116  18.570  0.00  0.00    +0.000 C 
ATOM     12  C   UNL     1       3.428   3.435  17.563  0.00  0.00    +0.000 C 
ATOM     13  C   UNL     1       4.443   4.097  16.759  0.00  0.00    +0.000 A 
ATOM     14  C   UNL     1       5.295   3.350  15.941  0.00  0.00    +0.000 A 
ATOM     15  C   UNL     1       6.259   3.990  15.175  0.00  0.00    +0.000 A 
ATOM     16  C   UNL     1       6.330   5.384  15.174  0.00  0.00    +0.000 A 
ATOM     17  C   UNL     1       5.479   6.135  15.995  0.00  0.00    +0.000 A 
ATOM     18  C   UNL     1       4.574   5.491  16.851  0.00  0.00    +0.000 A 
ATOM     19  N   UNL     1       3.744   6.258  17.730  0.00  0.00    +0.000 N 
ATOM     20  H   UNL     1       3.239   7.847  19.159  0.00  0.00    +0.000 HD
ATOM     21  H   UNL     1       2.999   6.657  17.153  0.00  0.00    +0.000 HD
ENDBRANCH   5   7
BRANCH   1  23
ATOM     22  C   UNL     1      -2.225  10.677  18.364  0.00  0.00    +0.000 C 
ATOM     23  C   UNL     1      -0.833  11.156  18.784  0.00  0.00    +0.000 C 
BRANCH  23  24
ATOM     24  S   UNL     1      -0.789  12.910  19.323  0.00  0.00    +0.000 S 
BRANCH  24  25
ATOM     25  C   UNL     1       0.880  13.340  19.245  0.00  0.00    +0.000 A 
ATOM     26  N   UNL     1       1.710  13.119  18.251  0.00  0.00    +0.000 NA
ATOM     27  N   UNL     1       2.950  13.589  18.615  0.00  0.00    +0.000 NA
ATOM     28  C   UNL     1       2.846  14.055  19.839  0.00  0.00    +0.000 A 
ATOM     29  N   UNL     1       1.560  13.924  20.275  0.00  0.00    +0.000 N 
ATOM     30  C   UNL     1       1.088  14.320  21.574  0.00  0.00    +0.000 C 
ENDBRANCH  24  25
ENDBRANCH  23  24
ENDBRANCH   1  23
TORSDOF 4
ENDMDL
