MODEL 1
REMARK VINA RESULT:      -8.8      0.000      0.000
REMARK  Name = 
REMARK  3 active torsions:
REMARK  status: ('A' for Active; 'I' for Inactive)
REMARK    1  A    between atoms: C_2  and  C_18
REMARK    2  A    between atoms: N_3  and  C_4
REMARK    3  A    between atoms: C_9  and  N_10
REMARK                            x       y       z     vdW  Elec       q    Type
REMARK                         _______ _______ _______ _____ _____    ______ ____
ROOT
ATOM      1  C   UNL     1       4.691   5.587  16.340  0.00  0.00    +0.000 A 
ATOM      2  C   UNL     1       5.394   6.000  15.194  0.00  0.00    +0.000 A 
ATOM      3  C   UNL     1       6.305   5.170  14.543  0.00  0.00    +0.000 A 
ATOM      4  C   UNL     1       6.541   3.900  15.040  0.00  0.00    +0.000 A 
ATOM      5  C   UNL     1       5.867   3.465  16.182  0.00  0.00    +0.000 A 
ATOM      6  C   UNL     1       4.947   4.288  16.858  0.00  0.00    +0.000 A 
ENDROOT
BRANCH   6   7
ATOM      7  N   UNL     1       4.237   3.808  17.996  0.00  0.00    +0.000 N 
ATOM      8  C   UNL     1       2.940   3.338  18.033  0.00  0.00    +0.000 C 
ATOM      9  O   UNL     1       2.225   3.137  17.054  0.00  0.00    +0.000 OA
ATOM     10  N   UNL     1       2.437   3.109  19.298  0.00  0.00    +0.000 N 
ATOM     11  C   UNL     1       3.092   3.229  20.586  0.00  0.00    +0.000 C 
ATOM     12  C   UNL     1       2.178   2.469  21.532  0.00  0.00    +0.000 C 
ATOM     13  C   UNL     1       0.787   2.710  20.959  0.00  0.00    +0.000 C 
ATOM     14  C   UNL     1       1.017   2.840  19.459  0.00  0.00    +0.000 C 
ATOM     15  H   UNL     1       4.721   3.836  18.873  0.00  0.00    +0.000 HD
ENDBRANCH   6   7
BRANCH   1  18
ATOM     16  O   UNL     1       4.430   6.319  19.220  0.00  0.00    +0.000 OA
ATOM     17  C   UNL     1       3.695   6.744  18.333  0.00  0.00    +0.000 C 
ATOM     18  N   UNL     1       3.771   6.464  16.974  0.00  0.00    +0.000 N 
ATOM     19  H   UNL     1       3.088   6.953  16.411  0.00  0.00    +0.000 HD
BRANCH  17  20
ATOM     20  C   UNL     1       2.602   7.694  18.711  0.00  0.00    +0.000 A 
ATOM     21  C   UNL     1       2.168   8.616  17.770  0.00  0.00    +0.000 A 
ATOM     22  C   UNL     1       1.225   9.553  18.159  0.00  0.00    +0.000 A 
ATOM     23  C   UNL     1       0.812   9.591  19.492  0.00  0.00    +0.000 A 
ATOM     24  C   UNL     1       0.000  10.638  19.957  0.00  0.00    +0.000 A 
ATOM     25  C   UNL     1      -0.343  10.710  21.303  0.00  0.00    +0.000 A 
ATOM     26  C   UNL     1       0.069   9.705  22.171  0.00  0.00    +0.000 A 
ATOM     27  C   UNL     1       0.857   8.649  21.699  0.00  0.00    +0.000 A 
ATOM     28  C   UNL     1       1.277   8.586  20.375  0.00  0.00    +0.000 A 
ATOM     29  N   UNL     1       2.131   7.618  19.988  0.00  0.00    +0.000 NA
ENDBRANCH  17  20
ENDBRANCH   1  18
TORSDOF 3
ENDMDL
MODEL 2
REMARK VINA RESULT:      -8.5      2.170      4.270
REMARK  Name = 
REMARK  3 active torsions:
REMARK  status: ('A' for Active; 'I' for Inactive)
REMARK    1  A    between atoms: C_2  and  C_18
REMARK    2  A    between atoms: N_3  and  C_4
REMARK    3  A    between atoms: C_9  and  N_10
REMARK                            x       y       z     vdW  Elec       q    Type
REMARK                         _______ _______ _______ _____ _____    ______ ____
ROOT
ATOM      1  C   UNL     1       2.127   4.425  18.258  0.00  0.00    +0.000 A 
ATOM      2  C   UNL     1       1.096   3.495  18.477  0.00  0.00    +0.000 A 
ATOM      3  C   UNL     1       1.311   2.119  18.411  0.00  0.00    +0.000 A 
ATOM      4  C   UNL     1       2.576   1.644  18.110  0.00  0.00    +0.000 A 
ATOM      5  C   UNL     1       3.617   2.543  17.877  0.00  0.00    +0.000 A 
ATOM      6  C   UNL     1       3.421   3.935  17.934  0.00  0.00    +0.000 A 
ENDROOT
BRANCH   6   7
ATOM      7  N   UNL     1       4.509   4.833  17.736  0.00  0.00    +0.000 N 
ATOM      8  C   UNL     1       5.698   4.871  18.437  0.00  0.00    +0.000 C 
ATOM      9  O   UNL     1       6.064   4.042  19.268  0.00  0.00    +0.000 OA
ATOM     10  N   UNL     1       6.503   5.959  18.165  0.00  0.00    +0.000 N 
ATOM     11  C   UNL     1       6.311   7.032  17.209  0.00  0.00    +0.000 C 
ATOM     12  C   UNL     1       7.685   7.669  17.095  0.00  0.00    +0.000 C 
ATOM     13  C   UNL     1       8.271   7.510  18.492  0.00  0.00    +0.000 C 
ATOM     14  C   UNL     1       7.658   6.217  19.012  0.00  0.00    +0.000 C 
ATOM     15  H   UNL     1       4.392   5.533  17.028  0.00  0.00    +0.000 HD
ENDBRANCH   6   7
BRANCH   1  18
ATOM     16  O   UNL     1       3.086   6.439  20.239  0.00  0.00    +0.000 OA
ATOM     17  C   UNL     1       2.334   6.698  19.304  0.00  0.00    +0.000 C 
ATOM     18  N   UNL     1       1.866   5.820  18.334  0.00  0.00    +0.000 N 
ATOM     19  H   UNL     1       1.286   6.251  17.628  0.00  0.00    +0.000 HD
BRANCH  17  20
ATOM     20  C   UNL     1       1.872   8.111  19.136  0.00  0.00    +0.000 A 
ATOM     21  C   UNL     1       2.188   8.779  17.961  0.00  0.00    +0.000 A 
ATOM     22  C   UNL     1       1.838  10.115  17.855  0.00  0.00    +0.000 A 
ATOM     23  C   UNL     1       1.266  10.760  18.953  0.00  0.00    +0.000 A 
ATOM     24  C   UNL     1       1.069  12.149  18.941  0.00  0.00    +0.000 A 
ATOM     25  C   UNL     1       0.569  12.793  20.068  0.00  0.00    +0.000 A 
ATOM     26  C   UNL     1       0.205  12.045  21.181  0.00  0.00    +0.000 A 
ATOM     27  C   UNL     1       0.378  10.656  21.180  0.00  0.00    +0.000 A 
ATOM     28  C   UNL     1       0.942   9.991  20.098  0.00  0.00    +0.000 A 
ATOM     29  N   UNL     1       1.200   8.671  20.182  0.00  0.00    +0.000 NA
ENDBRANCH  17  20
ENDBRANCH   1  18
TORSDOF 3
ENDMDL
MODEL 3
REMARK VINA RESULT:      -8.3      1.715      7.561
REMARK  Name = 
REMARK  3 active torsions:
REMARK  status: ('A' for Active; 'I' for Inactive)
REMARK    1  A    between atoms: C_2  and  C_18
REMARK    2  A    between atoms: N_3  and  C_4
REMARK    3  A    between atoms: C_9  and  N_10
REMARK                            x       y       z     vdW  Elec       q    Type
REMARK                         _______ _______ _______ _____ _____    ______ ____
ROOT
ATOM      1  C   UNL     1       3.523   3.743  19.708  0.00  0.00    +0.000 A 
ATOM      2  C   UNL     1       3.549   2.480  20.326  0.00  0.00    +0.000 A 
ATOM      3  C   UNL     1       2.729   2.168  21.409  0.00  0.00    +0.000 A 
ATOM      4  C   UNL     1       1.867   3.129  21.908  0.00  0.00    +0.000 A 
ATOM      5  C   UNL     1       1.827   4.395  21.323  0.00  0.00    +0.000 A 
ATOM      6  C   UNL     1       2.649   4.734  20.232  0.00  0.00    +0.000 A 
ENDROOT
BRANCH   6   7
ATOM      7  N   UNL     1       2.559   6.019  19.623  0.00  0.00    +0.000 N 
ATOM      8  C   UNL     1       1.961   7.149  20.143  0.00  0.00    +0.000 C 
ATOM      9  O   UNL     1       1.517   7.261  21.284  0.00  0.00    +0.000 OA
ATOM     10  N   UNL     1       1.855   8.210  19.266  0.00  0.00    +0.000 N 
ATOM     11  C   UNL     1       2.335   8.332  17.904  0.00  0.00    +0.000 C 
ATOM     12  C   UNL     1       2.280   9.825  17.630  0.00  0.00    +0.000 C 
ATOM     13  C   UNL     1       1.075  10.294  18.436  0.00  0.00    +0.000 C 
ATOM     14  C   UNL     1       1.038   9.356  19.635  0.00  0.00    +0.000 C 
ATOM     15  H   UNL     1       2.951   6.110  18.705  0.00  0.00    +0.000 HD
ENDBRANCH   6   7
BRANCH   1  18
ATOM     16  O   UNL     1       3.020   3.433  16.784  0.00  0.00    +0.000 OA
ATOM     17  C   UNL     1       4.079   3.833  17.261  0.00  0.00    +0.000 C 
ATOM     18  N   UNL     1       4.375   4.022  18.606  0.00  0.00    +0.000 N 
ATOM     19  H   UNL     1       5.298   4.399  18.779  0.00  0.00    +0.000 HD
BRANCH  17  20
ATOM     20  C   UNL     1       5.187   4.196  16.324  0.00  0.00    +0.000 A 
ATOM     21  C   UNL     1       6.087   5.181  16.709  0.00  0.00    +0.000 A 
ATOM     22  C   UNL     1       7.051   5.577  15.797  0.00  0.00    +0.000 A 
ATOM     23  C   UNL     1       7.031   5.042  14.507  0.00  0.00    +0.000 A 
ATOM     24  C   UNL     1       7.875   5.554  13.510  0.00  0.00    +0.000 A 
ATOM     25  C   UNL     1       7.795   5.067  12.210  0.00  0.00    +0.000 A 
ATOM     26  C   UNL     1       6.919   4.026  11.919  0.00  0.00    +0.000 A 
ATOM     27  C   UNL     1       6.097   3.501  12.923  0.00  0.00    +0.000 A 
ATOM     28  C   UNL     1       6.102   4.013  14.214  0.00  0.00    +0.000 A 
ATOM     29  N   UNL     1       5.213   3.559  15.120  0.00  0.00    +0.000 NA
ENDBRANCH  17  20
ENDBRANCH   1  18
TORSDOF 3
ENDMDL
MODEL 4
REMARK VINA RESULT:      -8.0      1.837      7.446
REMARK  Name = 
REMARK  3 active torsions:
REMARK  status: ('A' for Active; 'I' for Inactive)
REMARK    1  A    between atoms: C_2  and  C_18
REMARK    2  A    between atoms: N_3  and  C_4
REMARK    3  A    between atoms: C_9  and  N_10
REMARK                            x       y       z     vdW  Elec       q    Type
REMARK                         _______ _______ _______ _____ _____    ______ ____
ROOT
ATOM      1  C   UNL     1       2.979   3.571  19.099  0.00  0.00    +0.000 A 
ATOM      2  C   UNL     1       2.823   2.263  19.589  0.00  0.00    +0.000 A 
ATOM      3  C   UNL     1       1.907   1.951  20.593  0.00  0.00    +0.000 A 
ATOM      4  C   UNL     1       1.130   2.957  21.139  0.00  0.00    +0.000 A 
ATOM      5  C   UNL     1       1.270   4.268  20.681  0.00  0.00    +0.000 A 
ATOM      6  C   UNL     1       2.191   4.606  19.672  0.00  0.00    +0.000 A 
ENDROOT
BRANCH   6   7
ATOM      7  N   UNL     1       2.285   5.943  19.189  0.00  0.00    +0.000 N 
ATOM      8  C   UNL     1       1.886   7.095  19.838  0.00  0.00    +0.000 C 
ATOM      9  O   UNL     1       1.498   7.161  21.002  0.00  0.00    +0.000 OA
ATOM     10  N   UNL     1       1.921   8.241  19.068  0.00  0.00    +0.000 N 
ATOM     11  C   UNL     1       2.374   8.421  17.703  0.00  0.00    +0.000 C 
ATOM     12  C   UNL     1       2.545   9.925  17.571  0.00  0.00    +0.000 C 
ATOM     13  C   UNL     1       1.453  10.490  18.470  0.00  0.00    +0.000 C 
ATOM     14  C   UNL     1       1.304   9.456  19.577  0.00  0.00    +0.000 C 
ATOM     15  H   UNL     1       2.659   6.063  18.267  0.00  0.00    +0.000 HD
ENDBRANCH   6   7
BRANCH   1  18
ATOM     16  O   UNL     1       5.855   4.333  19.313  0.00  0.00    +0.000 OA
ATOM     17  C   UNL     1       5.252   4.218  18.250  0.00  0.00    +0.000 C 
ATOM     18  N   UNL     1       3.924   3.848  18.074  0.00  0.00    +0.000 N 
ATOM     19  H   UNL     1       3.637   3.776  17.107  0.00  0.00    +0.000 HD
BRANCH  17  20
ATOM     20  C   UNL     1       6.000   4.467  16.978  0.00  0.00    +0.000 A 
ATOM     21  C   UNL     1       6.883   5.537  16.925  0.00  0.00    +0.000 A 
ATOM     22  C   UNL     1       7.499   5.817  15.716  0.00  0.00    +0.000 A 
ATOM     23  C   UNL     1       7.149   5.076  14.586  0.00  0.00    +0.000 A 
ATOM     24  C   UNL     1       7.615   5.451  13.316  0.00  0.00    +0.000 A 
ATOM     25  C   UNL     1       7.200   4.754  12.186  0.00  0.00    +0.000 A 
ATOM     26  C   UNL     1       6.373   3.646  12.329  0.00  0.00    +0.000 A 
ATOM     27  C   UNL     1       5.930   3.259  13.599  0.00  0.00    +0.000 A 
ATOM     28  C   UNL     1       6.269   3.977  14.740  0.00  0.00    +0.000 A 
ATOM     29  N   UNL     1       5.728   3.642  15.928  0.00  0.00    +0.000 NA
ENDBRANCH  17  20
ENDBRANCH   1  18
TORSDOF 3
ENDMDL
MODEL 5
REMARK VINA RESULT:      -8.0      1.336      2.011
REMARK  Name = 
REMARK  3 active torsions:
REMARK  status: ('A' for Active; 'I' for Inactive)
REMARK    1  A    between atoms: C_2  and  C_18
REMARK    2  A    between atoms: N_3  and  C_4
REMARK    3  A    between atoms: C_9  and  N_10
REMARK                            x       y       z     vdW  Elec       q    Type
REMARK                         _______ _______ _______ _____ _____    ______ ____
ROOT
ATOM      1  C   UNL     1       4.116   6.463  17.290  0.00  0.00    +0.000 A 
ATOM      2  C   UNL     1       4.625   7.200  16.207  0.00  0.00    +0.000 A 
ATOM      3  C   UNL     1       5.365   6.604  15.187  0.00  0.00    +0.000 A 
ATOM      4  C   UNL     1       5.621   5.245  15.239  0.00  0.00    +0.000 A 
ATOM      5  C   UNL     1       5.138   4.489  16.308  0.00  0.00    +0.000 A 
ATOM      6  C   UNL     1       4.394   5.070  17.351  0.00  0.00    +0.000 A 
ENDROOT
BRANCH   6   7
ATOM      7  N   UNL     1       3.873   4.271  18.409  0.00  0.00    +0.000 N 
ATOM      8  C   UNL     1       2.545   4.096  18.746  0.00  0.00    +0.000 C 
ATOM      9  O   UNL     1       1.584   4.506  18.100  0.00  0.00    +0.000 OA
ATOM     10  N   UNL     1       2.328   3.418  19.929  0.00  0.00    +0.000 N 
ATOM     11  C   UNL     1       3.285   2.809  20.832  0.00  0.00    +0.000 C 
ATOM     12  C   UNL     1       2.436   1.893  21.699  0.00  0.00    +0.000 C 
ATOM     13  C   UNL     1       1.109   2.633  21.810  0.00  0.00    +0.000 C 
ATOM     14  C   UNL     1       0.987   3.385  20.492  0.00  0.00    +0.000 C 
ATOM     15  H   UNL     1       4.541   3.803  18.990  0.00  0.00    +0.000 HD
ENDBRANCH   6   7
BRANCH   1  18
ATOM     16  O   UNL     1       2.117   8.668  17.082  0.00  0.00    +0.000 OA
ATOM     17  C   UNL     1       2.461   8.150  18.140  0.00  0.00    +0.000 C 
ATOM     18  N   UNL     1       3.366   7.109  18.310  0.00  0.00    +0.000 N 
ATOM     19  H   UNL     1       3.474   6.805  19.269  0.00  0.00    +0.000 HD
BRANCH  17  20
ATOM     20  C   UNL     1       1.838   8.644  19.408  0.00  0.00    +0.000 A 
ATOM     21  C   UNL     1       1.774   7.784  20.496  0.00  0.00    +0.000 A 
ATOM     22  C   UNL     1       1.111   8.217  21.632  0.00  0.00    +0.000 A 
ATOM     23  C   UNL     1       0.462   9.454  21.614  0.00  0.00    +0.000 A 
ATOM     24  C   UNL     1      -0.367   9.839  22.678  0.00  0.00    +0.000 A 
ATOM     25  C   UNL     1      -1.069  11.038  22.618  0.00  0.00    +0.000 A 
ATOM     26  C   UNL     1      -0.894  11.881  21.526  0.00  0.00    +0.000 A 
ATOM     27  C   UNL     1      -0.046  11.505  20.478  0.00  0.00    +0.000 A 
ATOM     28  C   UNL     1       0.614  10.282  20.475  0.00  0.00    +0.000 A 
ATOM     29  N   UNL     1       1.327   9.907  19.394  0.00  0.00    +0.000 NA
ENDBRANCH  17  20
ENDBRANCH   1  18
TORSDOF 3
ENDMDL
MODEL 6
REMARK VINA RESULT:      -8.0      2.230      4.557
REMARK  Name = 
REMARK  3 active torsions:
REMARK  status: ('A' for Active; 'I' for Inactive)
REMARK    1  A    between atoms: C_2  and  C_18
REMARK    2  A    between atoms: N_3  and  C_4
REMARK    3  A    between atoms: C_9  and  N_10
REMARK                            x       y       z     vdW  Elec       q    Type
REMARK                         _______ _______ _______ _____ _____    ______ ____
ROOT
ATOM      1  C   UNL     1       2.136   4.421  18.639  0.00  0.00    +0.000 A 
ATOM      2  C   UNL     1       1.126   3.462  18.832  0.00  0.00    +0.000 A 
ATOM      3  C   UNL     1       1.283   2.132  18.447  0.00  0.00    +0.000 A 
ATOM      4  C   UNL     1       2.464   1.734  17.844  0.00  0.00    +0.000 A 
ATOM      5  C   UNL     1       3.480   2.666  17.628  0.00  0.00    +0.000 A 
ATOM      6  C   UNL     1       3.341   4.015  18.004  0.00  0.00    +0.000 A 
ENDROOT
BRANCH   6   7
ATOM      7  N   UNL     1       4.409   4.939  17.815  0.00  0.00    +0.000 N 
ATOM      8  C   UNL     1       5.661   4.897  18.395  0.00  0.00    +0.000 C 
ATOM      9  O   UNL     1       6.102   3.973  19.076  0.00  0.00    +0.000 OA
ATOM     10  N   UNL     1       6.441   6.016  18.184  0.00  0.00    +0.000 N 
ATOM     11  C   UNL     1       6.161   7.198  17.393  0.00  0.00    +0.000 C 
ATOM     12  C   UNL     1       7.521   7.855  17.225  0.00  0.00    +0.000 C 
ATOM     13  C   UNL     1       8.241   7.526  18.527  0.00  0.00    +0.000 C 
ATOM     14  C   UNL     1       7.674   6.175  18.939  0.00  0.00    +0.000 C 
ATOM     15  H   UNL     1       4.227   5.720  17.215  0.00  0.00    +0.000 HD
ENDBRANCH   6   7
BRANCH   1  18
ATOM     16  O   UNL     1       2.094   5.599  21.380  0.00  0.00    +0.000 OA
ATOM     17  C   UNL     1       1.910   6.244  20.351  0.00  0.00    +0.000 C 
ATOM     18  N   UNL     1       1.936   5.768  19.046  0.00  0.00    +0.000 N 
ATOM     19  H   UNL     1       1.798   6.480  18.341  0.00  0.00    +0.000 HD
BRANCH  17  20
ATOM     20  C   UNL     1       1.655   7.713  20.471  0.00  0.00    +0.000 A 
ATOM     21  C   UNL     1       1.255   8.220  21.700  0.00  0.00    +0.000 A 
ATOM     22  C   UNL     1       0.930   9.564  21.778  0.00  0.00    +0.000 A 
ATOM     23  C   UNL     1       0.932  10.335  20.613  0.00  0.00    +0.000 A 
ATOM     24  C   UNL     1       0.435  11.647  20.626  0.00  0.00    +0.000 A 
ATOM     25  C   UNL     1       0.370  12.381  19.446  0.00  0.00    +0.000 A 
ATOM     26  C   UNL     1       0.861  11.829  18.267  0.00  0.00    +0.000 A 
ATOM     27  C   UNL     1       1.380  10.530  18.264  0.00  0.00    +0.000 A 
ATOM     28  C   UNL     1       1.393   9.745  19.411  0.00  0.00    +0.000 A 
ATOM     29  N   UNL     1       1.792   8.459  19.339  0.00  0.00    +0.000 NA
ENDBRANCH  17  20
ENDBRANCH   1  18
TORSDOF 3
ENDMDL
MODEL 7
REMARK VINA RESULT:      -7.9      4.028      9.354
REMARK  Name = 
REMARK  3 active torsions:
REMARK  status: ('A' for Active; 'I' for Inactive)
REMARK    1  A    between atoms: C_2  and  C_18
REMARK    2  A    between atoms: N_3  and  C_4
REMARK    3  A    between atoms: C_9  and  N_10
REMARK                            x       y       z     vdW  Elec       q    Type
REMARK                         _______ _______ _______ _____ _____    ______ ____
ROOT
ATOM      1  C   UNL     1       0.053  11.559  21.648  0.00  0.00    +0.000 A 
ATOM      2  C   UNL     1      -1.017  11.206  22.487  0.00  0.00    +0.000 A 
ATOM      3  C   UNL     1      -1.762  12.159  23.180  0.00  0.00    +0.000 A 
ATOM      4  C   UNL     1      -1.437  13.499  23.052  0.00  0.00    +0.000 A 
ATOM      5  C   UNL     1      -0.372  13.879  22.234  0.00  0.00    +0.000 A 
ATOM      6  C   UNL     1       0.396  12.934  21.530  0.00  0.00    +0.000 A 
ENDROOT
BRANCH   6   7
ATOM      7  N   UNL     1       1.450  13.348  20.666  0.00  0.00    +0.000 N 
ATOM      8  C   UNL     1       2.626  13.975  21.027  0.00  0.00    +0.000 C 
ATOM      9  O   UNL     1       3.011  14.163  22.179  0.00  0.00    +0.000 OA
ATOM     10  N   UNL     1       3.391  14.433  19.973  0.00  0.00    +0.000 N 
ATOM     11  C   UNL     1       3.172  14.296  18.547  0.00  0.00    +0.000 C 
ATOM     12  C   UNL     1       4.522  14.633  17.936  0.00  0.00    +0.000 C 
ATOM     13  C   UNL     1       5.092  15.681  18.883  0.00  0.00    +0.000 C 
ATOM     14  C   UNL     1       4.522  15.307  20.244  0.00  0.00    +0.000 C 
ATOM     15  H   UNL     1       1.317  13.191  19.686  0.00  0.00    +0.000 HD
ENDBRANCH   6   7
BRANCH   1  18
ATOM     16  O   UNL     1      -0.355  10.434  18.915  0.00  0.00    +0.000 OA
ATOM     17  C   UNL     1       0.526  10.065  19.685  0.00  0.00    +0.000 C 
ATOM     18  N   UNL     1       0.788  10.556  20.958  0.00  0.00    +0.000 N 
ATOM     19  H   UNL     1       1.590  10.136  21.409  0.00  0.00    +0.000 HD
BRANCH  17  20
ATOM     20  C   UNL     1       1.462   8.990  19.230  0.00  0.00    +0.000 A 
ATOM     21  C   UNL     1       2.045   9.104  17.976  0.00  0.00    +0.000 A 
ATOM     22  C   UNL     1       2.834   8.058  17.525  0.00  0.00    +0.000 A 
ATOM     23  C   UNL     1       2.943   6.902  18.301  0.00  0.00    +0.000 A 
ATOM     24  C   UNL     1       3.581   5.761  17.792  0.00  0.00    +0.000 A 
ATOM     25  C   UNL     1       3.619   4.590  18.541  0.00  0.00    +0.000 A 
ATOM     26  C   UNL     1       3.076   4.577  19.822  0.00  0.00    +0.000 A 
ATOM     27  C   UNL     1       2.463   5.725  20.336  0.00  0.00    +0.000 A 
ATOM     28  C   UNL     1       2.346   6.889  19.585  0.00  0.00    +0.000 A 
ATOM     29  N   UNL     1       1.646   7.933  20.071  0.00  0.00    +0.000 NA
ENDBRANCH  17  20
ENDBRANCH   1  18
TORSDOF 3
ENDMDL
MODEL 8
REMARK VINA RESULT:      -7.8      1.069      1.681
REMARK  Name = 
REMARK  3 active torsions:
REMARK  status: ('A' for Active; 'I' for Inactive)
REMARK    1  A    between atoms: C_2  and  C_18
REMARK    2  A    between atoms: N_3  and  C_4
REMARK    3  A    between atoms: C_9  and  N_10
REMARK                            x       y       z     vdW  Elec       q    Type
REMARK                         _______ _______ _______ _____ _____    ______ ____
ROOT
ATOM      1  C   UNL     1       4.588   6.013  16.841  0.00  0.00    +0.000 A 
ATOM      2  C   UNL     1       5.180   6.507  15.666  0.00  0.00    +0.000 A 
ATOM      3  C   UNL     1       5.881   5.685  14.786  0.00  0.00    +0.000 A 
ATOM      4  C   UNL     1       6.014   4.338  15.075  0.00  0.00    +0.000 A 
ATOM      5  C   UNL     1       5.446   3.819  16.240  0.00  0.00    +0.000 A 
ATOM      6  C   UNL     1       4.739   4.632  17.144  0.00  0.00    +0.000 A 
ENDROOT
BRANCH   6   7
ATOM      7  N   UNL     1       4.130   4.073  18.305  0.00  0.00    +0.000 N 
ATOM      8  C   UNL     1       2.966   3.333  18.362  0.00  0.00    +0.000 C 
ATOM      9  O   UNL     1       2.330   2.926  17.392  0.00  0.00    +0.000 OA
ATOM     10  N   UNL     1       2.502   3.071  19.635  0.00  0.00    +0.000 N 
ATOM     11  C   UNL     1       3.090   3.404  20.917  0.00  0.00    +0.000 C 
ATOM     12  C   UNL     1       2.347   2.517  21.902  0.00  0.00    +0.000 C 
ATOM     13  C   UNL     1       0.948   2.415  21.307  0.00  0.00    +0.000 C 
ATOM     14  C   UNL     1       1.171   2.507  19.804  0.00  0.00    +0.000 C 
ATOM     15  H   UNL     1       4.580   4.256  19.181  0.00  0.00    +0.000 HD
ENDBRANCH   6   7
BRANCH   1  18
ATOM     16  O   UNL     1       1.699   6.037  17.583  0.00  0.00    +0.000 OA
ATOM     17  C   UNL     1       2.521   6.849  17.997  0.00  0.00    +0.000 C 
ATOM     18  N   UNL     1       3.881   6.885  17.713  0.00  0.00    +0.000 N 
ATOM     19  H   UNL     1       4.387   7.617  18.193  0.00  0.00    +0.000 HD
BRANCH  17  20
ATOM     20  C   UNL     1       2.056   7.914  18.939  0.00  0.00    +0.000 A 
ATOM     21  C   UNL     1       1.888   7.590  20.278  0.00  0.00    +0.000 A 
ATOM     22  C   UNL     1       1.366   8.556  21.123  0.00  0.00    +0.000 A 
ATOM     23  C   UNL     1       0.950   9.777  20.589  0.00  0.00    +0.000 A 
ATOM     24  C   UNL     1       0.253  10.702  21.381  0.00  0.00    +0.000 A 
ATOM     25  C   UNL     1      -0.224  11.882  20.822  0.00  0.00    +0.000 A 
ATOM     26  C   UNL     1       0.050  12.169  19.489  0.00  0.00    +0.000 A 
ATOM     27  C   UNL     1       0.768  11.256  18.708  0.00  0.00    +0.000 A 
ATOM     28  C   UNL     1       1.196  10.037  19.218  0.00  0.00    +0.000 A 
ATOM     29  N   UNL     1       1.781   9.136  18.402  0.00  0.00    +0.000 NA
ENDBRANCH  17  20
ENDBRANCH   1  18
TORSDOF 3
ENDMDL
MODEL 9
REMARK VINA RESULT:      -7.8      1.333      1.334
REMARK  Name = 
REMARK  3 active torsions:
REMARK  status: ('A' for Active; 'I' for Inactive)
REMARK    1  A    between atoms: C_2  and  C_18
REMARK    2  A    between atoms: N_3  and  C_4
REMARK    3  A    between atoms: C_9  and  N_10
REMARK                            x       y       z     vdW  Elec       q    Type
REMARK                         _______ _______ _______ _____ _____    ______ ____
ROOT
ATOM      1  C   UNL     1       5.346   6.399  17.771  0.00  0.00    +0.000 A 
ATOM      2  C   UNL     1       6.260   6.899  16.827  0.00  0.00    +0.000 A 
ATOM      3  C   UNL     1       7.312   6.128  16.333  0.00  0.00    +0.000 A 
ATOM      4  C   UNL     1       7.476   4.832  16.788  0.00  0.00    +0.000 A 
ATOM      5  C   UNL     1       6.591   4.312  17.734  0.00  0.00    +0.000 A 
ATOM      6  C   UNL     1       5.526   5.073  18.250  0.00  0.00    +0.000 A 
ENDROOT
BRANCH   6   7
ATOM      7  N   UNL     1       4.608   4.507  19.181  0.00  0.00    +0.000 N 
ATOM      8  C   UNL     1       3.749   3.448  18.966  0.00  0.00    +0.000 C 
ATOM      9  O   UNL     1       3.730   2.735  17.965  0.00  0.00    +0.000 OA
ATOM     10  N   UNL     1       2.836   3.222  19.978  0.00  0.00    +0.000 N 
ATOM     11  C   UNL     1       2.692   3.891  21.255  0.00  0.00    +0.000 C 
ATOM     12  C   UNL     1       1.813   2.950  22.062  0.00  0.00    +0.000 C 
ATOM     13  C   UNL     1       0.896   2.330  21.016  0.00  0.00    +0.000 C 
ATOM     14  C   UNL     1       1.743   2.290  19.751  0.00  0.00    +0.000 C 
ATOM     15  H   UNL     1       4.561   4.937  20.084  0.00  0.00    +0.000 HD
ENDBRANCH   6   7
BRANCH   1  18
ATOM     16  O   UNL     1       2.395   6.006  17.578  0.00  0.00    +0.000 OA
ATOM     17  C   UNL     1       2.926   6.980  18.105  0.00  0.00    +0.000 C 
ATOM     18  N   UNL     1       4.287   7.218  18.250  0.00  0.00    +0.000 N 
ATOM     19  H   UNL     1       4.509   8.066  18.753  0.00  0.00    +0.000 HD
BRANCH  17  20
ATOM     20  C   UNL     1       2.045   8.035  18.696  0.00  0.00    +0.000 A 
ATOM     21  C   UNL     1       1.718   9.138  17.921  0.00  0.00    +0.000 A 
ATOM     22  C   UNL     1       0.981  10.154  18.508  0.00  0.00    +0.000 A 
ATOM     23  C   UNL     1       0.672  10.074  19.867  0.00  0.00    +0.000 A 
ATOM     24  C   UNL     1       0.089  11.165  20.531  0.00  0.00    +0.000 A 
ATOM     25  C   UNL     1      -0.146  11.105  21.900  0.00  0.00    +0.000 A 
ATOM     26  C   UNL     1       0.141   9.934  22.595  0.00  0.00    +0.000 A 
ATOM     27  C   UNL     1       0.698   8.839  21.924  0.00  0.00    +0.000 A 
ATOM     28  C   UNL     1       1.011   8.893  20.571  0.00  0.00    +0.000 A 
ATOM     29  N   UNL     1       1.654   7.861  19.990  0.00  0.00    +0.000 NA
ENDBRANCH  17  20
ENDBRANCH   1  18
TORSDOF 3
ENDMDL
