MODEL 1
REMARK VINA RESULT:      -8.6      0.000      0.000
REMARK  Name = 
REMARK  5 active torsions:
REMARK  status: ('A' for Active; 'I' for Inactive)
REMARK    1  A    between atoms: C_1  and  O_2
REMARK    2  A    between atoms: O_2  and  C_3
REMARK    3  A    between atoms: C_5  and  C_6
REMARK    4  A    between atoms: N_8  and  C_9
REMARK    5  A    between atoms: C_12  and  C_13
REMARK                            x       y       z     vdW  Elec       q    Type
REMARK                         _______ _______ _______ _____ _____    ______ ____
ROOT
ATOM      1  C   UNL     1      -0.168  10.582  20.642  0.00  0.00    +0.000 C 
ATOM      2  O   UNL     1      -0.963  10.354  19.726  0.00  0.00    +0.000 OA
ATOM      3  N   UNL     1       0.976   9.863  20.902  0.00  0.00    +0.000 N 
ATOM      4  H   UNL     1       1.430  10.048  21.789  0.00  0.00    +0.000 HD
ENDROOT
BRANCH   1   7
ATOM      5  C   UNL     1      -0.062  13.800  22.417  0.00  0.00    +0.000 A 
ATOM      6  N   UNL     1       0.347  12.782  21.610  0.00  0.00    +0.000 NA
ATOM      7  C   UNL     1      -0.487  11.717  21.561  0.00  0.00    +0.000 A 
ATOM      8  C   UNL     1      -1.674  11.615  22.279  0.00  0.00    +0.000 A 
ATOM      9  C   UNL     1      -2.066  12.662  23.098  0.00  0.00    +0.000 A 
ATOM     10  C   UNL     1      -3.276  12.577  23.803  0.00  0.00    +0.000 A 
ATOM     11  C   UNL     1      -3.696  13.629  24.607  0.00  0.00    +0.000 A 
ATOM     12  C   UNL     1      -2.907  14.769  24.719  0.00  0.00    +0.000 A 
ATOM     13  C   UNL     1      -1.695  14.859  24.024  0.00  0.00    +0.000 A 
ATOM     14  C   UNL     1      -1.249  13.804  23.193  0.00  0.00    +0.000 A 
BRANCH   5  16
ATOM     15  C   UNL     1       1.932  14.811  21.744  0.00  0.00    +0.000 C 
ATOM     16  O   UNL     1       0.735  14.931  22.504  0.00  0.00    +0.000 OA
ENDBRANCH   5  16
ENDBRANCH   1   7
BRANCH   3  17
ATOM     17  C   UNL     1       1.447   8.803  20.091  0.00  0.00    +0.000 A 
ATOM     18  C   UNL     1       1.703   7.518  20.584  0.00  0.00    +0.000 A 
ATOM     19  C   UNL     1       2.291   6.533  19.781  0.00  0.00    +0.000 A 
ATOM     20  C   UNL     1       2.603   6.806  18.448  0.00  0.00    +0.000 A 
ATOM     21  C   UNL     1       2.191   8.035  17.919  0.00  0.00    +0.000 A 
ATOM     22  C   UNL     1       1.662   9.044  18.738  0.00  0.00    +0.000 A 
BRANCH  20  23
ATOM     23  C   UNL     1       3.330   5.756  17.661  0.00  0.00    +0.000 C 
ATOM     24  O   UNL     1       2.748   4.682  17.490  0.00  0.00    +0.000 OA
ATOM     25  N   UNL     1       4.635   5.980  17.175  0.00  0.00    +0.000 N 
ATOM     26  C   UNL     1       5.218   4.968  16.294  0.00  0.00    +0.000 C 
ATOM     27  C   UNL     1       6.178   4.027  17.022  0.00  0.00    +0.000 C 
ATOM     28  C   UNL     1       7.556   4.621  17.315  0.00  0.00    +0.000 C 
ATOM     29  C   UNL     1       7.537   5.890  18.159  0.00  0.00    +0.000 C 
ATOM     30  C   UNL     1       6.948   7.066  17.397  0.00  0.00    +0.000 C 
ATOM     31  C   UNL     1       5.434   7.158  17.504  0.00  0.00    +0.000 C 
ENDBRANCH  20  23
ENDBRANCH   3  17
TORSDOF 4
ENDMDL
MODEL 2
REMARK VINA RESULT:      -8.6      1.866     10.844
REMARK  Name = 
REMARK  5 active torsions:
REMARK  status: ('A' for Active; 'I' for Inactive)
REMARK    1  A    between atoms: C_1  and  O_2
REMARK    2  A    between atoms: O_2  and  C_3
REMARK    3  A    between atoms: C_5  and  C_6
REMARK    4  A    between atoms: N_8  and  C_9
REMARK    5  A    between atoms: C_12  and  C_13
REMARK                            x       y       z     vdW  Elec       q    Type
REMARK                         _______ _______ _______ _____ _____    ______ ____
ROOT
ATOM      1  C   UNL     1       1.872   8.398  18.910  0.00  0.00    +0.000 C 
ATOM      2  O   UNL     1       1.639   9.230  18.029  0.00  0.00    +0.000 OA
ATOM      3  N   UNL     1       1.531   8.526  20.237  0.00  0.00    +0.000 N 
ATOM      4  H   UNL     1       1.946   7.856  20.874  0.00  0.00    +0.000 HD
ENDROOT
BRANCH   1   7
ATOM      5  C   UNL     1       2.942   4.895  18.595  0.00  0.00    +0.000 A 
ATOM      6  N   UNL     1       2.272   5.979  19.077  0.00  0.00    +0.000 NA
ATOM      7  C   UNL     1       2.608   7.161  18.509  0.00  0.00    +0.000 A 
ATOM      8  C   UNL     1       3.573   7.310  17.518  0.00  0.00    +0.000 A 
ATOM      9  C   UNL     1       4.245   6.192  17.049  0.00  0.00    +0.000 A 
ATOM     10  C   UNL     1       5.200   6.333  16.031  0.00  0.00    +0.000 A 
ATOM     11  C   UNL     1       5.862   5.219  15.530  0.00  0.00    +0.000 A 
ATOM     12  C   UNL     1       5.583   3.960  16.051  0.00  0.00    +0.000 A 
ATOM     13  C   UNL     1       4.637   3.812  17.071  0.00  0.00    +0.000 A 
ATOM     14  C   UNL     1       3.943   4.930  17.591  0.00  0.00    +0.000 A 
BRANCH   5  16
ATOM     15  C   UNL     1       1.248   3.492  19.380  0.00  0.00    +0.000 C 
ATOM     16  O   UNL     1       2.638   3.649  19.121  0.00  0.00    +0.000 OA
ENDBRANCH   5  16
ENDBRANCH   1   7
BRANCH   3  17
ATOM     17  C   UNL     1       0.782   9.606  20.763  0.00  0.00    +0.000 A 
ATOM     18  C   UNL     1       0.765  10.880  20.183  0.00  0.00    +0.000 A 
ATOM     19  C   UNL     1       0.118  11.955  20.804  0.00  0.00    +0.000 A 
ATOM     20  C   UNL     1      -0.563  11.765  22.008  0.00  0.00    +0.000 A 
ATOM     21  C   UNL     1      -0.682  10.457  22.492  0.00  0.00    +0.000 A 
ATOM     22  C   UNL     1       0.020   9.393  21.907  0.00  0.00    +0.000 A 
BRANCH  20  23
ATOM     23  C   UNL     1      -1.148  12.968  22.688  0.00  0.00    +0.000 C 
ATOM     24  O   UNL     1      -0.480  13.482  23.589  0.00  0.00    +0.000 OA
ATOM     25  N   UNL     1      -2.421  13.459  22.333  0.00  0.00    +0.000 N 
ATOM     26  C   UNL     1      -2.859  14.719  22.936  0.00  0.00    +0.000 C 
ATOM     27  C   UNL     1      -3.808  14.514  24.119  0.00  0.00    +0.000 C 
ATOM     28  C   UNL     1      -5.242  14.156  23.732  0.00  0.00    +0.000 C 
ATOM     29  C   UNL     1      -5.381  12.889  22.896  0.00  0.00    +0.000 C 
ATOM     30  C   UNL     1      -4.816  13.072  21.497  0.00  0.00    +0.000 C 
ATOM     31  C   UNL     1      -3.325  12.784  21.405  0.00  0.00    +0.000 C 
ENDBRANCH  20  23
ENDBRANCH   3  17
TORSDOF 4
ENDMDL
MODEL 3
REMARK VINA RESULT:      -8.5      2.224     10.597
REMARK  Name = 
REMARK  5 active torsions:
REMARK  status: ('A' for Active; 'I' for Inactive)
REMARK    1  A    between atoms: C_1  and  O_2
REMARK    2  A    between atoms: O_2  and  C_3
REMARK    3  A    between atoms: C_5  and  C_6
REMARK    4  A    between atoms: N_8  and  C_9
REMARK    5  A    between atoms: C_12  and  C_13
REMARK                            x       y       z     vdW  Elec       q    Type
REMARK                         _______ _______ _______ _____ _____    ______ ____
ROOT
ATOM      1  C   UNL     1       1.465   8.350  19.999  0.00  0.00    +0.000 C 
ATOM      2  O   UNL     1       1.205   9.020  18.996  0.00  0.00    +0.000 OA
ATOM      3  N   UNL     1       1.174   8.710  21.295  0.00  0.00    +0.000 N 
ATOM      4  H   UNL     1       1.607   8.154  22.023  0.00  0.00    +0.000 HD
ENDROOT
BRANCH   1   7
ATOM      5  C   UNL     1       3.799   5.777  18.794  0.00  0.00    +0.000 A 
ATOM      6  N   UNL     1       3.154   6.976  18.859  0.00  0.00    +0.000 NA
ATOM      7  C   UNL     1       2.177   7.052  19.792  0.00  0.00    +0.000 A 
ATOM      8  C   UNL     1       1.808   6.006  20.631  0.00  0.00    +0.000 A 
ATOM      9  C   UNL     1       2.476   4.795  20.542  0.00  0.00    +0.000 A 
ATOM     10  C   UNL     1       2.127   3.744  21.404  0.00  0.00    +0.000 A 
ATOM     11  C   UNL     1       2.804   2.533  21.346  0.00  0.00    +0.000 A 
ATOM     12  C   UNL     1       3.827   2.359  20.419  0.00  0.00    +0.000 A 
ATOM     13  C   UNL     1       4.177   3.400  19.551  0.00  0.00    +0.000 A 
ATOM     14  C   UNL     1       3.507   4.645  19.597  0.00  0.00    +0.000 A 
BRANCH   5  16
ATOM     15  C   UNL     1       5.071   6.828  17.141  0.00  0.00    +0.000 C 
ATOM     16  O   UNL     1       4.823   5.632  17.871  0.00  0.00    +0.000 OA
ENDBRANCH   5  16
ENDBRANCH   1   7
BRANCH   3  17
ATOM     17  C   UNL     1       0.452   9.873  21.652  0.00  0.00    +0.000 A 
ATOM     18  C   UNL     1       0.656  11.118  21.043  0.00  0.00    +0.000 A 
ATOM     19  C   UNL     1       0.016  12.272  21.512  0.00  0.00    +0.000 A 
ATOM     20  C   UNL     1      -0.875  12.196  22.583  0.00  0.00    +0.000 A 
ATOM     21  C   UNL     1      -1.200  10.926  23.075  0.00  0.00    +0.000 A 
ATOM     22  C   UNL     1      -0.512   9.779  22.651  0.00  0.00    +0.000 A 
BRANCH  20  23
ATOM     23  C   UNL     1      -1.451  13.474  23.117  0.00  0.00    +0.000 C 
ATOM     24  O   UNL     1      -0.815  14.047  24.005  0.00  0.00    +0.000 OA
ATOM     25  N   UNL     1      -2.684  13.972  22.646  0.00  0.00    +0.000 N 
ATOM     26  C   UNL     1      -3.107  15.295  23.107  0.00  0.00    +0.000 C 
ATOM     27  C   UNL     1      -4.125  15.231  24.246  0.00  0.00    +0.000 C 
ATOM     28  C   UNL     1      -5.549  14.885  23.811  0.00  0.00    +0.000 C 
ATOM     29  C   UNL     1      -5.690  13.552  23.085  0.00  0.00    +0.000 C 
ATOM     30  C   UNL     1      -5.042  13.587  21.711  0.00  0.00    +0.000 C 
ATOM     31  C   UNL     1      -3.560  13.244  21.732  0.00  0.00    +0.000 C 
ENDBRANCH  20  23
ENDBRANCH   3  17
TORSDOF 4
ENDMDL
MODEL 4
REMARK VINA RESULT:      -8.5      2.055     10.786
REMARK  Name = 
REMARK  5 active torsions:
REMARK  status: ('A' for Active; 'I' for Inactive)
REMARK    1  A    between atoms: C_1  and  O_2
REMARK    2  A    between atoms: O_2  and  C_3
REMARK    3  A    between atoms: C_5  and  C_6
REMARK    4  A    between atoms: N_8  and  C_9
REMARK    5  A    between atoms: C_12  and  C_13
REMARK                            x       y       z     vdW  Elec       q    Type
REMARK                         _______ _______ _______ _____ _____    ______ ____
ROOT
ATOM      1  C   UNL     1       1.931   8.746  18.527  0.00  0.00    +0.000 C 
ATOM      2  O   UNL     1       1.978   9.599  17.637  0.00  0.00    +0.000 OA
ATOM      3  N   UNL     1       1.232   8.863  19.708  0.00  0.00    +0.000 N 
ATOM      4  H   UNL     1       1.432   8.168  20.418  0.00  0.00    +0.000 HD
ENDROOT
BRANCH   1   7
ATOM      5  C   UNL     1       3.194   5.305  18.810  0.00  0.00    +0.000 A 
ATOM      6  N   UNL     1       2.488   6.427  19.123  0.00  0.00    +0.000 NA
ATOM      7  C   UNL     1       2.717   7.492  18.318  0.00  0.00    +0.000 A 
ATOM      8  C   UNL     1       3.612   7.494  17.253  0.00  0.00    +0.000 A 
ATOM      9  C   UNL     1       4.322   6.341  16.959  0.00  0.00    +0.000 A 
ATOM     10  C   UNL     1       5.206   6.329  15.870  0.00  0.00    +0.000 A 
ATOM     11  C   UNL     1       5.906   5.174  15.545  0.00  0.00    +0.000 A 
ATOM     12  C   UNL     1       5.735   4.027  16.313  0.00  0.00    +0.000 A 
ATOM     13  C   UNL     1       4.861   4.033  17.406  0.00  0.00    +0.000 A 
ATOM     14  C   UNL     1       4.131   5.194  17.751  0.00  0.00    +0.000 A 
BRANCH   5  16
ATOM     15  C   UNL     1       2.304   4.449  20.793  0.00  0.00    +0.000 C 
ATOM     16  O   UNL     1       2.999   4.170  19.582  0.00  0.00    +0.000 OA
ENDBRANCH   5  16
ENDBRANCH   1   7
BRANCH   3  17
ATOM     17  C   UNL     1       0.394   9.957  20.027  0.00  0.00    +0.000 A 
ATOM     18  C   UNL     1      -0.767  10.268  19.310  0.00  0.00    +0.000 A 
ATOM     19  C   UNL     1      -1.498  11.432  19.575  0.00  0.00    +0.000 A 
ATOM     20  C   UNL     1      -1.099  12.296  20.595  0.00  0.00    +0.000 A 
ATOM     21  C   UNL     1      -0.037  11.893  21.415  0.00  0.00    +0.000 A 
ATOM     22  C   UNL     1       0.734  10.762  21.110  0.00  0.00    +0.000 A 
BRANCH  20  23
ATOM     23  C   UNL     1      -1.851  13.583  20.769  0.00  0.00    +0.000 C 
ATOM     24  O   UNL     1      -1.441  14.560  20.138  0.00  0.00    +0.000 OA
ATOM     25  N   UNL     1      -2.952  13.672  21.646  0.00  0.00    +0.000 N 
ATOM     26  C   UNL     1      -3.721  14.917  21.649  0.00  0.00    +0.000 C 
ATOM     27  C   UNL     1      -3.348  15.843  22.808  0.00  0.00    +0.000 C 
ATOM     28  C   UNL     1      -3.927  15.436  24.163  0.00  0.00    +0.000 C 
ATOM     29  C   UNL     1      -3.530  14.043  24.634  0.00  0.00    +0.000 C 
ATOM     30  C   UNL     1      -4.171  12.956  23.786  0.00  0.00    +0.000 C 
ATOM     31  C   UNL     1      -3.363  12.600  22.548  0.00  0.00    +0.000 C 
ENDBRANCH  20  23
ENDBRANCH   3  17
TORSDOF 4
ENDMDL
MODEL 5
REMARK VINA RESULT:      -8.5      2.040     10.553
REMARK  Name = 
REMARK  5 active torsions:
REMARK  status: ('A' for Active; 'I' for Inactive)
REMARK    1  A    between atoms: C_1  and  O_2
REMARK    2  A    between atoms: O_2  and  C_3
REMARK    3  A    between atoms: C_5  and  C_6
REMARK    4  A    between atoms: N_8  and  C_9
REMARK    5  A    between atoms: C_12  and  C_13
REMARK                            x       y       z     vdW  Elec       q    Type
REMARK                         _______ _______ _______ _____ _____    ______ ____
ROOT
ATOM      1  C   UNL     1       2.023   6.703  20.063  0.00  0.00    +0.000 C 
ATOM      2  O   UNL     1       1.338   6.044  20.849  0.00  0.00    +0.000 OA
ATOM      3  N   UNL     1       1.911   8.059  19.851  0.00  0.00    +0.000 N 
ATOM      4  H   UNL     1       2.409   8.429  19.049  0.00  0.00    +0.000 HD
ENDROOT
BRANCH   1   7
ATOM      5  C   UNL     1       4.292   4.099  18.803  0.00  0.00    +0.000 A 
ATOM      6  N   UNL     1       3.418   4.724  19.641  0.00  0.00    +0.000 NA
ATOM      7  C   UNL     1       3.042   5.966  19.255  0.00  0.00    +0.000 A 
ATOM      8  C   UNL     1       3.503   6.606  18.110  0.00  0.00    +0.000 A 
ATOM      9  C   UNL     1       4.397   5.951  17.277  0.00  0.00    +0.000 A 
ATOM     10  C   UNL     1       4.844   6.582  16.107  0.00  0.00    +0.000 A 
ATOM     11  C   UNL     1       5.719   5.928  15.248  0.00  0.00    +0.000 A 
ATOM     12  C   UNL     1       6.160   4.646  15.557  0.00  0.00    +0.000 A 
ATOM     13  C   UNL     1       5.724   4.014  16.727  0.00  0.00    +0.000 A 
ATOM     14  C   UNL     1       4.827   4.655  17.614  0.00  0.00    +0.000 A 
BRANCH   5  16
ATOM     15  C   UNL     1       4.112   2.337  20.327  0.00  0.00    +0.000 C 
ATOM     16  O   UNL     1       4.709   2.817  19.127  0.00  0.00    +0.000 OA
ENDBRANCH   5  16
ENDBRANCH   1   7
BRANCH   3  17
ATOM     17  C   UNL     1       1.041   8.905  20.577  0.00  0.00    +0.000 A 
ATOM     18  C   UNL     1       0.082   9.722  19.967  0.00  0.00    +0.000 A 
ATOM     19  C   UNL     1      -0.670  10.642  20.708  0.00  0.00    +0.000 A 
ATOM     20  C   UNL     1      -0.503  10.736  22.090  0.00  0.00    +0.000 A 
ATOM     21  C   UNL     1       0.335   9.801  22.712  0.00  0.00    +0.000 A 
ATOM     22  C   UNL     1       1.136   8.925  21.965  0.00  0.00    +0.000 A 
BRANCH  20  23
ATOM     23  C   UNL     1      -1.252  11.809  22.823  0.00  0.00    +0.000 C 
ATOM     24  O   UNL     1      -2.254  11.462  23.453  0.00  0.00    +0.000 OA
ATOM     25  N   UNL     1      -0.844  13.158  22.760  0.00  0.00    +0.000 N 
ATOM     26  C   UNL     1      -1.535  14.121  23.617  0.00  0.00    +0.000 C 
ATOM     27  C   UNL     1      -2.606  14.919  22.872  0.00  0.00    +0.000 C 
ATOM     28  C   UNL     1      -2.065  16.040  21.985  0.00  0.00    +0.000 C 
ATOM     29  C   UNL     1      -1.094  15.585  20.902  0.00  0.00    +0.000 C 
ATOM     30  C   UNL     1       0.226  15.113  21.490  0.00  0.00    +0.000 C 
ATOM     31  C   UNL     1       0.222  13.645  21.887  0.00  0.00    +0.000 C 
ENDBRANCH  20  23
ENDBRANCH   3  17
TORSDOF 4
ENDMDL
MODEL 6
REMARK VINA RESULT:      -8.5      1.959     10.635
REMARK  Name = 
REMARK  5 active torsions:
REMARK  status: ('A' for Active; 'I' for Inactive)
REMARK    1  A    between atoms: C_1  and  O_2
REMARK    2  A    between atoms: O_2  and  C_3
REMARK    3  A    between atoms: C_5  and  C_6
REMARK    4  A    between atoms: N_8  and  C_9
REMARK    5  A    between atoms: C_12  and  C_13
REMARK                            x       y       z     vdW  Elec       q    Type
REMARK                         _______ _______ _______ _____ _____    ______ ____
ROOT
ATOM      1  C   UNL     1       1.907   8.265  19.331  0.00  0.00    +0.000 C 
ATOM      2  O   UNL     1       1.865   9.281  18.631  0.00  0.00    +0.000 OA
ATOM      3  N   UNL     1       1.389   8.152  20.601  0.00  0.00    +0.000 N 
ATOM      4  H   UNL     1       1.656   7.325  21.123  0.00  0.00    +0.000 HD
ENDROOT
BRANCH   1   7
ATOM      5  C   UNL     1       2.881   4.801  18.579  0.00  0.00    +0.000 A 
ATOM      6  N   UNL     1       2.254   5.836  19.205  0.00  0.00    +0.000 NA
ATOM      7  C   UNL     1       2.599   7.068  18.765  0.00  0.00    +0.000 A 
ATOM      8  C   UNL     1       3.535   7.311  17.765  0.00  0.00    +0.000 A 
ATOM      9  C   UNL     1       4.163   6.243  17.146  0.00  0.00    +0.000 A 
ATOM     10  C   UNL     1       5.088   6.481  16.118  0.00  0.00    +0.000 A 
ATOM     11  C   UNL     1       5.707   5.419  15.470  0.00  0.00    +0.000 A 
ATOM     12  C   UNL     1       5.415   4.114  15.852  0.00  0.00    +0.000 A 
ATOM     13  C   UNL     1       4.499   3.868  16.881  0.00  0.00    +0.000 A 
ATOM     14  C   UNL     1       3.850   4.932  17.551  0.00  0.00    +0.000 A 
BRANCH   5  16
ATOM     15  C   UNL     1       1.225   3.155  18.641  0.00  0.00    +0.000 C 
ATOM     16  O   UNL     1       2.565   3.509  18.967  0.00  0.00    +0.000 OA
ENDBRANCH   5  16
ENDBRANCH   1   7
BRANCH   3  17
ATOM     17  C   UNL     1       0.654   9.171  21.252  0.00  0.00    +0.000 A 
ATOM     18  C   UNL     1       0.513   9.245  22.643  0.00  0.00    +0.000 A 
ATOM     19  C   UNL     1      -0.329  10.191  23.241  0.00  0.00    +0.000 A 
ATOM     20  C   UNL     1      -1.022  11.112  22.455  0.00  0.00    +0.000 A 
ATOM     21  C   UNL     1      -0.746  11.139  21.082  0.00  0.00    +0.000 A 
ATOM     22  C   UNL     1       0.045  10.152  20.475  0.00  0.00    +0.000 A 
BRANCH  20  23
ATOM     23  C   UNL     1      -1.993  12.033  23.132  0.00  0.00    +0.000 C 
ATOM     24  O   UNL     1      -3.062  11.544  23.505  0.00  0.00    +0.000 OA
ATOM     25  N   UNL     1      -1.705  13.404  23.297  0.00  0.00    +0.000 N 
ATOM     26  C   UNL     1      -2.634  14.205  24.096  0.00  0.00    +0.000 C 
ATOM     27  C   UNL     1      -3.609  15.015  23.240  0.00  0.00    +0.000 C 
ATOM     28  C   UNL     1      -3.012  16.270  22.606  0.00  0.00    +0.000 C 
ATOM     29  C   UNL     1      -1.813  16.019  21.699  0.00  0.00    +0.000 C 
ATOM     30  C   UNL     1      -0.593  15.570  22.488  0.00  0.00    +0.000 C 
ATOM     31  C   UNL     1      -0.541  14.067  22.716  0.00  0.00    +0.000 C 
ENDBRANCH  20  23
ENDBRANCH   3  17
TORSDOF 4
ENDMDL
MODEL 7
REMARK VINA RESULT:      -8.5      2.210     10.655
REMARK  Name = 
REMARK  5 active torsions:
REMARK  status: ('A' for Active; 'I' for Inactive)
REMARK    1  A    between atoms: C_1  and  O_2
REMARK    2  A    between atoms: O_2  and  C_3
REMARK    3  A    between atoms: C_5  and  C_6
REMARK    4  A    between atoms: N_8  and  C_9
REMARK    5  A    between atoms: C_12  and  C_13
REMARK                            x       y       z     vdW  Elec       q    Type
REMARK                         _______ _______ _______ _____ _____    ______ ____
ROOT
ATOM      1  C   UNL     1       1.540   8.560  19.761  0.00  0.00    +0.000 C 
ATOM      2  O   UNL     1       1.161   9.294  18.844  0.00  0.00    +0.000 OA
ATOM      3  N   UNL     1       1.352   8.801  21.104  0.00  0.00    +0.000 N 
ATOM      4  H   UNL     1       1.874   8.211  21.742  0.00  0.00    +0.000 HD
ENDROOT
BRANCH   1   7
ATOM      5  C   UNL     1       2.775   5.099  19.662  0.00  0.00    +0.000 A 
ATOM      6  N   UNL     1       2.116   6.198  20.123  0.00  0.00    +0.000 NA
ATOM      7  C   UNL     1       2.286   7.321  19.386  0.00  0.00    +0.000 A 
ATOM      8  C   UNL     1       3.082   7.400  18.248  0.00  0.00    +0.000 A 
ATOM      9  C   UNL     1       3.747   6.269  17.802  0.00  0.00    +0.000 A 
ATOM     10  C   UNL     1       4.529   6.336  16.639  0.00  0.00    +0.000 A 
ATOM     11  C   UNL     1       5.180   5.205  16.165  0.00  0.00    +0.000 A 
ATOM     12  C   UNL     1       5.064   4.002  16.853  0.00  0.00    +0.000 A 
ATOM     13  C   UNL     1       4.291   3.929  18.018  0.00  0.00    +0.000 A 
ATOM     14  C   UNL     1       3.612   5.065  18.517  0.00  0.00    +0.000 A 
BRANCH   5  16
ATOM     15  C   UNL     1       1.330   3.353  20.226  0.00  0.00    +0.000 C 
ATOM     16  O   UNL     1       2.634   3.908  20.358  0.00  0.00    +0.000 OA
ENDBRANCH   5  16
ENDBRANCH   1   7
BRANCH   3  17
ATOM     17  C   UNL     1       0.616   9.894  21.618  0.00  0.00    +0.000 A 
ATOM     18  C   UNL     1      -0.337   9.765  22.635  0.00  0.00    +0.000 A 
ATOM     19  C   UNL     1      -1.138  10.845  23.026  0.00  0.00    +0.000 A 
ATOM     20  C   UNL     1      -0.973  12.095  22.427  0.00  0.00    +0.000 A 
ATOM     21  C   UNL     1       0.092  12.256  21.533  0.00  0.00    +0.000 A 
ATOM     22  C   UNL     1       0.851  11.161  21.094  0.00  0.00    +0.000 A 
BRANCH  20  23
ATOM     23  C   UNL     1      -1.926  13.191  22.802  0.00  0.00    +0.000 C 
ATOM     24  O   UNL     1      -1.724  13.766  23.875  0.00  0.00    +0.000 OA
ATOM     25  N   UNL     1      -3.023  13.518  21.978  0.00  0.00    +0.000 N 
ATOM     26  C   UNL     1      -3.819  14.693  22.337  0.00  0.00    +0.000 C 
ATOM     27  C   UNL     1      -5.109  14.334  23.077  0.00  0.00    +0.000 C 
ATOM     28  C   UNL     1      -6.229  13.799  22.185  0.00  0.00    +0.000 C 
ATOM     29  C   UNL     1      -5.872  12.547  21.393  0.00  0.00    +0.000 C 
ATOM     30  C   UNL     1      -4.847  12.838  20.308  0.00  0.00    +0.000 C 
ATOM     31  C   UNL     1      -3.409  12.753  20.795  0.00  0.00    +0.000 C 
ENDBRANCH  20  23
ENDBRANCH   3  17
TORSDOF 4
ENDMDL
MODEL 8
REMARK VINA RESULT:      -8.4      2.005     10.553
REMARK  Name = 
REMARK  5 active torsions:
REMARK  status: ('A' for Active; 'I' for Inactive)
REMARK    1  A    between atoms: C_1  and  O_2
REMARK    2  A    between atoms: O_2  and  C_3
REMARK    3  A    between atoms: C_5  and  C_6
REMARK    4  A    between atoms: N_8  and  C_9
REMARK    5  A    between atoms: C_12  and  C_13
REMARK                            x       y       z     vdW  Elec       q    Type
REMARK                         _______ _______ _______ _____ _____    ______ ____
ROOT
ATOM      1  C   UNL     1       1.993   8.743  18.228  0.00  0.00    +0.000 C 
ATOM      2  O   UNL     1       2.229   9.706  17.494  0.00  0.00    +0.000 OA
ATOM      3  N   UNL     1       1.176   8.767  19.336  0.00  0.00    +0.000 N 
ATOM      4  H   UNL     1       1.221   7.957  19.944  0.00  0.00    +0.000 HD
ENDROOT
BRANCH   1   7
ATOM      5  C   UNL     1       4.485   6.244  17.198  0.00  0.00    +0.000 A 
ATOM      6  N   UNL     1       3.920   7.469  17.391  0.00  0.00    +0.000 NA
ATOM      7  C   UNL     1       2.668   7.450  17.904  0.00  0.00    +0.000 A 
ATOM      8  C   UNL     1       1.961   6.291  18.208  0.00  0.00    +0.000 A 
ATOM      9  C   UNL     1       2.555   5.057  17.998  0.00  0.00    +0.000 A 
ATOM     10  C   UNL     1       1.858   3.886  18.328  0.00  0.00    +0.000 A 
ATOM     11  C   UNL     1       2.450   2.641  18.149  0.00  0.00    +0.000 A 
ATOM     12  C   UNL     1       3.737   2.559  17.629  0.00  0.00    +0.000 A 
ATOM     13  C   UNL     1       4.436   3.722  17.290  0.00  0.00    +0.000 A 
ATOM     14  C   UNL     1       3.859   5.001  17.471  0.00  0.00    +0.000 A 
BRANCH   5  16
ATOM     15  C   UNL     1       6.694   6.957  17.455  0.00  0.00    +0.000 C 
ATOM     16  O   UNL     1       5.773   6.187  16.690  0.00  0.00    +0.000 OA
ENDBRANCH   5  16
ENDBRANCH   1   7
BRANCH   3  17
ATOM     17  C   UNL     1       0.420   9.893  19.740  0.00  0.00    +0.000 A 
ATOM     18  C   UNL     1      -0.733  10.321  19.071  0.00  0.00    +0.000 A 
ATOM     19  C   UNL     1      -1.378  11.513  19.420  0.00  0.00    +0.000 A 
ATOM     20  C   UNL     1      -0.901  12.287  20.479  0.00  0.00    +0.000 A 
ATOM     21  C   UNL     1       0.149  11.768  21.247  0.00  0.00    +0.000 A 
ATOM     22  C   UNL     1       0.836  10.609  20.858  0.00  0.00    +0.000 A 
BRANCH  20  23
ATOM     23  C   UNL     1      -1.560  13.608  20.745  0.00  0.00    +0.000 C 
ATOM     24  O   UNL     1      -1.037  14.606  20.244  0.00  0.00    +0.000 OA
ATOM     25  N   UNL     1      -2.705  13.700  21.563  0.00  0.00    +0.000 N 
ATOM     26  C   UNL     1      -3.375  14.998  21.656  0.00  0.00    +0.000 C 
ATOM     27  C   UNL     1      -3.007  15.769  22.924  0.00  0.00    +0.000 C 
ATOM     28  C   UNL     1      -3.700  15.278  24.195  0.00  0.00    +0.000 C 
ATOM     29  C   UNL     1      -3.442  13.815  24.538  0.00  0.00    +0.000 C 
ATOM     30  C   UNL     1      -4.110  12.877  23.546  0.00  0.00    +0.000 C 
ATOM     31  C   UNL     1      -3.255  12.581  22.324  0.00  0.00    +0.000 C 
ENDBRANCH  20  23
ENDBRANCH   3  17
TORSDOF 4
ENDMDL
MODEL 9
REMARK VINA RESULT:      -8.4      2.926     10.650
REMARK  Name = 
REMARK  5 active torsions:
REMARK  status: ('A' for Active; 'I' for Inactive)
REMARK    1  A    between atoms: C_1  and  O_2
REMARK    2  A    between atoms: O_2  and  C_3
REMARK    3  A    between atoms: C_5  and  C_6
REMARK    4  A    between atoms: N_8  and  C_9
REMARK    5  A    between atoms: C_12  and  C_13
REMARK                            x       y       z     vdW  Elec       q    Type
REMARK                         _______ _______ _______ _____ _____    ______ ____
ROOT
ATOM      1  C   UNL     1       2.273   7.357  19.345  0.00  0.00    +0.000 C 
ATOM      2  O   UNL     1       1.717   6.979  20.379  0.00  0.00    +0.000 OA
ATOM      3  N   UNL     1       1.960   8.500  18.643  0.00  0.00    +0.000 N 
ATOM      4  H   UNL     1       2.371   8.587  17.721  0.00  0.00    +0.000 HD
ENDROOT
BRANCH   1   7
ATOM      5  C   UNL     1       4.752   4.676  18.918  0.00  0.00    +0.000 A 
ATOM      6  N   UNL     1       3.818   5.455  19.532  0.00  0.00    +0.000 NA
ATOM      7  C   UNL     1       3.359   6.492  18.793  0.00  0.00    +0.000 A 
ATOM      8  C   UNL     1       3.794   6.792  17.506  0.00  0.00    +0.000 A 
ATOM      9  C   UNL     1       4.749   5.987  16.905  0.00  0.00    +0.000 A 
ATOM     10  C   UNL     1       5.171   6.269  15.598  0.00  0.00    +0.000 A 
ATOM     11  C   UNL     1       6.108   5.457  14.971  0.00  0.00    +0.000 A 
ATOM     12  C   UNL     1       6.637   4.364  15.651  0.00  0.00    +0.000 A 
ATOM     13  C   UNL     1       6.226   4.081  16.958  0.00  0.00    +0.000 A 
ATOM     14  C   UNL     1       5.267   4.888  17.614  0.00  0.00    +0.000 A 
BRANCH   5  16
ATOM     15  C   UNL     1       4.260   2.605  19.879  0.00  0.00    +0.000 C 
ATOM     16  O   UNL     1       5.255   3.586  19.610  0.00  0.00    +0.000 OA
ENDBRANCH   5  16
ENDBRANCH   1   7
BRANCH   3  17
ATOM     17  C   UNL     1       1.002   9.452  19.066  0.00  0.00    +0.000 A 
ATOM     18  C   UNL     1       0.893   9.893  20.391  0.00  0.00    +0.000 A 
ATOM     19  C   UNL     1      -0.149  10.735  20.795  0.00  0.00    +0.000 A 
ATOM     20  C   UNL     1      -1.088  11.187  19.867  0.00  0.00    +0.000 A 
ATOM     21  C   UNL     1      -0.875  10.879  18.518  0.00  0.00    +0.000 A 
ATOM     22  C   UNL     1       0.129   9.983  18.122  0.00  0.00    +0.000 A 
BRANCH  20  23
ATOM     23  C   UNL     1      -2.246  11.999  20.369  0.00  0.00    +0.000 C 
ATOM     24  O   UNL     1      -2.162  12.445  21.516  0.00  0.00    +0.000 OA
ATOM     25  N   UNL     1      -3.392  12.206  19.572  0.00  0.00    +0.000 N 
ATOM     26  C   UNL     1      -4.413  13.128  20.072  0.00  0.00    +0.000 C 
ATOM     27  C   UNL     1      -5.596  12.409  20.723  0.00  0.00    +0.000 C 
ATOM     28  C   UNL     1      -6.585  11.786  19.738  0.00  0.00    +0.000 C 
ATOM     29  C   UNL     1      -5.980  10.760  18.788  0.00  0.00    +0.000 C 
ATOM     30  C   UNL     1      -5.044  11.407  17.780  0.00  0.00    +0.000 C 
ATOM     31  C   UNL     1      -3.617  11.553  18.285  0.00  0.00    +0.000 C 
ENDBRANCH  20  23
ENDBRANCH   3  17
TORSDOF 4
ENDMDL
