MODEL 1
REMARK VINA RESULT:      -8.0      0.000      0.000
REMARK  Name = 
REMARK  6 active torsions:
REMARK  status: ('A' for Active; 'I' for Inactive)
REMARK    1  A    between atoms: C_1  and  O_2
REMARK    2  A    between atoms: O_2  and  C_3
REMARK    3  A    between atoms: C_5  and  C_6
REMARK    4  A    between atoms: C_6  and  N_7
REMARK    5  A    between atoms: N_14  and  C_15
REMARK    6  A    between atoms: C_20  and  C_21
REMARK                            x       y       z     vdW  Elec       q    Type
REMARK                         _______ _______ _______ _____ _____    ______ ____
ROOT
ATOM      1  N   UNL     1       0.991  10.133  18.972  0.00  0.00    +0.000 N 
ATOM      2  C   UNL     1       1.772   9.678  17.915  0.00  0.00    +0.000 A 
ATOM      3  N   UNL     1       2.417   8.552  17.868  0.00  0.00    +0.000 NA
ATOM      4  C   UNL     1       2.247   7.784  18.977  0.00  0.00    +0.000 A 
ATOM      5  C   UNL     1       1.512   8.122  20.089  0.00  0.00    +0.000 A 
ATOM      6  C   UNL     1       1.576   7.022  20.938  0.00  0.00    +0.000 A 
ATOM      7  N   UNL     1       2.248   6.006  20.393  0.00  0.00    +0.000 NA
ATOM      8  N   UNL     1       2.675   6.472  19.178  0.00  0.00    +0.000 N 
ATOM      9  C   UNL     1       0.847   9.393  20.148  0.00  0.00    +0.000 A 
ATOM     10  O   UNL     1       0.218   9.763  21.133  0.00  0.00    +0.000 OA
ENDROOT
BRANCH   8  11
ATOM     11  C   UNL     1       3.472   5.661  18.317  0.00  0.00    +0.000 A 
ATOM     12  C   UNL     1       4.830   5.987  18.148  0.00  0.00    +0.000 A 
ATOM     13  C   UNL     1       5.661   5.198  17.351  0.00  0.00    +0.000 A 
ATOM     14  C   UNL     1       5.143   4.086  16.698  0.00  0.00    +0.000 A 
ATOM     15  C   UNL     1       3.794   3.761  16.840  0.00  0.00    +0.000 A 
ATOM     16  C   UNL     1       2.937   4.537  17.645  0.00  0.00    +0.000 A 
ATOM     17  C   UNL     1       1.481   4.154  17.686  0.00  0.00    +0.000 C 
ENDBRANCH   8  11
BRANCH   1  18
ATOM     18  C   UNL     1       0.278  11.394  18.853  0.00  0.00    +0.000 C 
BRANCH  18  21
ATOM     19  C   UNL     1      -2.782  10.242  16.916  0.00  0.00    +0.000 A 
ATOM     20  C   UNL     1      -1.457  10.359  17.313  0.00  0.00    +0.000 A 
ATOM     21  C   UNL     1      -1.149  11.194  18.396  0.00  0.00    +0.000 A 
ATOM     22  C   UNL     1      -2.198  11.874  19.023  0.00  0.00    +0.000 A 
ATOM     23  C   UNL     1      -3.490  11.685  18.556  0.00  0.00    +0.000 A 
ATOM     24  N   UNL     1      -3.803  10.884  17.522  0.00  0.00    +0.000 NA
BRANCH  19  26
ATOM     25  C   UNL     1      -3.301  10.169  14.638  0.00  0.00    +0.000 C 
ATOM     26  O   UNL     1      -3.040   9.428  15.829  0.00  0.00    +0.000 OA
ENDBRANCH  19  26
ENDBRANCH  18  21
ENDBRANCH   1  18
TORSDOF 4
ENDMDL
MODEL 2
REMARK VINA RESULT:      -7.9      2.750      7.745
REMARK  Name = 
REMARK  6 active torsions:
REMARK  status: ('A' for Active; 'I' for Inactive)
REMARK    1  A    between atoms: C_1  and  O_2
REMARK    2  A    between atoms: O_2  and  C_3
REMARK    3  A    between atoms: C_5  and  C_6
REMARK    4  A    between atoms: C_6  and  N_7
REMARK    5  A    between atoms: N_14  and  C_15
REMARK    6  A    between atoms: C_20  and  C_21
REMARK                            x       y       z     vdW  Elec       q    Type
REMARK                         _______ _______ _______ _____ _____    ______ ____
ROOT
ATOM      1  N   UNL     1       2.504   6.604  18.566  0.00  0.00    +0.000 N 
ATOM      2  C   UNL     1       2.332   7.704  17.734  0.00  0.00    +0.000 A 
ATOM      3  N   UNL     1       1.827   8.852  18.073  0.00  0.00    +0.000 NA
ATOM      4  C   UNL     1       1.478   8.922  19.386  0.00  0.00    +0.000 A 
ATOM      5  C   UNL     1       1.586   7.905  20.306  0.00  0.00    +0.000 A 
ATOM      6  C   UNL     1       1.166   8.442  21.518  0.00  0.00    +0.000 A 
ATOM      7  N   UNL     1       0.869   9.739  21.417  0.00  0.00    +0.000 NA
ATOM      8  N   UNL     1       1.052  10.045  20.095  0.00  0.00    +0.000 N 
ATOM      9  C   UNL     1       2.099   6.626  19.903  0.00  0.00    +0.000 A 
ATOM     10  O   UNL     1       2.173   5.674  20.672  0.00  0.00    +0.000 OA
ENDROOT
BRANCH   8  11
ATOM     11  C   UNL     1       0.787  11.356  19.597  0.00  0.00    +0.000 A 
ATOM     12  C   UNL     1       1.722  12.376  19.852  0.00  0.00    +0.000 A 
ATOM     13  C   UNL     1       1.528  13.663  19.349  0.00  0.00    +0.000 A 
ATOM     14  C   UNL     1       0.392  13.953  18.603  0.00  0.00    +0.000 A 
ATOM     15  C   UNL     1      -0.554  12.956  18.360  0.00  0.00    +0.000 A 
ATOM     16  C   UNL     1      -0.377  11.648  18.849  0.00  0.00    +0.000 A 
ATOM     17  C   UNL     1      -1.480  10.653  18.598  0.00  0.00    +0.000 C 
ENDBRANCH   8  11
BRANCH   1  18
ATOM     18  C   UNL     1       3.143   5.404  18.054  0.00  0.00    +0.000 C 
BRANCH  18  21
ATOM     19  C   UNL     1       6.731   5.782  16.862  0.00  0.00    +0.000 A 
ATOM     20  C   UNL     1       5.345   5.705  16.826  0.00  0.00    +0.000 A 
ATOM     21  C   UNL     1       4.649   5.533  18.030  0.00  0.00    +0.000 A 
ATOM     22  C   UNL     1       5.390   5.444  19.213  0.00  0.00    +0.000 A 
ATOM     23  C   UNL     1       6.771   5.540  19.145  0.00  0.00    +0.000 A 
ATOM     24  N   UNL     1       7.454   5.709  17.998  0.00  0.00    +0.000 NA
BRANCH  19  26
ATOM     25  C   UNL     1       7.038   4.904  14.717  0.00  0.00    +0.000 C 
ATOM     26  O   UNL     1       7.381   5.928  15.651  0.00  0.00    +0.000 OA
ENDBRANCH  19  26
ENDBRANCH  18  21
ENDBRANCH   1  18
TORSDOF 4
ENDMDL
MODEL 3
REMARK VINA RESULT:      -7.9      2.801      7.864
REMARK  Name = 
REMARK  6 active torsions:
REMARK  status: ('A' for Active; 'I' for Inactive)
REMARK    1  A    between atoms: C_1  and  O_2
REMARK    2  A    between atoms: O_2  and  C_3
REMARK    3  A    between atoms: C_5  and  C_6
REMARK    4  A    between atoms: C_6  and  N_7
REMARK    5  A    between atoms: N_14  and  C_15
REMARK    6  A    between atoms: C_20  and  C_21
REMARK                            x       y       z     vdW  Elec       q    Type
REMARK                         _______ _______ _______ _____ _____    ______ ____
ROOT
ATOM      1  N   UNL     1       2.863   6.881  18.319  0.00  0.00    +0.000 N 
ATOM      2  C   UNL     1       2.609   8.010  17.548  0.00  0.00    +0.000 A 
ATOM      3  N   UNL     1       1.937   9.058  17.921  0.00  0.00    +0.000 NA
ATOM      4  C   UNL     1       1.493   8.987  19.204  0.00  0.00    +0.000 A 
ATOM      5  C   UNL     1       1.668   7.927  20.063  0.00  0.00    +0.000 A 
ATOM      6  C   UNL     1       1.100   8.317  21.271  0.00  0.00    +0.000 A 
ATOM      7  N   UNL     1       0.645   9.571  21.230  0.00  0.00    +0.000 NA
ATOM      8  N   UNL     1       0.878   9.993  19.949  0.00  0.00    +0.000 N 
ATOM      9  C   UNL     1       2.368   6.755  19.619  0.00  0.00    +0.000 A 
ATOM     10  O   UNL     1       2.511   5.765  20.329  0.00  0.00    +0.000 OA
ENDROOT
BRANCH   8  11
ATOM     11  C   UNL     1       0.481  11.294  19.518  0.00  0.00    +0.000 A 
ATOM     12  C   UNL     1       1.270  12.398  19.888  0.00  0.00    +0.000 A 
ATOM     13  C   UNL     1       0.947  13.685  19.454  0.00  0.00    +0.000 A 
ATOM     14  C   UNL     1      -0.177  13.887  18.662  0.00  0.00    +0.000 A 
ATOM     15  C   UNL     1      -0.981  12.805  18.304  0.00  0.00    +0.000 A 
ATOM     16  C   UNL     1      -0.671  11.496  18.722  0.00  0.00    +0.000 A 
ATOM     17  C   UNL     1      -1.630  10.397  18.346  0.00  0.00    +0.000 C 
ENDBRANCH   8  11
BRANCH   1  18
ATOM     18  C   UNL     1       3.685   5.810  17.782  0.00  0.00    +0.000 C 
BRANCH  18  21
ATOM     19  C   UNL     1       7.272   7.064  17.767  0.00  0.00    +0.000 A 
ATOM     20  C   UNL     1       5.926   6.958  17.446  0.00  0.00    +0.000 A 
ATOM     21  C   UNL     1       5.148   6.002  18.113  0.00  0.00    +0.000 A 
ATOM     22  C   UNL     1       5.772   5.197  19.072  0.00  0.00    +0.000 A 
ATOM     23  C   UNL     1       7.122   5.386  19.327  0.00  0.00    +0.000 A 
ATOM     24  N   UNL     1       7.881   6.301  18.699  0.00  0.00    +0.000 NA
BRANCH  19  26
ATOM     25  C   UNL     1       8.189   9.214  17.800  0.00  0.00    +0.000 C 
ATOM     26  O   UNL     1       8.010   8.002  17.069  0.00  0.00    +0.000 OA
ENDBRANCH  19  26
ENDBRANCH  18  21
ENDBRANCH   1  18
TORSDOF 4
ENDMDL
MODEL 4
REMARK VINA RESULT:      -7.8      1.059      1.645
REMARK  Name = 
REMARK  6 active torsions:
REMARK  status: ('A' for Active; 'I' for Inactive)
REMARK    1  A    between atoms: C_1  and  O_2
REMARK    2  A    between atoms: O_2  and  C_3
REMARK    3  A    between atoms: C_5  and  C_6
REMARK    4  A    between atoms: C_6  and  N_7
REMARK    5  A    between atoms: N_14  and  C_15
REMARK    6  A    between atoms: C_20  and  C_21
REMARK                            x       y       z     vdW  Elec       q    Type
REMARK                         _______ _______ _______ _____ _____    ______ ____
ROOT
ATOM      1  N   UNL     1       0.952  10.103  18.876  0.00  0.00    +0.000 N 
ATOM      2  C   UNL     1       1.723   9.626  17.823  0.00  0.00    +0.000 A 
ATOM      3  N   UNL     1       2.382   8.506  17.801  0.00  0.00    +0.000 NA
ATOM      4  C   UNL     1       2.239   7.772  18.936  0.00  0.00    +0.000 A 
ATOM      5  C   UNL     1       1.516   8.135  20.048  0.00  0.00    +0.000 A 
ATOM      6  C   UNL     1       1.608   7.064  20.930  0.00  0.00    +0.000 A 
ATOM      7  N   UNL     1       2.285   6.040  20.408  0.00  0.00    +0.000 NA
ATOM      8  N   UNL     1       2.688   6.473  19.172  0.00  0.00    +0.000 N 
ATOM      9  C   UNL     1       0.835   9.399  20.077  0.00  0.00    +0.000 A 
ATOM     10  O   UNL     1       0.215   9.791  21.060  0.00  0.00    +0.000 OA
ENDROOT
BRANCH   8  11
ATOM     11  C   UNL     1       3.483   5.645  18.325  0.00  0.00    +0.000 A 
ATOM     12  C   UNL     1       4.842   5.966  18.151  0.00  0.00    +0.000 A 
ATOM     13  C   UNL     1       5.671   5.161  17.367  0.00  0.00    +0.000 A 
ATOM     14  C   UNL     1       5.150   4.039  16.733  0.00  0.00    +0.000 A 
ATOM     15  C   UNL     1       3.800   3.720  16.881  0.00  0.00    +0.000 A 
ATOM     16  C   UNL     1       2.946   4.511  17.672  0.00  0.00    +0.000 A 
ATOM     17  C   UNL     1       1.488   4.133  17.720  0.00  0.00    +0.000 C 
ENDBRANCH   8  11
BRANCH   1  18
ATOM     18  C   UNL     1       0.220  11.350  18.729  0.00  0.00    +0.000 C 
BRANCH  18  21
ATOM     19  C   UNL     1      -3.569  11.591  18.570  0.00  0.00    +0.000 A 
ATOM     20  C   UNL     1      -2.257  11.876  18.924  0.00  0.00    +0.000 A 
ATOM     21  C   UNL     1      -1.226  11.115  18.356  0.00  0.00    +0.000 A 
ATOM     22  C   UNL     1      -1.574  10.099  17.459  0.00  0.00    +0.000 A 
ATOM     23  C   UNL     1      -2.913   9.898  17.164  0.00  0.00    +0.000 A 
ATOM     24  N   UNL     1      -3.914  10.621  17.697  0.00  0.00    +0.000 NA
BRANCH  19  26
ATOM     25  C   UNL     1      -5.845  12.118  18.602  0.00  0.00    +0.000 C 
ATOM     26  O   UNL     1      -4.557  12.347  19.171  0.00  0.00    +0.000 OA
ENDBRANCH  19  26
ENDBRANCH  18  21
ENDBRANCH   1  18
TORSDOF 4
ENDMDL
MODEL 5
REMARK VINA RESULT:      -7.7      2.703      7.726
REMARK  Name = 
REMARK  6 active torsions:
REMARK  status: ('A' for Active; 'I' for Inactive)
REMARK    1  A    between atoms: C_1  and  O_2
REMARK    2  A    between atoms: O_2  and  C_3
REMARK    3  A    between atoms: C_5  and  C_6
REMARK    4  A    between atoms: C_6  and  N_7
REMARK    5  A    between atoms: N_14  and  C_15
REMARK    6  A    between atoms: C_20  and  C_21
REMARK                            x       y       z     vdW  Elec       q    Type
REMARK                         _______ _______ _______ _____ _____    ______ ____
ROOT
ATOM      1  N   UNL     1       2.765   6.394  18.379  0.00  0.00    +0.000 N 
ATOM      2  C   UNL     1       2.538   7.472  17.531  0.00  0.00    +0.000 A 
ATOM      3  N   UNL     1       1.978   8.599  17.856  0.00  0.00    +0.000 NA
ATOM      4  C   UNL     1       1.629   8.671  19.169  0.00  0.00    +0.000 A 
ATOM      5  C   UNL     1       1.790   7.674  20.103  0.00  0.00    +0.000 A 
ATOM      6  C   UNL     1       1.348   8.207  21.309  0.00  0.00    +0.000 A 
ATOM      7  N   UNL     1       0.986   9.486  21.190  0.00  0.00    +0.000 NA
ATOM      8  N   UNL     1       1.151   9.781  19.863  0.00  0.00    +0.000 N 
ATOM      9  C   UNL     1       2.364   6.416  19.717  0.00  0.00    +0.000 A 
ATOM     10  O   UNL     1       2.487   5.480  20.499  0.00  0.00    +0.000 OA
ENDROOT
BRANCH   8  11
ATOM     11  C   UNL     1       0.820  11.070  19.348  0.00  0.00    +0.000 A 
ATOM     12  C   UNL     1       1.767  12.105  19.459  0.00  0.00    +0.000 A 
ATOM     13  C   UNL     1       1.507  13.370  18.931  0.00  0.00    +0.000 A 
ATOM     14  C   UNL     1       0.292  13.624  18.304  0.00  0.00    +0.000 A 
ATOM     15  C   UNL     1      -0.664  12.613  18.205  0.00  0.00    +0.000 A 
ATOM     16  C   UNL     1      -0.422  11.326  18.721  0.00  0.00    +0.000 A 
ATOM     17  C   UNL     1      -1.536  10.316  18.632  0.00  0.00    +0.000 C 
ENDBRANCH   8  11
BRANCH   1  18
ATOM     18  C   UNL     1       3.461   5.219  17.882  0.00  0.00    +0.000 C 
BRANCH  18  21
ATOM     19  C   UNL     1       6.992   6.569  17.493  0.00  0.00    +0.000 A 
ATOM     20  C   UNL     1       5.777   6.245  18.079  0.00  0.00    +0.000 A 
ATOM     21  C   UNL     1       4.819   5.566  17.314  0.00  0.00    +0.000 A 
ATOM     22  C   UNL     1       5.138   5.250  15.989  0.00  0.00    +0.000 A 
ATOM     23  C   UNL     1       6.383   5.610  15.497  0.00  0.00    +0.000 A 
ATOM     24  N   UNL     1       7.314   6.257  16.220  0.00  0.00    +0.000 NA
BRANCH  19  26
ATOM     25  C   UNL     1       8.048   8.619  17.869  0.00  0.00    +0.000 C 
ATOM     26  O   UNL     1       7.900   7.259  18.274  0.00  0.00    +0.000 OA
ENDBRANCH  19  26
ENDBRANCH  18  21
ENDBRANCH   1  18
TORSDOF 4
ENDMDL
MODEL 6
REMARK VINA RESULT:      -7.5      5.715      8.867
REMARK  Name = 
REMARK  6 active torsions:
REMARK  status: ('A' for Active; 'I' for Inactive)
REMARK    1  A    between atoms: C_1  and  O_2
REMARK    2  A    between atoms: O_2  and  C_3
REMARK    3  A    between atoms: C_5  and  C_6
REMARK    4  A    between atoms: C_6  and  N_7
REMARK    5  A    between atoms: N_14  and  C_15
REMARK    6  A    between atoms: C_20  and  C_21
REMARK                            x       y       z     vdW  Elec       q    Type
REMARK                         _______ _______ _______ _____ _____    ______ ____
ROOT
ATOM      1  N   UNL     1       6.278   4.515  15.125  0.00  0.00    +0.000 N 
ATOM      2  C   UNL     1       5.232   3.644  15.409  0.00  0.00    +0.000 A 
ATOM      3  N   UNL     1       4.589   3.558  16.534  0.00  0.00    +0.000 NA
ATOM      4  C   UNL     1       5.013   4.451  17.468  0.00  0.00    +0.000 A 
ATOM      5  C   UNL     1       6.039   5.354  17.316  0.00  0.00    +0.000 A 
ATOM      6  C   UNL     1       6.079   6.088  18.497  0.00  0.00    +0.000 A 
ATOM      7  N   UNL     1       5.104   5.739  19.338  0.00  0.00    +0.000 NA
ATOM      8  N   UNL     1       4.440   4.718  18.711  0.00  0.00    +0.000 N 
ATOM      9  C   UNL     1       6.774   5.400  16.084  0.00  0.00    +0.000 A 
ATOM     10  O   UNL     1       7.727   6.154  15.914  0.00  0.00    +0.000 OA
ENDROOT
BRANCH   8  11
ATOM     11  C   UNL     1       3.343   4.058  19.340  0.00  0.00    +0.000 A 
ATOM     12  C   UNL     1       3.607   3.160  20.390  0.00  0.00    +0.000 A 
ATOM     13  C   UNL     1       2.564   2.524  21.065  0.00  0.00    +0.000 A 
ATOM     14  C   UNL     1       1.247   2.760  20.687  0.00  0.00    +0.000 A 
ATOM     15  C   UNL     1       0.971   3.632  19.634  0.00  0.00    +0.000 A 
ATOM     16  C   UNL     1       2.005   4.293  18.944  0.00  0.00    +0.000 A 
ATOM     17  C   UNL     1       1.621   5.164  17.776  0.00  0.00    +0.000 C 
ENDBRANCH   8  11
BRANCH   1  18
ATOM     18  C   UNL     1       6.860   4.535  13.794  0.00  0.00    +0.000 C 
BRANCH  18  21
ATOM     19  C   UNL     1       5.925   1.796  11.331  0.00  0.00    +0.000 A 
ATOM     20  C   UNL     1       6.671   2.536  12.238  0.00  0.00    +0.000 A 
ATOM     21  C   UNL     1       6.088   3.666  12.827  0.00  0.00    +0.000 A 
ATOM     22  C   UNL     1       4.778   3.995  12.465  0.00  0.00    +0.000 A 
ATOM     23  C   UNL     1       4.113   3.189  11.555  0.00  0.00    +0.000 A 
ATOM     24  N   UNL     1       4.657   2.099  10.984  0.00  0.00    +0.000 NA
BRANCH  19  26
ATOM     25  C   UNL     1       6.046  -0.536  11.253  0.00  0.00    +0.000 C 
ATOM     26  O   UNL     1       6.545   0.704  10.754  0.00  0.00    +0.000 OA
ENDBRANCH  19  26
ENDBRANCH  18  21
ENDBRANCH   1  18
TORSDOF 4
ENDMDL
MODEL 7
REMARK VINA RESULT:      -7.4      0.672      1.466
REMARK  Name = 
REMARK  6 active torsions:
REMARK  status: ('A' for Active; 'I' for Inactive)
REMARK    1  A    between atoms: C_1  and  O_2
REMARK    2  A    between atoms: O_2  and  C_3
REMARK    3  A    between atoms: C_5  and  C_6
REMARK    4  A    between atoms: C_6  and  N_7
REMARK    5  A    between atoms: N_14  and  C_15
REMARK    6  A    between atoms: C_20  and  C_21
REMARK                            x       y       z     vdW  Elec       q    Type
REMARK                         _______ _______ _______ _____ _____    ______ ____
ROOT
ATOM      1  N   UNL     1       1.205   9.916  18.957  0.00  0.00    +0.000 N 
ATOM      2  C   UNL     1       1.820   9.251  17.903  0.00  0.00    +0.000 A 
ATOM      3  N   UNL     1       2.289   8.040  17.930  0.00  0.00    +0.000 NA
ATOM      4  C   UNL     1       2.105   7.415  19.124  0.00  0.00    +0.000 A 
ATOM      5  C   UNL     1       1.523   7.964  20.242  0.00  0.00    +0.000 A 
ATOM      6  C   UNL     1       1.500   6.953  21.196  0.00  0.00    +0.000 A 
ATOM      7  N   UNL     1       1.970   5.799  20.716  0.00  0.00    +0.000 NA
ATOM      8  N   UNL     1       2.354   6.078  19.432  0.00  0.00    +0.000 N 
ATOM      9  C   UNL     1       1.056   9.322  20.212  0.00  0.00    +0.000 A 
ATOM     10  O   UNL     1       0.573   9.874  21.195  0.00  0.00    +0.000 OA
ENDROOT
BRANCH   8  11
ATOM     11  C   UNL     1       2.950   5.077  18.608  0.00  0.00    +0.000 A 
ATOM     12  C   UNL     1       2.111   4.214  17.880  0.00  0.00    +0.000 A 
ATOM     13  C   UNL     1       2.647   3.249  17.026  0.00  0.00    +0.000 A 
ATOM     14  C   UNL     1       4.025   3.120  16.904  0.00  0.00    +0.000 A 
ATOM     15  C   UNL     1       4.870   3.955  17.635  0.00  0.00    +0.000 A 
ATOM     16  C   UNL     1       4.354   4.942  18.496  0.00  0.00    +0.000 A 
ATOM     17  C   UNL     1       5.337   5.754  19.298  0.00  0.00    +0.000 C 
ENDBRANCH   8  11
BRANCH   1  18
ATOM     18  C   UNL     1       0.674  11.254  18.755  0.00  0.00    +0.000 C 
BRANCH  18  21
ATOM     19  C   UNL     1      -2.784  10.543  17.350  0.00  0.00    +0.000 A 
ATOM     20  C   UNL     1      -1.407  10.488  17.518  0.00  0.00    +0.000 A 
ATOM     21  C   UNL     1      -0.823  11.241  18.545  0.00  0.00    +0.000 A 
ATOM     22  C   UNL     1      -1.661  12.018  19.351  0.00  0.00    +0.000 A 
ATOM     23  C   UNL     1      -3.026  12.000  19.108  0.00  0.00    +0.000 A 
ATOM     24  N   UNL     1      -3.603  11.279  18.130  0.00  0.00    +0.000 NA
BRANCH  19  26
ATOM     25  C   UNL     1      -2.981  10.337  15.030  0.00  0.00    +0.000 C 
ATOM     26  O   UNL     1      -3.318   9.805  16.310  0.00  0.00    +0.000 OA
ENDBRANCH  19  26
ENDBRANCH  18  21
ENDBRANCH   1  18
TORSDOF 4
ENDMDL
MODEL 8
REMARK VINA RESULT:      -7.4      6.012      8.847
REMARK  Name = 
REMARK  6 active torsions:
REMARK  status: ('A' for Active; 'I' for Inactive)
REMARK    1  A    between atoms: C_1  and  O_2
REMARK    2  A    between atoms: O_2  and  C_3
REMARK    3  A    between atoms: C_5  and  C_6
REMARK    4  A    between atoms: C_6  and  N_7
REMARK    5  A    between atoms: N_14  and  C_15
REMARK    6  A    between atoms: C_20  and  C_21
REMARK                            x       y       z     vdW  Elec       q    Type
REMARK                         _______ _______ _______ _____ _____    ______ ____
ROOT
ATOM      1  N   UNL     1       6.155   4.696  15.172  0.00  0.00    +0.000 N 
ATOM      2  C   UNL     1       5.002   3.956  15.405  0.00  0.00    +0.000 A 
ATOM      3  N   UNL     1       4.397   3.817  16.547  0.00  0.00    +0.000 NA
ATOM      4  C   UNL     1       4.986   4.508  17.559  0.00  0.00    +0.000 A 
ATOM      5  C   UNL     1       6.130   5.266  17.461  0.00  0.00    +0.000 A 
ATOM      6  C   UNL     1       6.326   5.824  18.719  0.00  0.00    +0.000 A 
ATOM      7  N   UNL     1       5.343   5.513  19.566  0.00  0.00    +0.000 NA
ATOM      8  N   UNL     1       4.509   4.690  18.856  0.00  0.00    +0.000 N 
ATOM      9  C   UNL     1       6.816   5.367  16.204  0.00  0.00    +0.000 A 
ATOM     10  O   UNL     1       7.864   5.991  16.073  0.00  0.00    +0.000 OA
ENDROOT
BRANCH   8  11
ATOM     11  C   UNL     1       3.350   4.118  19.460  0.00  0.00    +0.000 A 
ATOM     12  C   UNL     1       2.150   4.852  19.445  0.00  0.00    +0.000 A 
ATOM     13  C   UNL     1       0.979   4.316  19.983  0.00  0.00    +0.000 A 
ATOM     14  C   UNL     1       0.995   3.051  20.559  0.00  0.00    +0.000 A 
ATOM     15  C   UNL     1       2.183   2.320  20.599  0.00  0.00    +0.000 A 
ATOM     16  C   UNL     1       3.375   2.835  20.055  0.00  0.00    +0.000 A 
ATOM     17  C   UNL     1       4.625   2.007  20.203  0.00  0.00    +0.000 C 
ENDBRANCH   8  11
BRANCH   1  18
ATOM     18  C   UNL     1       6.682   4.807  13.822  0.00  0.00    +0.000 C 
BRANCH  18  21
ATOM     19  C   UNL     1       5.981   1.903  11.473  0.00  0.00    +0.000 A 
ATOM     20  C   UNL     1       6.650   2.721  12.374  0.00  0.00    +0.000 A 
ATOM     21  C   UNL     1       5.994   3.856  12.869  0.00  0.00    +0.000 A 
ATOM     22  C   UNL     1       4.693   4.111  12.425  0.00  0.00    +0.000 A 
ATOM     23  C   UNL     1       4.107   3.230  11.529  0.00  0.00    +0.000 A 
ATOM     24  N   UNL     1       4.721   2.134  11.048  0.00  0.00    +0.000 NA
BRANCH  19  26
ATOM     25  C   UNL     1       6.029  -0.427  11.306  0.00  0.00    +0.000 C 
ATOM     26  O   UNL     1       6.671   0.807  10.991  0.00  0.00    +0.000 OA
ENDBRANCH  19  26
ENDBRANCH  18  21
ENDBRANCH   1  18
TORSDOF 4
ENDMDL
MODEL 9
REMARK VINA RESULT:      -7.4      2.414      4.234
REMARK  Name = 
REMARK  6 active torsions:
REMARK  status: ('A' for Active; 'I' for Inactive)
REMARK    1  A    between atoms: C_1  and  O_2
REMARK    2  A    between atoms: O_2  and  C_3
REMARK    3  A    between atoms: C_5  and  C_6
REMARK    4  A    between atoms: C_6  and  N_7
REMARK    5  A    between atoms: N_14  and  C_15
REMARK    6  A    between atoms: C_20  and  C_21
REMARK                            x       y       z     vdW  Elec       q    Type
REMARK                         _______ _______ _______ _____ _____    ______ ____
ROOT
ATOM      1  N   UNL     1       1.163  10.154  18.987  0.00  0.00    +0.000 N 
ATOM      2  C   UNL     1       1.956   9.682  17.947  0.00  0.00    +0.000 A 
ATOM      3  N   UNL     1       2.546   8.526  17.896  0.00  0.00    +0.000 NA
ATOM      4  C   UNL     1       2.302   7.746  18.983  0.00  0.00    +0.000 A 
ATOM      5  C   UNL     1       1.548   8.099  20.078  0.00  0.00    +0.000 A 
ATOM      6  C   UNL     1       1.530   6.981  20.905  0.00  0.00    +0.000 A 
ATOM      7  N   UNL     1       2.169   5.943  20.361  0.00  0.00    +0.000 NA
ATOM      8  N   UNL     1       2.658   6.411  19.170  0.00  0.00    +0.000 N 
ATOM      9  C   UNL     1       0.944   9.400  20.142  0.00  0.00    +0.000 A 
ATOM     10  O   UNL     1       0.302   9.781  21.114  0.00  0.00    +0.000 OA
ENDROOT
BRANCH   8  11
ATOM     11  C   UNL     1       3.443   5.578  18.318  0.00  0.00    +0.000 A 
ATOM     12  C   UNL     1       4.808   5.878  18.152  0.00  0.00    +0.000 A 
ATOM     13  C   UNL     1       5.626   5.066  17.364  0.00  0.00    +0.000 A 
ATOM     14  C   UNL     1       5.089   3.959  16.718  0.00  0.00    +0.000 A 
ATOM     15  C   UNL     1       3.734   3.661  16.858  0.00  0.00    +0.000 A 
ATOM     16  C   UNL     1       2.890   4.458  17.654  0.00  0.00    +0.000 A 
ATOM     17  C   UNL     1       1.426   4.104  17.694  0.00  0.00    +0.000 C 
ENDBRANCH   8  11
BRANCH   1  18
ATOM     18  C   UNL     1       0.518  11.451  18.871  0.00  0.00    +0.000 C 
BRANCH  18  21
ATOM     19  C   UNL     1       2.544  14.020  20.803  0.00  0.00    +0.000 A 
ATOM     20  C   UNL     1       1.698  12.950  20.548  0.00  0.00    +0.000 A 
ATOM     21  C   UNL     1       1.459  12.582  19.217  0.00  0.00    +0.000 A 
ATOM     22  C   UNL     1       2.086  13.319  18.207  0.00  0.00    +0.000 A 
ATOM     23  C   UNL     1       2.921  14.367  18.564  0.00  0.00    +0.000 A 
ATOM     24  N   UNL     1       3.164  14.729  19.837  0.00  0.00    +0.000 NA
BRANCH  19  26
ATOM     25  C   UNL     1       3.995  14.995  22.355  0.00  0.00    +0.000 C 
ATOM     26  O   UNL     1       2.734  14.366  22.128  0.00  0.00    +0.000 OA
ENDBRANCH  19  26
ENDBRANCH  18  21
ENDBRANCH   1  18
TORSDOF 4
ENDMDL
