MODEL 1
REMARK VINA RESULT:      -9.2      0.000      0.000
REMARK  Name = 
REMARK  6 active torsions:
REMARK  status: ('A' for Active; 'I' for Inactive)
REMARK    1  A    between atoms: C_1  and  C_2
REMARK    2  A    between atoms: N_4  and  C_5
REMARK    3  A    between atoms: C_7  and  S_8
REMARK    4  A    between atoms: S_8  and  N_11
REMARK    5  A    between atoms: N_11  and  C_12
REMARK    6  A    between atoms: C_24  and  O_25
REMARK                            x       y       z     vdW  Elec       q    Type
REMARK                         _______ _______ _______ _____ _____    ______ ____
ROOT
ATOM      1  S   UNL     1       2.737   4.835  19.378  0.00  0.00    +0.000 S 
ATOM      2  O   UNL     1       1.732   4.977  18.348  0.00  0.00    +0.000 OA
ATOM      3  O   UNL     1       2.667   3.737  20.319  0.00  0.00    +0.000 OA
ENDROOT
BRANCH   1   6
ATOM      4  C   UNL     1       5.679   4.180  16.675  0.00  0.00    +0.000 A 
ATOM      5  C   UNL     1       4.429   4.267  17.290  0.00  0.00    +0.000 A 
ATOM      6  C   UNL     1       4.327   4.779  18.585  0.00  0.00    +0.000 A 
ATOM      7  C   UNL     1       5.465   5.190  19.287  0.00  0.00    +0.000 A 
ATOM      8  C   UNL     1       6.720   5.094  18.684  0.00  0.00    +0.000 A 
ATOM      9  C   UNL     1       6.821   4.579  17.391  0.00  0.00    +0.000 A 
BRANCH   4  13
ATOM     10  C   UNL     1       6.272   3.603  12.993  0.00  0.00    +0.000 C 
ATOM     11  C   UNL     1       6.296   4.399  14.269  0.00  0.00    +0.000 C 
ATOM     12  O   UNL     1       6.691   5.560  14.272  0.00  0.00    +0.000 OA
ATOM     13  N   UNL     1       5.859   3.682  15.365  0.00  0.00    +0.000 N 
ATOM     14  H   UNL     1       5.747   2.675  15.280  0.00  0.00    +0.000 HD
ENDBRANCH   4  13
BRANCH   9  15
ATOM     15  O   UNL     1       8.048   4.459  16.789  0.00  0.00    +0.000 OA
ATOM     16  H   UNL     1       8.514   5.309  16.870  0.00  0.00    +0.000 HD
ENDBRANCH   9  15
ENDBRANCH   1   6
BRANCH   1  17
ATOM     17  N   UNL     1       2.761   6.291  20.214  0.00  0.00    +0.000 N 
ATOM     18  H   UNL     1       3.516   6.368  20.892  0.00  0.00    +0.000 HD
BRANCH  17  19
ATOM     19  C   UNL     1       2.264   7.478  19.602  0.00  0.00    +0.000 A 
ATOM     20  C   UNL     1       2.650   7.700  18.277  0.00  0.00    +0.000 A 
ATOM     21  C   UNL     1       2.199   8.822  17.593  0.00  0.00    +0.000 A 
ATOM     22  C   UNL     1       1.348   9.723  18.229  0.00  0.00    +0.000 A 
ATOM     23  C   UNL     1       0.936   9.515  19.554  0.00  0.00    +0.000 A 
ATOM     24  C   UNL     1       0.063  10.427  20.171  0.00  0.00    +0.000 A 
ATOM     25  C   UNL     1      -0.364  10.236  21.483  0.00  0.00    +0.000 A 
ATOM     26  C   UNL     1       0.080   9.131  22.199  0.00  0.00    +0.000 A 
ATOM     27  C   UNL     1       0.948   8.214  21.601  0.00  0.00    +0.000 A 
ATOM     28  C   UNL     1       1.395   8.378  20.270  0.00  0.00    +0.000 A 
ENDBRANCH  17  19
ENDBRANCH   1  17
TORSDOF 5
ENDMDL
MODEL 2
REMARK VINA RESULT:      -8.5      3.258      4.363
REMARK  Name = 
REMARK  6 active torsions:
REMARK  status: ('A' for Active; 'I' for Inactive)
REMARK    1  A    between atoms: C_1  and  C_2
REMARK    2  A    between atoms: N_4  and  C_5
REMARK    3  A    between atoms: C_7  and  S_8
REMARK    4  A    between atoms: S_8  and  N_11
REMARK    5  A    between atoms: N_11  and  C_12
REMARK    6  A    between atoms: C_24  and  O_25
REMARK                            x       y       z     vdW  Elec       q    Type
REMARK                         _______ _______ _______ _____ _____    ______ ____
ROOT
ATOM      1  S   UNL     1       3.008   7.008  18.168  0.00  0.00    +0.000 S 
ATOM      2  O   UNL     1       2.825   7.253  19.581  0.00  0.00    +0.000 OA
ATOM      3  O   UNL     1       2.930   8.101  17.222  0.00  0.00    +0.000 OA
ENDROOT
BRANCH   1   6
ATOM      4  C   UNL     1       6.426   5.598  16.518  0.00  0.00    +0.000 A 
ATOM      5  C   UNL     1       5.213   6.261  16.710  0.00  0.00    +0.000 A 
ATOM      6  C   UNL     1       4.579   6.204  17.952  0.00  0.00    +0.000 A 
ATOM      7  C   UNL     1       5.133   5.473  19.009  0.00  0.00    +0.000 A 
ATOM      8  C   UNL     1       6.338   4.796  18.822  0.00  0.00    +0.000 A 
ATOM      9  C   UNL     1       6.970   4.852  17.578  0.00  0.00    +0.000 A 
BRANCH   4  13
ATOM     10  C   UNL     1       7.840   5.048  13.063  0.00  0.00    +0.000 C 
ATOM     11  C   UNL     1       6.828   4.883  14.164  0.00  0.00    +0.000 C 
ATOM     12  O   UNL     1       5.847   4.164  14.006  0.00  0.00    +0.000 OA
ATOM     13  N   UNL     1       7.130   5.618  15.293  0.00  0.00    +0.000 N 
ATOM     14  H   UNL     1       7.856   6.327  15.237  0.00  0.00    +0.000 HD
ENDBRANCH   4  13
BRANCH   9  15
ATOM     15  O   UNL     1       8.146   4.177  17.370  0.00  0.00    +0.000 OA
ATOM     16  H   UNL     1       8.056   3.647  16.558  0.00  0.00    +0.000 HD
ENDBRANCH   9  15
ENDBRANCH   1   6
BRANCH   1  17
ATOM     17  N   UNL     1       1.895   5.823  17.749  0.00  0.00    +0.000 N 
ATOM     18  H   UNL     1       1.299   6.072  16.963  0.00  0.00    +0.000 HD
BRANCH  17  19
ATOM     19  C   UNL     1       2.192   4.448  17.977  0.00  0.00    +0.000 A 
ATOM     20  C   UNL     1       2.666   3.726  16.877  0.00  0.00    +0.000 A 
ATOM     21  C   UNL     1       2.999   2.384  17.009  0.00  0.00    +0.000 A 
ATOM     22  C   UNL     1       2.869   1.758  18.247  0.00  0.00    +0.000 A 
ATOM     23  C   UNL     1       2.407   2.465  19.368  0.00  0.00    +0.000 A 
ATOM     24  C   UNL     1       2.301   1.819  20.611  0.00  0.00    +0.000 A 
ATOM     25  C   UNL     1       1.851   2.502  21.739  0.00  0.00    +0.000 A 
ATOM     26  C   UNL     1       1.497   3.842  21.637  0.00  0.00    +0.000 A 
ATOM     27  C   UNL     1       1.597   4.500  20.409  0.00  0.00    +0.000 A 
ATOM     28  C   UNL     1       2.055   3.834  19.248  0.00  0.00    +0.000 A 
ENDBRANCH  17  19
ENDBRANCH   1  17
TORSDOF 5
ENDMDL
MODEL 3
REMARK VINA RESULT:      -8.4      1.771      2.625
REMARK  Name = 
REMARK  6 active torsions:
REMARK  status: ('A' for Active; 'I' for Inactive)
REMARK    1  A    between atoms: C_1  and  C_2
REMARK    2  A    between atoms: N_4  and  C_5
REMARK    3  A    between atoms: C_7  and  S_8
REMARK    4  A    between atoms: S_8  and  N_11
REMARK    5  A    between atoms: N_11  and  C_12
REMARK    6  A    between atoms: C_24  and  O_25
REMARK                            x       y       z     vdW  Elec       q    Type
REMARK                         _______ _______ _______ _____ _____    ______ ____
ROOT
ATOM      1  S   UNL     1       2.752   5.061  18.834  0.00  0.00    +0.000 S 
ATOM      2  O   UNL     1       1.585   5.208  17.993  0.00  0.00    +0.000 OA
ATOM      3  O   UNL     1       2.913   3.882  19.660  0.00  0.00    +0.000 OA
ENDROOT
BRANCH   1   6
ATOM      4  C   UNL     1       6.082   6.507  17.041  0.00  0.00    +0.000 A 
ATOM      5  C   UNL     1       4.974   6.363  17.877  0.00  0.00    +0.000 A 
ATOM      6  C   UNL     1       4.192   5.209  17.801  0.00  0.00    +0.000 A 
ATOM      7  C   UNL     1       4.490   4.198  16.881  0.00  0.00    +0.000 A 
ATOM      8  C   UNL     1       5.588   4.340  16.032  0.00  0.00    +0.000 A 
ATOM      9  C   UNL     1       6.367   5.496  16.108  0.00  0.00    +0.000 A 
BRANCH   4  13
ATOM     10  C   UNL     1       8.571   9.241  17.798  0.00  0.00    +0.000 C 
ATOM     11  C   UNL     1       7.935   7.889  17.976  0.00  0.00    +0.000 C 
ATOM     12  O   UNL     1       8.330   7.124  18.849  0.00  0.00    +0.000 OA
ATOM     13  N   UNL     1       6.924   7.641  17.067  0.00  0.00    +0.000 N 
ATOM     14  H   UNL     1       6.819   8.261  16.269  0.00  0.00    +0.000 HD
ENDBRANCH   4  13
BRANCH   9  15
ATOM     15  O   UNL     1       7.439   5.661  15.267  0.00  0.00    +0.000 OA
ATOM     16  H   UNL     1       7.847   6.525  15.456  0.00  0.00    +0.000 HD
ENDBRANCH   9  15
ENDBRANCH   1   6
BRANCH   1  17
ATOM     17  N   UNL     1       2.812   6.434  19.798  0.00  0.00    +0.000 N 
ATOM     18  H   UNL     1       3.650   6.503  20.371  0.00  0.00    +0.000 HD
BRANCH  17  19
ATOM     19  C   UNL     1       2.166   7.633  19.378  0.00  0.00    +0.000 A 
ATOM     20  C   UNL     1       2.332   7.989  18.036  0.00  0.00    +0.000 A 
ATOM     21  C   UNL     1       1.725   9.132  17.532  0.00  0.00    +0.000 A 
ATOM     22  C   UNL     1       0.937   9.921  18.368  0.00  0.00    +0.000 A 
ATOM     23  C   UNL     1       0.745   9.578  19.715  0.00  0.00    +0.000 A 
ATOM     24  C   UNL     1      -0.067  10.379  20.535  0.00  0.00    +0.000 A 
ATOM     25  C   UNL     1      -0.276  10.053  21.873  0.00  0.00    +0.000 A 
ATOM     26  C   UNL     1       0.328   8.924  22.411  0.00  0.00    +0.000 A 
ATOM     27  C   UNL     1       1.139   8.116  21.609  0.00  0.00    +0.000 A 
ATOM     28  C   UNL     1       1.366   8.418  20.247  0.00  0.00    +0.000 A 
ENDBRANCH  17  19
ENDBRANCH   1  17
TORSDOF 5
ENDMDL
MODEL 4
REMARK VINA RESULT:      -8.3      3.616      6.040
REMARK  Name = 
REMARK  6 active torsions:
REMARK  status: ('A' for Active; 'I' for Inactive)
REMARK    1  A    between atoms: C_1  and  C_2
REMARK    2  A    between atoms: N_4  and  C_5
REMARK    3  A    between atoms: C_7  and  S_8
REMARK    4  A    between atoms: S_8  and  N_11
REMARK    5  A    between atoms: N_11  and  C_12
REMARK    6  A    between atoms: C_24  and  O_25
REMARK                            x       y       z     vdW  Elec       q    Type
REMARK                         _______ _______ _______ _____ _____    ______ ____
ROOT
ATOM      1  S   UNL     1       0.525   9.834  21.104  0.00  0.00    +0.000 S 
ATOM      2  O   UNL     1      -0.755   9.294  21.504  0.00  0.00    +0.000 OA
ATOM      3  O   UNL     1       1.466  10.297  22.102  0.00  0.00    +0.000 OA
ENDROOT
BRANCH   1   6
ATOM      4  C   UNL     1       2.366   6.434  19.899  0.00  0.00    +0.000 A 
ATOM      5  C   UNL     1       1.687   7.383  20.665  0.00  0.00    +0.000 A 
ATOM      6  C   UNL     1       1.342   8.613  20.102  0.00  0.00    +0.000 A 
ATOM      7  C   UNL     1       1.687   8.920  18.781  0.00  0.00    +0.000 A 
ATOM      8  C   UNL     1       2.378   7.983  18.013  0.00  0.00    +0.000 A 
ATOM      9  C   UNL     1       2.724   6.754  18.578  0.00  0.00    +0.000 A 
BRANCH   4  13
ATOM     10  C   UNL     1       2.588   2.921  21.258  0.00  0.00    +0.000 C 
ATOM     11  C   UNL     1       1.898   4.092  20.613  0.00  0.00    +0.000 C 
ATOM     12  O   UNL     1       0.709   4.029  20.318  0.00  0.00    +0.000 OA
ATOM     13  N   UNL     1       2.739   5.166  20.398  0.00  0.00    +0.000 N 
ATOM     14  H   UNL     1       3.741   5.033  20.499  0.00  0.00    +0.000 HD
ENDBRANCH   4  13
BRANCH   9  15
ATOM     15  O   UNL     1       3.420   5.828  17.844  0.00  0.00    +0.000 OA
ATOM     16  H   UNL     1       2.976   5.721  16.985  0.00  0.00    +0.000 HD
ENDBRANCH   9  15
ENDBRANCH   1   6
BRANCH   1  17
ATOM     17  N   UNL     1       0.194  11.076  20.025  0.00  0.00    +0.000 N 
ATOM     18  H   UNL     1       0.849  11.138  19.249  0.00  0.00    +0.000 HD
BRANCH  17  19
ATOM     19  C   UNL     1      -1.147  11.516  19.828  0.00  0.00    +0.000 A 
ATOM     20  C   UNL     1      -1.652  12.409  20.778  0.00  0.00    +0.000 A 
ATOM     21  C   UNL     1      -2.944  12.906  20.658  0.00  0.00    +0.000 A 
ATOM     22  C   UNL     1      -3.734  12.520  19.578  0.00  0.00    +0.000 A 
ATOM     23  C   UNL     1      -3.246  11.636  18.604  0.00  0.00    +0.000 A 
ATOM     24  C   UNL     1      -4.054  11.274  17.514  0.00  0.00    +0.000 A 
ATOM     25  C   UNL     1      -3.587  10.403  16.532  0.00  0.00    +0.000 A 
ATOM     26  C   UNL     1      -2.304   9.878  16.630  0.00  0.00    +0.000 A 
ATOM     27  C   UNL     1      -1.487  10.227  17.708  0.00  0.00    +0.000 A 
ATOM     28  C   UNL     1      -1.932  11.113  18.717  0.00  0.00    +0.000 A 
ENDBRANCH  17  19
ENDBRANCH   1  17
TORSDOF 5
ENDMDL
MODEL 5
REMARK VINA RESULT:      -8.3      3.797      5.991
REMARK  Name = 
REMARK  6 active torsions:
REMARK  status: ('A' for Active; 'I' for Inactive)
REMARK    1  A    between atoms: C_1  and  C_2
REMARK    2  A    between atoms: N_4  and  C_5
REMARK    3  A    between atoms: C_7  and  S_8
REMARK    4  A    between atoms: S_8  and  N_11
REMARK    5  A    between atoms: N_11  and  C_12
REMARK    6  A    between atoms: C_24  and  O_25
REMARK                            x       y       z     vdW  Elec       q    Type
REMARK                         _______ _______ _______ _____ _____    ______ ____
ROOT
ATOM      1  S   UNL     1       0.435  10.230  20.468  0.00  0.00    +0.000 S 
ATOM      2  O   UNL     1      -0.773   9.684  21.046  0.00  0.00    +0.000 OA
ATOM      3  O   UNL     1       1.356  10.991  21.286  0.00  0.00    +0.000 OA
ENDROOT
BRANCH   1   6
ATOM      4  C   UNL     1       2.332   6.697  19.908  0.00  0.00    +0.000 A 
ATOM      5  C   UNL     1       1.589   7.737  20.469  0.00  0.00    +0.000 A 
ATOM      6  C   UNL     1       1.337   8.891  19.724  0.00  0.00    +0.000 A 
ATOM      7  C   UNL     1       1.838   9.032  18.425  0.00  0.00    +0.000 A 
ATOM      8  C   UNL     1       2.594   8.003  17.862  0.00  0.00    +0.000 A 
ATOM      9  C   UNL     1       2.847   6.850  18.609  0.00  0.00    +0.000 A 
BRANCH   4  13
ATOM     10  C   UNL     1       2.336   3.342  21.636  0.00  0.00    +0.000 C 
ATOM     11  C   UNL     1       1.769   4.419  20.752  0.00  0.00    +0.000 C 
ATOM     12  O   UNL     1       0.664   4.287  20.238  0.00  0.00    +0.000 OA
ATOM     13  N   UNL     1       2.619   5.497  20.597  0.00  0.00    +0.000 N 
ATOM     14  H   UNL     1       3.583   5.410  20.905  0.00  0.00    +0.000 HD
ENDBRANCH   4  13
BRANCH   9  15
ATOM     15  O   UNL     1       3.604   5.837  18.079  0.00  0.00    +0.000 OA
ATOM     16  H   UNL     1       4.440   6.215  17.756  0.00  0.00    +0.000 HD
ENDBRANCH   9  15
ENDBRANCH   1   6
BRANCH   1  17
ATOM     17  N   UNL     1      -0.050  11.159  19.156  0.00  0.00    +0.000 N 
ATOM     18  H   UNL     1       0.707  11.413  18.525  0.00  0.00    +0.000 HD
BRANCH  17  19
ATOM     19  C   UNL     1      -1.367  11.024  18.630  0.00  0.00    +0.000 A 
ATOM     20  C   UNL     1      -1.528  10.099  17.594  0.00  0.00    +0.000 A 
ATOM     21  C   UNL     1      -2.781   9.887  17.031  0.00  0.00    +0.000 A 
ATOM     22  C   UNL     1      -3.882  10.592  17.511  0.00  0.00    +0.000 A 
ATOM     23  C   UNL     1      -3.748  11.515  18.559  0.00  0.00    +0.000 A 
ATOM     24  C   UNL     1      -4.875  12.202  19.039  0.00  0.00    +0.000 A 
ATOM     25  C   UNL     1      -4.766  13.118  20.083  0.00  0.00    +0.000 A 
ATOM     26  C   UNL     1      -3.526  13.363  20.659  0.00  0.00    +0.000 A 
ATOM     27  C   UNL     1      -2.394  12.689  20.193  0.00  0.00    +0.000 A 
ATOM     28  C   UNL     1      -2.474  11.750  19.139  0.00  0.00    +0.000 A 
ENDBRANCH  17  19
ENDBRANCH   1  17
TORSDOF 5
ENDMDL
MODEL 6
REMARK VINA RESULT:      -8.2      2.541      6.389
REMARK  Name = 
REMARK  6 active torsions:
REMARK  status: ('A' for Active; 'I' for Inactive)
REMARK    1  A    between atoms: C_1  and  C_2
REMARK    2  A    between atoms: N_4  and  C_5
REMARK    3  A    between atoms: C_7  and  S_8
REMARK    4  A    between atoms: S_8  and  N_11
REMARK    5  A    between atoms: N_11  and  C_12
REMARK    6  A    between atoms: C_24  and  O_25
REMARK                            x       y       z     vdW  Elec       q    Type
REMARK                         _______ _______ _______ _____ _____    ______ ____
ROOT
ATOM      1  S   UNL     1       2.713   2.984  17.866  0.00  0.00    +0.000 S 
ATOM      2  O   UNL     1       2.282   1.832  18.626  0.00  0.00    +0.000 OA
ATOM      3  O   UNL     1       2.183   3.224  16.540  0.00  0.00    +0.000 OA
ENDROOT
BRANCH   1   6
ATOM      4  C   UNL     1       2.398   6.839  19.065  0.00  0.00    +0.000 A 
ATOM      5  C   UNL     1       2.595   5.696  18.287  0.00  0.00    +0.000 A 
ATOM      6  C   UNL     1       2.407   4.432  18.851  0.00  0.00    +0.000 A 
ATOM      7  C   UNL     1       2.043   4.291  20.194  0.00  0.00    +0.000 A 
ATOM      8  C   UNL     1       1.858   5.428  20.982  0.00  0.00    +0.000 A 
ATOM      9  C   UNL     1       2.048   6.690  20.418  0.00  0.00    +0.000 A 
BRANCH   4  13
ATOM     10  C   UNL     1       2.055  10.387  17.826  0.00  0.00    +0.000 C 
ATOM     11  C   UNL     1       1.597   9.138  18.530  0.00  0.00    +0.000 C 
ATOM     12  O   UNL     1       0.474   9.074  19.018  0.00  0.00    +0.000 OA
ATOM     13  N   UNL     1       2.560   8.149  18.562  0.00  0.00    +0.000 N 
ATOM     14  H   UNL     1       3.514   8.384  18.303  0.00  0.00    +0.000 HD
ENDBRANCH   4  13
BRANCH   9  15
ATOM     15  O   UNL     1       1.889   7.819  21.182  0.00  0.00    +0.000 OA
ATOM     16  H   UNL     1       1.422   7.572  21.999  0.00  0.00    +0.000 HD
ENDBRANCH   9  15
ENDBRANCH   1   6
BRANCH   1  17
ATOM     17  N   UNL     1       4.388   2.899  17.794  0.00  0.00    +0.000 N 
ATOM     18  H   UNL     1       4.761   1.958  17.900  0.00  0.00    +0.000 HD
BRANCH  17  19
ATOM     19  C   UNL     1       5.122   3.845  17.021  0.00  0.00    +0.000 A 
ATOM     20  C   UNL     1       4.865   3.854  15.646  0.00  0.00    +0.000 A 
ATOM     21  C   UNL     1       5.520   4.755  14.816  0.00  0.00    +0.000 A 
ATOM     22  C   UNL     1       6.428   5.661  15.360  0.00  0.00    +0.000 A 
ATOM     23  C   UNL     1       6.692   5.680  16.738  0.00  0.00    +0.000 A 
ATOM     24  C   UNL     1       7.598   6.614  17.267  0.00  0.00    +0.000 A 
ATOM     25  C   UNL     1       7.871   6.655  18.633  0.00  0.00    +0.000 A 
ATOM     26  C   UNL     1       7.242   5.759  19.489  0.00  0.00    +0.000 A 
ATOM     27  C   UNL     1       6.338   4.823  18.979  0.00  0.00    +0.000 A 
ATOM     28  C   UNL     1       6.038   4.761  17.598  0.00  0.00    +0.000 A 
ENDBRANCH  17  19
ENDBRANCH   1  17
TORSDOF 5
ENDMDL
MODEL 7
REMARK VINA RESULT:      -8.2      4.760      7.612
REMARK  Name = 
REMARK  6 active torsions:
REMARK  status: ('A' for Active; 'I' for Inactive)
REMARK    1  A    between atoms: C_1  and  C_2
REMARK    2  A    between atoms: N_4  and  C_5
REMARK    3  A    between atoms: C_7  and  S_8
REMARK    4  A    between atoms: S_8  and  N_11
REMARK    5  A    between atoms: N_11  and  C_12
REMARK    6  A    between atoms: C_24  and  O_25
REMARK                            x       y       z     vdW  Elec       q    Type
REMARK                         _______ _______ _______ _____ _____    ______ ____
ROOT
ATOM      1  S   UNL     1       0.102   8.945  21.724  0.00  0.00    +0.000 S 
ATOM      2  O   UNL     1       0.180   9.577  23.022  0.00  0.00    +0.000 OA
ATOM      3  O   UNL     1      -0.823   7.855  21.497  0.00  0.00    +0.000 OA
ENDROOT
BRANCH   1   6
ATOM      4  C   UNL     1      -1.005  10.834  18.318  0.00  0.00    +0.000 A 
ATOM      5  C   UNL     1      -0.776   9.854  19.284  0.00  0.00    +0.000 A 
ATOM      6  C   UNL     1      -0.234  10.211  20.521  0.00  0.00    +0.000 A 
ATOM      7  C   UNL     1       0.105  11.539  20.801  0.00  0.00    +0.000 A 
ATOM      8  C   UNL     1      -0.108  12.523  19.835  0.00  0.00    +0.000 A 
ATOM      9  C   UNL     1      -0.648  12.164  18.598  0.00  0.00    +0.000 A 
BRANCH   4  13
ATOM     10  C   UNL     1      -3.158  10.020  15.327  0.00  0.00    +0.000 C 
ATOM     11  C   UNL     1      -2.902  10.444  16.748  0.00  0.00    +0.000 C 
ATOM     12  O   UNL     1      -3.837  10.673  17.508  0.00  0.00    +0.000 OA
ATOM     13  N   UNL     1      -1.559  10.550  17.050  0.00  0.00    +0.000 N 
ATOM     14  H   UNL     1      -0.882  10.531  16.291  0.00  0.00    +0.000 HD
ENDBRANCH   4  13
BRANCH   9  15
ATOM     15  O   UNL     1      -0.846  13.115  17.630  0.00  0.00    +0.000 OA
ATOM     16  H   UNL     1      -1.804  13.240  17.513  0.00  0.00    +0.000 HD
ENDBRANCH   9  15
ENDBRANCH   1   6
BRANCH   1  17
ATOM     17  N   UNL     1       1.661   8.446  21.351  0.00  0.00    +0.000 N 
ATOM     18  H   UNL     1       2.228   8.212  22.162  0.00  0.00    +0.000 HD
BRANCH  17  19
ATOM     19  C   UNL     1       1.926   7.788  20.115  0.00  0.00    +0.000 A 
ATOM     20  C   UNL     1       2.234   8.612  19.028  0.00  0.00    +0.000 A 
ATOM     21  C   UNL     1       2.524   8.058  17.787  0.00  0.00    +0.000 A 
ATOM     22  C   UNL     1       2.520   6.674  17.631  0.00  0.00    +0.000 A 
ATOM     23  C   UNL     1       2.228   5.826  18.710  0.00  0.00    +0.000 A 
ATOM     24  C   UNL     1       2.246   4.432  18.534  0.00  0.00    +0.000 A 
ATOM     25  C   UNL     1       1.965   3.572  19.593  0.00  0.00    +0.000 A 
ATOM     26  C   UNL     1       1.657   4.094  20.844  0.00  0.00    +0.000 A 
ATOM     27  C   UNL     1       1.635   5.478  21.036  0.00  0.00    +0.000 A 
ATOM     28  C   UNL     1       1.920   6.376  19.981  0.00  0.00    +0.000 A 
ENDBRANCH  17  19
ENDBRANCH   1  17
TORSDOF 5
ENDMDL
MODEL 8
REMARK VINA RESULT:      -8.0      2.462      6.845
REMARK  Name = 
REMARK  6 active torsions:
REMARK  status: ('A' for Active; 'I' for Inactive)
REMARK    1  A    between atoms: C_1  and  C_2
REMARK    2  A    between atoms: N_4  and  C_5
REMARK    3  A    between atoms: C_7  and  S_8
REMARK    4  A    between atoms: S_8  and  N_11
REMARK    5  A    between atoms: N_11  and  C_12
REMARK    6  A    between atoms: C_24  and  O_25
REMARK                            x       y       z     vdW  Elec       q    Type
REMARK                         _______ _______ _______ _____ _____    ______ ____
ROOT
ATOM      1  S   UNL     1       2.376   3.191  17.816  0.00  0.00    +0.000 S 
ATOM      2  O   UNL     1       1.593   2.122  18.395  0.00  0.00    +0.000 OA
ATOM      3  O   UNL     1       2.184   3.570  16.431  0.00  0.00    +0.000 OA
ENDROOT
BRANCH   1   6
ATOM      4  C   UNL     1       2.264   7.042  19.064  0.00  0.00    +0.000 A 
ATOM      5  C   UNL     1       2.401   5.901  18.272  0.00  0.00    +0.000 A 
ATOM      6  C   UNL     1       2.147   4.641  18.819  0.00  0.00    +0.000 A 
ATOM      7  C   UNL     1       1.774   4.502  20.161  0.00  0.00    +0.000 A 
ATOM      8  C   UNL     1       1.648   5.637  20.963  0.00  0.00    +0.000 A 
ATOM      9  C   UNL     1       1.905   6.895  20.415  0.00  0.00    +0.000 A 
BRANCH   4  13
ATOM     10  C   UNL     1       2.101  10.589  17.788  0.00  0.00    +0.000 C 
ATOM     11  C   UNL     1       1.554   9.349  18.441  0.00  0.00    +0.000 C 
ATOM     12  O   UNL     1       0.385   9.301  18.807  0.00  0.00    +0.000 OA
ATOM     13  N   UNL     1       2.496   8.348  18.578  0.00  0.00    +0.000 N 
ATOM     14  H   UNL     1       3.475   8.570  18.422  0.00  0.00    +0.000 HD
ENDBRANCH   4  13
BRANCH   9  15
ATOM     15  O   UNL     1       1.806   8.020  21.193  0.00  0.00    +0.000 OA
ATOM     16  H   UNL     1       1.026   8.526  20.904  0.00  0.00    +0.000 HD
ENDBRANCH   9  15
ENDBRANCH   1   6
BRANCH   1  17
ATOM     17  N   UNL     1       3.985   2.784  18.068  0.00  0.00    +0.000 N 
ATOM     18  H   UNL     1       4.221   1.833  17.795  0.00  0.00    +0.000 HD
BRANCH  17  19
ATOM     19  C   UNL     1       4.996   3.787  18.007  0.00  0.00    +0.000 A 
ATOM     20  C   UNL     1       5.355   4.379  19.222  0.00  0.00    +0.000 A 
ATOM     21  C   UNL     1       6.345   5.354  19.262  0.00  0.00    +0.000 A 
ATOM     22  C   UNL     1       6.989   5.733  18.087  0.00  0.00    +0.000 A 
ATOM     23  C   UNL     1       6.656   5.143  16.858  0.00  0.00    +0.000 A 
ATOM     24  C   UNL     1       7.331   5.528  15.688  0.00  0.00    +0.000 A 
ATOM     25  C   UNL     1       7.020   4.951  14.458  0.00  0.00    +0.000 A 
ATOM     26  C   UNL     1       6.026   3.984  14.381  0.00  0.00    +0.000 A 
ATOM     27  C   UNL     1       5.345   3.589  15.536  0.00  0.00    +0.000 A 
ATOM     28  C   UNL     1       5.641   4.153  16.798  0.00  0.00    +0.000 A 
ENDBRANCH  17  19
ENDBRANCH   1  17
TORSDOF 5
ENDMDL
MODEL 9
REMARK VINA RESULT:      -8.0      2.518      6.922
REMARK  Name = 
REMARK  6 active torsions:
REMARK  status: ('A' for Active; 'I' for Inactive)
REMARK    1  A    between atoms: C_1  and  C_2
REMARK    2  A    between atoms: N_4  and  C_5
REMARK    3  A    between atoms: C_7  and  S_8
REMARK    4  A    between atoms: S_8  and  N_11
REMARK    5  A    between atoms: N_11  and  C_12
REMARK    6  A    between atoms: C_24  and  O_25
REMARK                            x       y       z     vdW  Elec       q    Type
REMARK                         _______ _______ _______ _____ _____    ______ ____
ROOT
ATOM      1  S   UNL     1       2.588   3.490  19.232  0.00  0.00    +0.000 S 
ATOM      2  O   UNL     1       2.363   3.044  20.590  0.00  0.00    +0.000 OA
ATOM      3  O   UNL     1       1.810   2.935  18.144  0.00  0.00    +0.000 OA
ENDROOT
BRANCH   1   6
ATOM      4  C   UNL     1       1.911   7.319  20.362  0.00  0.00    +0.000 A 
ATOM      5  C   UNL     1       2.105   5.937  20.384  0.00  0.00    +0.000 A 
ATOM      6  C   UNL     1       2.396   5.257  19.200  0.00  0.00    +0.000 A 
ATOM      7  C   UNL     1       2.478   5.939  17.981  0.00  0.00    +0.000 A 
ATOM      8  C   UNL     1       2.272   7.319  17.948  0.00  0.00    +0.000 A 
ATOM      9  C   UNL     1       1.979   7.997  19.132  0.00  0.00    +0.000 A 
BRANCH   4  13
ATOM     10  C   UNL     1       0.455   9.472  23.098  0.00  0.00    +0.000 C 
ATOM     11  C   UNL     1       0.403   8.630  21.852  0.00  0.00    +0.000 C 
ATOM     12  O   UNL     1      -0.653   8.480  21.245  0.00  0.00    +0.000 OA
ATOM     13  N   UNL     1       1.623   8.075  21.520  0.00  0.00    +0.000 N 
ATOM     14  H   UNL     1       2.377   8.105  22.200  0.00  0.00    +0.000 HD
ENDBRANCH   4  13
BRANCH   9  15
ATOM     15  O   UNL     1       1.754   9.350  19.116  0.00  0.00    +0.000 OA
ATOM     16  H   UNL     1       2.039   9.698  18.252  0.00  0.00    +0.000 HD
ENDBRANCH   9  15
ENDBRANCH   1   6
BRANCH   1  17
ATOM     17  N   UNL     1       4.223   3.262  18.928  0.00  0.00    +0.000 N 
ATOM     18  H   UNL     1       4.567   2.338  19.179  0.00  0.00    +0.000 HD
BRANCH  17  19
ATOM     19  C   UNL     1       4.859   3.967  17.865  0.00  0.00    +0.000 A 
ATOM     20  C   UNL     1       4.374   3.717  16.578  0.00  0.00    +0.000 A 
ATOM     21  C   UNL     1       4.921   4.372  15.482  0.00  0.00    +0.000 A 
ATOM     22  C   UNL     1       5.951   5.291  15.671  0.00  0.00    +0.000 A 
ATOM     23  C   UNL     1       6.446   5.569  16.954  0.00  0.00    +0.000 A 
ATOM     24  C   UNL     1       7.473   6.512  17.122  0.00  0.00    +0.000 A 
ATOM     25  C   UNL     1       7.975   6.807  18.388  0.00  0.00    +0.000 A 
ATOM     26  C   UNL     1       7.458   6.159  19.504  0.00  0.00    +0.000 A 
ATOM     27  C   UNL     1       6.437   5.218  19.353  0.00  0.00    +0.000 A 
ATOM     28  C   UNL     1       5.904   4.901  18.083  0.00  0.00    +0.000 A 
ENDBRANCH  17  19
ENDBRANCH   1  17
TORSDOF 5
ENDMDL
