MODEL 1
REMARK VINA RESULT:      -9.0      0.000      0.000
REMARK  Name = 
REMARK  5 active torsions:
REMARK  status: ('A' for Active; 'I' for Inactive)
REMARK    1  A    between atoms: C_1  and  C_2
REMARK    2  A    between atoms: C_5  and  N_6
REMARK    3  A    between atoms: N_6  and  S_7
REMARK    4  A    between atoms: S_7  and  C_10
REMARK    5  A    between atoms: C_13  and  C_14
REMARK                            x       y       z     vdW  Elec       q    Type
REMARK                         _______ _______ _______ _____ _____    ______ ____
ROOT
ATOM      1  C   UNL     1       1.509   9.114  19.605  0.00  0.00    +0.000 A 
ATOM      2  C   UNL     1       1.442   8.139  20.604  0.00  0.00    +0.000 A 
ATOM      3  C   UNL     1       1.891   6.842  20.332  0.00  0.00    +0.000 A 
ATOM      4  C   UNL     1       2.418   6.530  19.070  0.00  0.00    +0.000 A 
ATOM      5  C   UNL     1       2.501   7.532  18.089  0.00  0.00    +0.000 A 
ATOM      6  C   UNL     1       2.055   8.824  18.354  0.00  0.00    +0.000 A 
ENDROOT
BRANCH   4   7
ATOM      7  C   UNL     1       2.679   5.101  18.716  0.00  0.00    +0.000 C 
ATOM      8  O   UNL     1       1.820   4.260  18.970  0.00  0.00    +0.000 OA
ATOM      9  N   UNL     1       3.764   4.843  17.912  0.00  0.00    +0.000 N 
ATOM     10  C   UNL     1       3.772   3.769  16.905  0.00  0.00    +0.000 C 
ATOM     11  C   UNL     1       4.883   4.216  15.957  0.00  0.00    +0.000 C 
ATOM     12  C   UNL     1       5.843   4.695  17.007  0.00  0.00    +0.000 A 
ATOM     13  C   UNL     1       7.215   4.562  17.056  0.00  0.00    +0.000 A 
ATOM     14  C   UNL     1       7.855   4.942  18.236  0.00  0.00    +0.000 A 
ATOM     15  C   UNL     1       7.133   5.529  19.296  0.00  0.00    +0.000 A 
ATOM     16  C   UNL     1       5.744   5.679  19.231  0.00  0.00    +0.000 A 
ATOM     17  C   UNL     1       5.118   5.184  18.105  0.00  0.00    +0.000 A 
ENDBRANCH   4   7
BRANCH   1  18
ATOM     18  S   UNL     1       0.805  10.723  19.861  0.00  0.00    +0.000 S 
ATOM     19  O   UNL     1       1.107  11.553  18.714  0.00  0.00    +0.000 OA
ATOM     20  O   UNL     1       1.181  11.134  21.201  0.00  0.00    +0.000 OA
BRANCH  18  21
ATOM     21  N   UNL     1      -0.848  10.432  19.924  0.00  0.00    +0.000 N 
ATOM     22  H   UNL     1      -1.271  10.839  20.747  0.00  0.00    +0.000 HD
BRANCH  21  27
ATOM     23  C   UNL     1      -3.854  10.784  15.062  0.00  0.00    +0.000 C 
ATOM     24  C   UNL     1      -3.068  10.685  16.336  0.00  0.00    +0.000 A 
ATOM     25  C   UNL     1      -3.350  11.530  17.415  0.00  0.00    +0.000 A 
ATOM     26  C   UNL     1      -2.615  11.429  18.602  0.00  0.00    +0.000 A 
ATOM     27  C   UNL     1      -1.598  10.490  18.711  0.00  0.00    +0.000 A 
ATOM     28  C   UNL     1      -1.303   9.643  17.651  0.00  0.00    +0.000 A 
ATOM     29  C   UNL     1      -2.041   9.739  16.458  0.00  0.00    +0.000 A 
ENDBRANCH  21  27
ENDBRANCH  18  21
ENDBRANCH   1  18
TORSDOF 4
ENDMDL
MODEL 2
REMARK VINA RESULT:      -8.8      0.896      1.104
REMARK  Name = 
REMARK  5 active torsions:
REMARK  status: ('A' for Active; 'I' for Inactive)
REMARK    1  A    between atoms: C_1  and  C_2
REMARK    2  A    between atoms: C_5  and  N_6
REMARK    3  A    between atoms: N_6  and  S_7
REMARK    4  A    between atoms: S_7  and  C_10
REMARK    5  A    between atoms: C_13  and  C_14
REMARK                            x       y       z     vdW  Elec       q    Type
REMARK                         _______ _______ _______ _____ _____    ______ ____
ROOT
ATOM      1  C   UNL     1       1.354   8.774  19.979  0.00  0.00    +0.000 A 
ATOM      2  C   UNL     1       1.411   7.727  20.902  0.00  0.00    +0.000 A 
ATOM      3  C   UNL     1       1.916   6.485  20.505  0.00  0.00    +0.000 A 
ATOM      4  C   UNL     1       2.377   6.299  19.193  0.00  0.00    +0.000 A 
ATOM      5  C   UNL     1       2.335   7.373  18.288  0.00  0.00    +0.000 A 
ATOM      6  C   UNL     1       1.832   8.611  18.678  0.00  0.00    +0.000 A 
ENDROOT
BRANCH   4   7
ATOM      7  C   UNL     1       2.698   4.920  18.715  0.00  0.00    +0.000 C 
ATOM      8  O   UNL     1       1.873   4.025  18.887  0.00  0.00    +0.000 OA
ATOM      9  N   UNL     1       3.796   4.778  17.900  0.00  0.00    +0.000 N 
ATOM     10  C   UNL     1       3.851   3.800  16.801  0.00  0.00    +0.000 C 
ATOM     11  C   UNL     1       4.947   4.375  15.904  0.00  0.00    +0.000 C 
ATOM     12  C   UNL     1       5.882   4.796  17.000  0.00  0.00    +0.000 A 
ATOM     13  C   UNL     1       7.258   4.716  17.047  0.00  0.00    +0.000 A 
ATOM     14  C   UNL     1       7.877   5.015  18.261  0.00  0.00    +0.000 A 
ATOM     15  C   UNL     1       7.128   5.475  19.364  0.00  0.00    +0.000 A 
ATOM     16  C   UNL     1       5.735   5.573  19.302  0.00  0.00    +0.000 A 
ATOM     17  C   UNL     1       5.133   5.156  18.132  0.00  0.00    +0.000 A 
ENDBRANCH   4   7
BRANCH   1  18
ATOM     18  S   UNL     1       0.574  10.312  20.400  0.00  0.00    +0.000 S 
ATOM     19  O   UNL     1       1.559  11.189  20.996  0.00  0.00    +0.000 OA
ATOM     20  O   UNL     1      -0.651   9.978  21.103  0.00  0.00    +0.000 OA
BRANCH  18  21
ATOM     21  N   UNL     1       0.089  10.935  18.918  0.00  0.00    +0.000 N 
ATOM     22  H   UNL     1       0.723  10.675  18.174  0.00  0.00    +0.000 HD
BRANCH  21  27
ATOM     23  C   UNL     1      -5.496  11.139  17.668  0.00  0.00    +0.000 C 
ATOM     24  C   UNL     1      -4.033  11.079  17.998  0.00  0.00    +0.000 A 
ATOM     25  C   UNL     1      -3.453  12.033  18.841  0.00  0.00    +0.000 A 
ATOM     26  C   UNL     1      -2.089  11.968  19.147  0.00  0.00    +0.000 A 
ATOM     27  C   UNL     1      -1.304  10.956  18.609  0.00  0.00    +0.000 A 
ATOM     28  C   UNL     1      -1.862  10.001  17.770  0.00  0.00    +0.000 A 
ATOM     29  C   UNL     1      -3.233  10.061  17.463  0.00  0.00    +0.000 A 
ENDBRANCH  21  27
ENDBRANCH  18  21
ENDBRANCH   1  18
TORSDOF 4
ENDMDL
MODEL 3
REMARK VINA RESULT:      -8.7      2.733      3.380
REMARK  Name = 
REMARK  5 active torsions:
REMARK  status: ('A' for Active; 'I' for Inactive)
REMARK    1  A    between atoms: C_1  and  C_2
REMARK    2  A    between atoms: C_5  and  N_6
REMARK    3  A    between atoms: N_6  and  S_7
REMARK    4  A    between atoms: S_7  and  C_10
REMARK    5  A    between atoms: C_13  and  C_14
REMARK                            x       y       z     vdW  Elec       q    Type
REMARK                         _______ _______ _______ _____ _____    ______ ____
ROOT
ATOM      1  C   UNL     1       1.415   8.936  19.697  0.00  0.00    +0.000 A 
ATOM      2  C   UNL     1       1.399   7.969  20.706  0.00  0.00    +0.000 A 
ATOM      3  C   UNL     1       1.889   6.686  20.441  0.00  0.00    +0.000 A 
ATOM      4  C   UNL     1       2.406   6.379  19.173  0.00  0.00    +0.000 A 
ATOM      5  C   UNL     1       2.436   7.372  18.181  0.00  0.00    +0.000 A 
ATOM      6  C   UNL     1       1.950   8.651  18.440  0.00  0.00    +0.000 A 
ENDROOT
BRANCH   4   7
ATOM      7  C   UNL     1       2.711   4.957  18.829  0.00  0.00    +0.000 C 
ATOM      8  O   UNL     1       1.892   4.087  19.118  0.00  0.00    +0.000 OA
ATOM      9  N   UNL     1       3.782   4.728  17.998  0.00  0.00    +0.000 N 
ATOM     10  C   UNL     1       3.802   3.642  17.004  0.00  0.00    +0.000 C 
ATOM     11  C   UNL     1       4.869   4.118  16.019  0.00  0.00    +0.000 C 
ATOM     12  C   UNL     1       5.838   4.647  17.036  0.00  0.00    +0.000 A 
ATOM     13  C   UNL     1       7.215   4.567  17.047  0.00  0.00    +0.000 A 
ATOM     14  C   UNL     1       7.873   4.987  18.203  0.00  0.00    +0.000 A 
ATOM     15  C   UNL     1       7.160   5.560  19.276  0.00  0.00    +0.000 A 
ATOM     16  C   UNL     1       5.765   5.656  19.249  0.00  0.00    +0.000 A 
ATOM     17  C   UNL     1       5.126   5.124  18.147  0.00  0.00    +0.000 A 
ENDBRANCH   4   7
BRANCH   1  18
ATOM     18  S   UNL     1       0.659  10.521  19.948  0.00  0.00    +0.000 S 
ATOM     19  O   UNL     1       1.348  11.203  21.023  0.00  0.00    +0.000 OA
ATOM     20  O   UNL     1      -0.773  10.294  20.005  0.00  0.00    +0.000 OA
BRANCH  18  21
ATOM     21  N   UNL     1       0.932  11.330  18.502  0.00  0.00    +0.000 N 
ATOM     22  H   UNL     1       0.258  11.072  17.793  0.00  0.00    +0.000 HD
BRANCH  21  27
ATOM     23  C   UNL     1       2.614  16.803  18.601  0.00  0.00    +0.000 C 
ATOM     24  C   UNL     1       2.171  15.370  18.581  0.00  0.00    +0.000 A 
ATOM     25  C   UNL     1       3.080  14.346  18.292  0.00  0.00    +0.000 A 
ATOM     26  C   UNL     1       2.660  13.011  18.279  0.00  0.00    +0.000 A 
ATOM     27  C   UNL     1       1.334  12.698  18.551  0.00  0.00    +0.000 A 
ATOM     28  C   UNL     1       0.417  13.700  18.840  0.00  0.00    +0.000 A 
ATOM     29  C   UNL     1       0.836  15.042  18.856  0.00  0.00    +0.000 A 
ENDBRANCH  21  27
ENDBRANCH  18  21
ENDBRANCH   1  18
TORSDOF 4
ENDMDL
MODEL 4
REMARK VINA RESULT:      -8.7      1.779      3.133
REMARK  Name = 
REMARK  5 active torsions:
REMARK  status: ('A' for Active; 'I' for Inactive)
REMARK    1  A    between atoms: C_1  and  C_2
REMARK    2  A    between atoms: C_5  and  N_6
REMARK    3  A    between atoms: N_6  and  S_7
REMARK    4  A    between atoms: S_7  and  C_10
REMARK    5  A    between atoms: C_13  and  C_14
REMARK                            x       y       z     vdW  Elec       q    Type
REMARK                         _______ _______ _______ _____ _____    ______ ____
ROOT
ATOM      1  C   UNL     1       1.109   9.492  19.684  0.00  0.00    +0.000 A 
ATOM      2  C   UNL     1       1.411   9.655  18.330  0.00  0.00    +0.000 A 
ATOM      3  C   UNL     1       2.169   8.683  17.670  0.00  0.00    +0.000 A 
ATOM      4  C   UNL     1       2.610   7.545  18.363  0.00  0.00    +0.000 A 
ATOM      5  C   UNL     1       2.273   7.388  19.718  0.00  0.00    +0.000 A 
ATOM      6  C   UNL     1       1.518   8.353  20.379  0.00  0.00    +0.000 A 
ENDROOT
BRANCH   4   7
ATOM      7  C   UNL     1       3.604   6.632  17.721  0.00  0.00    +0.000 C 
ATOM      8  O   UNL     1       4.325   7.074  16.829  0.00  0.00    +0.000 OA
ATOM      9  N   UNL     1       3.820   5.416  18.324  0.00  0.00    +0.000 N 
ATOM     10  C   UNL     1       5.139   4.762  18.348  0.00  0.00    +0.000 C 
ATOM     11  C   UNL     1       5.008   3.801  19.528  0.00  0.00    +0.000 C 
ATOM     12  C   UNL     1       3.604   3.352  19.247  0.00  0.00    +0.000 A 
ATOM     13  C   UNL     1       3.055   2.092  19.362  0.00  0.00    +0.000 A 
ATOM     14  C   UNL     1       1.765   1.905  18.865  0.00  0.00    +0.000 A 
ATOM     15  C   UNL     1       1.020   2.989  18.356  0.00  0.00    +0.000 A 
ATOM     16  C   UNL     1       1.576   4.268  18.261  0.00  0.00    +0.000 A 
ATOM     17  C   UNL     1       2.895   4.403  18.645  0.00  0.00    +0.000 A 
ENDBRANCH   4   7
BRANCH   1  18
ATOM     18  S   UNL     1       0.288  10.778  20.591  0.00  0.00    +0.000 S 
ATOM     19  O   UNL     1       1.275  11.527  21.339  0.00  0.00    +0.000 OA
ATOM     20  O   UNL     1      -0.843  10.159  21.258  0.00  0.00    +0.000 OA
BRANCH  18  21
ATOM     21  N   UNL     1      -0.372  11.755  19.395  0.00  0.00    +0.000 N 
ATOM     22  H   UNL     1       0.281  11.920  18.641  0.00  0.00    +0.000 HD
BRANCH  21  27
ATOM     23  C   UNL     1      -5.887  11.136  17.983  0.00  0.00    +0.000 C 
ATOM     24  C   UNL     1      -4.441  11.291  18.354  0.00  0.00    +0.000 A 
ATOM     25  C   UNL     1      -4.052  12.213  19.332  0.00  0.00    +0.000 A 
ATOM     26  C   UNL     1      -2.702  12.349  19.676  0.00  0.00    +0.000 A 
ATOM     27  C   UNL     1      -1.742  11.571  19.042  0.00  0.00    +0.000 A 
ATOM     28  C   UNL     1      -2.109  10.652  18.068  0.00  0.00    +0.000 A 
ATOM     29  C   UNL     1      -3.465  10.509  17.722  0.00  0.00    +0.000 A 
ENDBRANCH  21  27
ENDBRANCH  18  21
ENDBRANCH   1  18
TORSDOF 4
ENDMDL
MODEL 5
REMARK VINA RESULT:      -8.6      2.529      3.192
REMARK  Name = 
REMARK  5 active torsions:
REMARK  status: ('A' for Active; 'I' for Inactive)
REMARK    1  A    between atoms: C_1  and  C_2
REMARK    2  A    between atoms: C_5  and  N_6
REMARK    3  A    between atoms: N_6  and  S_7
REMARK    4  A    between atoms: S_7  and  C_10
REMARK    5  A    between atoms: C_13  and  C_14
REMARK                            x       y       z     vdW  Elec       q    Type
REMARK                         _______ _______ _______ _____ _____    ______ ____
ROOT
ATOM      1  C   UNL     1       1.504   9.186  19.209  0.00  0.00    +0.000 A 
ATOM      2  C   UNL     1       1.424   8.312  20.297  0.00  0.00    +0.000 A 
ATOM      3  C   UNL     1       1.887   6.999  20.162  0.00  0.00    +0.000 A 
ATOM      4  C   UNL     1       2.440   6.569  18.946  0.00  0.00    +0.000 A 
ATOM      5  C   UNL     1       2.534   7.471  17.873  0.00  0.00    +0.000 A 
ATOM      6  C   UNL     1       2.076   8.779  18.002  0.00  0.00    +0.000 A 
ENDROOT
BRANCH   4   7
ATOM      7  C   UNL     1       2.717   5.115  18.739  0.00  0.00    +0.000 C 
ATOM      8  O   UNL     1       1.873   4.294  19.089  0.00  0.00    +0.000 OA
ATOM      9  N   UNL     1       3.798   4.789  17.953  0.00  0.00    +0.000 N 
ATOM     10  C   UNL     1       3.809   3.616  17.063  0.00  0.00    +0.000 C 
ATOM     11  C   UNL     1       4.904   3.977  16.060  0.00  0.00    +0.000 C 
ATOM     12  C   UNL     1       5.868   4.574  17.043  0.00  0.00    +0.000 A 
ATOM     13  C   UNL     1       7.242   4.465  17.089  0.00  0.00    +0.000 A 
ATOM     14  C   UNL     1       7.889   4.974  18.215  0.00  0.00    +0.000 A 
ATOM     15  C   UNL     1       7.171   5.658  19.218  0.00  0.00    +0.000 A 
ATOM     16  C   UNL     1       5.780   5.782  19.154  0.00  0.00    +0.000 A 
ATOM     17  C   UNL     1       5.148   5.166  18.093  0.00  0.00    +0.000 A 
ENDBRANCH   4   7
BRANCH   1  18
ATOM     18  S   UNL     1       0.784  10.805  19.292  0.00  0.00    +0.000 S 
ATOM     19  O   UNL     1      -0.641  10.697  19.056  0.00  0.00    +0.000 OA
ATOM     20  O   UNL     1       1.612  11.671  18.474  0.00  0.00    +0.000 OA
BRANCH  18  21
ATOM     21  N   UNL     1       1.056  11.285  20.878  0.00  0.00    +0.000 N 
ATOM     22  H   UNL     1       1.902  11.831  20.967  0.00  0.00    +0.000 HD
BRANCH  21  27
ATOM     23  C   UNL     1      -3.472  12.943  23.968  0.00  0.00    +0.000 C 
ATOM     24  C   UNL     1      -2.283  12.506  23.164  0.00  0.00    +0.000 A 
ATOM     25  C   UNL     1      -1.635  13.401  22.306  0.00  0.00    +0.000 A 
ATOM     26  C   UNL     1      -0.523  12.988  21.563  0.00  0.00    +0.000 A 
ATOM     27  C   UNL     1      -0.062  11.683  21.672  0.00  0.00    +0.000 A 
ATOM     28  C   UNL     1      -0.692  10.780  22.518  0.00  0.00    +0.000 A 
ATOM     29  C   UNL     1      -1.806  11.192  23.269  0.00  0.00    +0.000 A 
ENDBRANCH  21  27
ENDBRANCH  18  21
ENDBRANCH   1  18
TORSDOF 4
ENDMDL
MODEL 6
REMARK VINA RESULT:      -8.5      3.065      8.377
REMARK  Name = 
REMARK  5 active torsions:
REMARK  status: ('A' for Active; 'I' for Inactive)
REMARK    1  A    between atoms: C_1  and  C_2
REMARK    2  A    between atoms: C_5  and  N_6
REMARK    3  A    between atoms: N_6  and  S_7
REMARK    4  A    between atoms: S_7  and  C_10
REMARK    5  A    between atoms: C_13  and  C_14
REMARK                            x       y       z     vdW  Elec       q    Type
REMARK                         _______ _______ _______ _____ _____    ______ ____
ROOT
ATOM      1  C   UNL     1       2.210   7.313  19.131  0.00  0.00    +0.000 A 
ATOM      2  C   UNL     1       2.074   8.090  17.978  0.00  0.00    +0.000 A 
ATOM      3  C   UNL     1       1.395   9.311  18.044  0.00  0.00    +0.000 A 
ATOM      4  C   UNL     1       0.867   9.757  19.265  0.00  0.00    +0.000 A 
ATOM      5  C   UNL     1       1.037   8.973  20.418  0.00  0.00    +0.000 A 
ATOM      6  C   UNL     1       1.713   7.757  20.358  0.00  0.00    +0.000 A 
ENDROOT
BRANCH   4   7
ATOM      7  C   UNL     1      -0.049  10.938  19.282  0.00  0.00    +0.000 C 
ATOM      8  O   UNL     1      -1.227  10.781  18.969  0.00  0.00    +0.000 OA
ATOM      9  N   UNL     1       0.421  12.087  19.873  0.00  0.00    +0.000 N 
ATOM     10  C   UNL     1      -0.446  13.006  20.628  0.00  0.00    +0.000 C 
ATOM     11  C   UNL     1       0.556  13.760  21.502  0.00  0.00    +0.000 C 
ATOM     12  C   UNL     1       1.625  13.921  20.461  0.00  0.00    +0.000 A 
ATOM     13  C   UNL     1       2.441  15.006  20.215  0.00  0.00    +0.000 A 
ATOM     14  C   UNL     1       3.234  14.965  19.068  0.00  0.00    +0.000 A 
ATOM     15  C   UNL     1       3.269  13.817  18.250  0.00  0.00    +0.000 A 
ATOM     16  C   UNL     1       2.453  12.713  18.518  0.00  0.00    +0.000 A 
ATOM     17  C   UNL     1       1.588  12.823  19.587  0.00  0.00    +0.000 A 
ENDBRANCH   4   7
BRANCH   1  18
ATOM     18  S   UNL     1       2.924   5.691  19.053  0.00  0.00    +0.000 S 
ATOM     19  O   UNL     1       2.258   4.936  18.013  0.00  0.00    +0.000 OA
ATOM     20  O   UNL     1       2.981   5.195  20.416  0.00  0.00    +0.000 OA
BRANCH  18  21
ATOM     21  N   UNL     1       4.519   5.974  18.608  0.00  0.00    +0.000 N 
ATOM     22  H   UNL     1       5.151   5.876  19.391  0.00  0.00    +0.000 HD
BRANCH  21  27
ATOM     23  C   UNL     1       6.266   3.946  13.546  0.00  0.00    +0.000 C 
ATOM     24  C   UNL     1       5.813   4.483  14.872  0.00  0.00    +0.000 A 
ATOM     25  C   UNL     1       5.779   3.657  16.001  0.00  0.00    +0.000 A 
ATOM     26  C   UNL     1       5.359   4.166  17.235  0.00  0.00    +0.000 A 
ATOM     27  C   UNL     1       4.969   5.495  17.342  0.00  0.00    +0.000 A 
ATOM     28  C   UNL     1       4.995   6.329  16.233  0.00  0.00    +0.000 A 
ATOM     29  C   UNL     1       5.420   5.823  14.992  0.00  0.00    +0.000 A 
ENDBRANCH  21  27
ENDBRANCH  18  21
ENDBRANCH   1  18
TORSDOF 4
ENDMDL
MODEL 7
REMARK VINA RESULT:      -8.3      2.610      8.137
REMARK  Name = 
REMARK  5 active torsions:
REMARK  status: ('A' for Active; 'I' for Inactive)
REMARK    1  A    between atoms: C_1  and  C_2
REMARK    2  A    between atoms: C_5  and  N_6
REMARK    3  A    between atoms: N_6  and  S_7
REMARK    4  A    between atoms: S_7  and  C_10
REMARK    5  A    between atoms: C_13  and  C_14
REMARK                            x       y       z     vdW  Elec       q    Type
REMARK                         _______ _______ _______ _____ _____    ______ ____
ROOT
ATOM      1  C   UNL     1       2.642   4.539  18.874  0.00  0.00    +0.000 A 
ATOM      2  C   UNL     1       2.959   5.373  19.950  0.00  0.00    +0.000 A 
ATOM      3  C   UNL     1       2.677   6.740  19.869  0.00  0.00    +0.000 A 
ATOM      4  C   UNL     1       2.067   7.266  18.720  0.00  0.00    +0.000 A 
ATOM      5  C   UNL     1       1.733   6.406  17.661  0.00  0.00    +0.000 A 
ATOM      6  C   UNL     1       2.012   5.044  17.736  0.00  0.00    +0.000 A 
ENDROOT
BRANCH   4   7
ATOM      7  C   UNL     1       1.980   8.748  18.547  0.00  0.00    +0.000 C 
ATOM      8  O   UNL     1       2.724   9.296  17.737  0.00  0.00    +0.000 OA
ATOM      9  N   UNL     1       0.911   9.386  19.131  0.00  0.00    +0.000 N 
ATOM     10  C   UNL     1       0.251  10.554  18.523  0.00  0.00    +0.000 C 
ATOM     11  C   UNL     1      -1.120  10.543  19.197  0.00  0.00    +0.000 C 
ATOM     12  C   UNL     1      -0.647  10.188  20.576  0.00  0.00    +0.000 A 
ATOM     13  C   UNL     1      -1.087  10.662  21.795  0.00  0.00    +0.000 A 
ATOM     14  C   UNL     1      -0.355  10.301  22.926  0.00  0.00    +0.000 A 
ATOM     15  C   UNL     1       0.732   9.408  22.833  0.00  0.00    +0.000 A 
ATOM     16  C   UNL     1       1.160   8.916  21.596  0.00  0.00    +0.000 A 
ATOM     17  C   UNL     1       0.498   9.382  20.478  0.00  0.00    +0.000 A 
ENDBRANCH   4   7
BRANCH   1  18
ATOM     18  S   UNL     1       3.128   2.833  18.876  0.00  0.00    +0.000 S 
ATOM     19  O   UNL     1       2.083   2.048  18.254  0.00  0.00    +0.000 OA
ATOM     20  O   UNL     1       3.588   2.533  20.220  0.00  0.00    +0.000 OA
BRANCH  18  21
ATOM     21  N   UNL     1       4.503   2.805  17.911  0.00  0.00    +0.000 N 
ATOM     22  H   UNL     1       4.355   2.278  17.061  0.00  0.00    +0.000 HD
BRANCH  21  27
ATOM     23  C   UNL     1       7.583   7.612  17.466  0.00  0.00    +0.000 C 
ATOM     24  C   UNL     1       6.782   6.348  17.585  0.00  0.00    +0.000 A 
ATOM     25  C   UNL     1       6.009   5.891  16.512  0.00  0.00    +0.000 A 
ATOM     26  C   UNL     1       5.267   4.710  16.628  0.00  0.00    +0.000 A 
ATOM     27  C   UNL     1       5.293   3.989  17.815  0.00  0.00    +0.000 A 
ATOM     28  C   UNL     1       6.053   4.427  18.891  0.00  0.00    +0.000 A 
ATOM     29  C   UNL     1       6.802   5.611  18.777  0.00  0.00    +0.000 A 
ENDBRANCH  21  27
ENDBRANCH  18  21
ENDBRANCH   1  18
TORSDOF 4
ENDMDL
MODEL 8
REMARK VINA RESULT:      -8.2      1.408      2.078
REMARK  Name = 
REMARK  5 active torsions:
REMARK  status: ('A' for Active; 'I' for Inactive)
REMARK    1  A    between atoms: C_1  and  C_2
REMARK    2  A    between atoms: C_5  and  N_6
REMARK    3  A    between atoms: N_6  and  S_7
REMARK    4  A    between atoms: S_7  and  C_10
REMARK    5  A    between atoms: C_13  and  C_14
REMARK                            x       y       z     vdW  Elec       q    Type
REMARK                         _______ _______ _______ _____ _____    ______ ____
ROOT
ATOM      1  C   UNL     1       1.421   7.644  20.412  0.00  0.00    +0.000 A 
ATOM      2  C   UNL     1       2.023   7.703  19.153  0.00  0.00    +0.000 A 
ATOM      3  C   UNL     1       2.444   6.522  18.533  0.00  0.00    +0.000 A 
ATOM      4  C   UNL     1       2.249   5.286  19.168  0.00  0.00    +0.000 A 
ATOM      5  C   UNL     1       1.619   5.246  20.423  0.00  0.00    +0.000 A 
ATOM      6  C   UNL     1       1.198   6.419  21.044  0.00  0.00    +0.000 A 
ENDROOT
BRANCH   4   7
ATOM      7  C   UNL     1       2.903   4.062  18.611  0.00  0.00    +0.000 C 
ATOM      8  O   UNL     1       2.311   2.988  18.683  0.00  0.00    +0.000 OA
ATOM      9  N   UNL     1       4.026   4.247  17.840  0.00  0.00    +0.000 N 
ATOM     10  C   UNL     1       4.344   3.398  16.680  0.00  0.00    +0.000 C 
ATOM     11  C   UNL     1       5.296   4.284  15.877  0.00  0.00    +0.000 C 
ATOM     12  C   UNL     1       6.072   4.826  17.042  0.00  0.00    +0.000 A 
ATOM     13  C   UNL     1       7.426   5.069  17.147  0.00  0.00    +0.000 A 
ATOM     14  C   UNL     1       7.921   5.409  18.406  0.00  0.00    +0.000 A 
ATOM     15  C   UNL     1       7.053   5.592  19.502  0.00  0.00    +0.000 A 
ATOM     16  C   UNL     1       5.679   5.364  19.383  0.00  0.00    +0.000 A 
ATOM     17  C   UNL     1       5.227   4.910  18.160  0.00  0.00    +0.000 A 
ENDBRANCH   4   7
BRANCH   1  18
ATOM     18  S   UNL     1       1.020   9.129  21.296  0.00  0.00    +0.000 S 
ATOM     19  O   UNL     1       2.063   9.393  22.265  0.00  0.00    +0.000 OA
ATOM     20  O   UNL     1      -0.367   9.007  21.707  0.00  0.00    +0.000 OA
BRANCH  18  21
ATOM     21  N   UNL     1       1.038  10.319  20.111  0.00  0.00    +0.000 N 
ATOM     22  H   UNL     1       1.866  10.263  19.534  0.00  0.00    +0.000 HD
BRANCH  21  27
ATOM     23  C   UNL     1      -3.901  11.543  17.483  0.00  0.00    +0.000 C 
ATOM     24  C   UNL     1      -2.605  11.229  18.172  0.00  0.00    +0.000 A 
ATOM     25  C   UNL     1      -1.742  10.255  17.657  0.00  0.00    +0.000 A 
ATOM     26  C   UNL     1      -0.533   9.971  18.302  0.00  0.00    +0.000 A 
ATOM     27  C   UNL     1      -0.188  10.654  19.462  0.00  0.00    +0.000 A 
ATOM     28  C   UNL     1      -1.031  11.623  19.987  0.00  0.00    +0.000 A 
ATOM     29  C   UNL     1      -2.245  11.914  19.341  0.00  0.00    +0.000 A 
ENDBRANCH  21  27
ENDBRANCH  18  21
ENDBRANCH   1  18
TORSDOF 4
ENDMDL
MODEL 9
REMARK VINA RESULT:      -8.2      1.554      3.065
REMARK  Name = 
REMARK  5 active torsions:
REMARK  status: ('A' for Active; 'I' for Inactive)
REMARK    1  A    between atoms: C_1  and  C_2
REMARK    2  A    between atoms: C_5  and  N_6
REMARK    3  A    between atoms: N_6  and  S_7
REMARK    4  A    between atoms: S_7  and  C_10
REMARK    5  A    between atoms: C_13  and  C_14
REMARK                            x       y       z     vdW  Elec       q    Type
REMARK                         _______ _______ _______ _____ _____    ______ ____
ROOT
ATOM      1  C   UNL     1       1.358   9.642  19.365  0.00  0.00    +0.000 A 
ATOM      2  C   UNL     1       1.800   9.755  18.044  0.00  0.00    +0.000 A 
ATOM      3  C   UNL     1       2.521   8.705  17.466  0.00  0.00    +0.000 A 
ATOM      4  C   UNL     1       2.785   7.541  18.205  0.00  0.00    +0.000 A 
ATOM      5  C   UNL     1       2.309   7.438  19.522  0.00  0.00    +0.000 A 
ATOM      6  C   UNL     1       1.590   8.479  20.102  0.00  0.00    +0.000 A 
ENDROOT
BRANCH   4   7
ATOM      7  C   UNL     1       3.744   6.530  17.665  0.00  0.00    +0.000 C 
ATOM      8  O   UNL     1       4.534   6.870  16.788  0.00  0.00    +0.000 OA
ATOM      9  N   UNL     1       3.848   5.340  18.345  0.00  0.00    +0.000 N 
ATOM     10  C   UNL     1       5.117   4.604  18.473  0.00  0.00    +0.000 C 
ATOM     11  C   UNL     1       4.865   3.725  19.697  0.00  0.00    +0.000 C 
ATOM     12  C   UNL     1       3.448   3.352  19.370  0.00  0.00    +0.000 A 
ATOM     13  C   UNL     1       2.810   2.139  19.527  0.00  0.00    +0.000 A 
ATOM     14  C   UNL     1       1.535   2.008  18.976  0.00  0.00    +0.000 A 
ATOM     15  C   UNL     1       0.890   3.106  18.370  0.00  0.00    +0.000 A 
ATOM     16  C   UNL     1       1.536   4.339  18.232  0.00  0.00    +0.000 A 
ATOM     17  C   UNL     1       2.842   4.410  18.675  0.00  0.00    +0.000 A 
ENDBRANCH   4   7
BRANCH   1  18
ATOM     18  S   UNL     1       0.581  11.012  20.181  0.00  0.00    +0.000 S 
ATOM     19  O   UNL     1       0.804  12.210  19.399  0.00  0.00    +0.000 OA
ATOM     20  O   UNL     1       0.979  10.946  21.575  0.00  0.00    +0.000 OA
BRANCH  18  21
ATOM     21  N   UNL     1      -1.052  10.621  20.158  0.00  0.00    +0.000 N 
ATOM     22  H   UNL     1      -1.534  10.969  20.976  0.00  0.00    +0.000 HD
BRANCH  21  27
ATOM     23  C   UNL     1      -3.855  10.745  15.165  0.00  0.00    +0.000 C 
ATOM     24  C   UNL     1      -3.119  10.720  16.473  0.00  0.00    +0.000 A 
ATOM     25  C   UNL     1      -2.087   9.801  16.692  0.00  0.00    +0.000 A 
ATOM     26  C   UNL     1      -1.402   9.785  17.913  0.00  0.00    +0.000 A 
ATOM     27  C   UNL     1      -1.750  10.682  18.915  0.00  0.00    +0.000 A 
ATOM     28  C   UNL     1      -2.772  11.601  18.716  0.00  0.00    +0.000 A 
ATOM     29  C   UNL     1      -3.460  11.622  17.490  0.00  0.00    +0.000 A 
ENDBRANCH  21  27
ENDBRANCH  18  21
ENDBRANCH   1  18
TORSDOF 4
ENDMDL
