MODEL 1
REMARK VINA RESULT:      -9.1      0.000      0.000
REMARK  Name = 
REMARK  8 active torsions:
REMARK  status: ('A' for Active; 'I' for Inactive)
REMARK    1  A    between atoms: C_1  and  C_2
REMARK    2  A    between atoms: C_7  and  N_8
REMARK    3  A    between atoms: C_9  and  C_11
REMARK    4  A    between atoms: C_20  and  O_21
REMARK    5  A    between atoms: O_21  and  C_22
REMARK    6  A    between atoms: C_22  and  C_23
REMARK    7  A    between atoms: C_24  and  C_25
REMARK    8  A    between atoms: C_28  and  C_29
REMARK                            x       y       z     vdW  Elec       q    Type
REMARK                         _______ _______ _______ _____ _____    ______ ____
ROOT
ATOM      1  C   UNL     1       3.066   6.428  18.661  0.00  0.00    +0.000 A 
ATOM      2  C   UNL     1       3.411   5.086  18.480  0.00  0.00    +0.000 A 
ATOM      3  C   UNL     1       2.641   4.088  19.057  0.00  0.00    +0.000 A 
ATOM      4  C   UNL     1       2.757   2.791  18.571  0.00  0.00    +0.000 A 
ATOM      5  C   UNL     1       1.629   1.988  18.591  0.00  0.00    +0.000 A 
ATOM      6  C   UNL     1       0.575   2.313  19.439  0.00  0.00    +0.000 A 
ATOM      7  C   UNL     1       0.643   3.460  20.237  0.00  0.00    +0.000 A 
ATOM      8  C   UNL     1       1.621   4.429  19.957  0.00  0.00    +0.000 A 
ATOM      9  C   UNL     1       1.581   5.751  20.443  0.00  0.00    +0.000 A 
ATOM     10  C   UNL     1       2.298   6.780  19.796  0.00  0.00    +0.000 A 
ENDROOT
BRANCH   1  12
ATOM     11  N   UNL     1       4.646   7.071  16.771  0.00  0.00    +0.000 N 
ATOM     12  C   UNL     1       3.519   7.328  17.552  0.00  0.00    +0.000 C 
ATOM     13  O   UNL     1       2.955   8.404  17.347  0.00  0.00    +0.000 OA
ATOM     14  H   UNL     1       4.930   7.957  16.365  0.00  0.00    +0.000 HD
BRANCH  11  21
ATOM     15  C   UNL     1       5.329   4.859  14.875  0.00  0.00    +0.000 C 
ATOM     16  C   UNL     1       6.061   5.130  16.144  0.00  0.00    +0.000 A 
ATOM     17  C   UNL     1       7.190   4.343  16.455  0.00  0.00    +0.000 A 
ATOM     18  C   UNL     1       7.973   4.598  17.574  0.00  0.00    +0.000 A 
ATOM     19  C   UNL     1       7.655   5.678  18.403  0.00  0.00    +0.000 A 
ATOM     20  C   UNL     1       6.552   6.472  18.111  0.00  0.00    +0.000 A 
ATOM     21  C   UNL     1       5.728   6.192  17.010  0.00  0.00    +0.000 A 
ENDBRANCH  11  21
ENDBRANCH   1  12
BRANCH  10  22
ATOM     22  O   UNL     1       2.083   8.011  20.389  0.00  0.00    +0.000 OA
BRANCH  22  23
ATOM     23  C   UNL     1       0.818   8.175  21.034  0.00  0.00    +0.000 C 
BRANCH  23  24
ATOM     24  C   UNL     1       0.083   9.448  20.804  0.00  0.00    +0.000 A 
ATOM     25  C   UNL     1      -0.482  10.240  21.860  0.00  0.00    +0.000 A 
ATOM     26  C   UNL     1      -0.421  10.006  23.326  0.00  0.00    +0.000 C 
ATOM     27  N   UNL     1      -1.112  11.321  21.389  0.00  0.00    +0.000 NA
ATOM     28  O   UNL     1      -0.955  11.274  20.020  0.00  0.00    +0.000 OA
ATOM     29  C   UNL     1      -0.234  10.164  19.678  0.00  0.00    +0.000 A 
ATOM     30  C   UNL     1       0.035  10.034  18.232  0.00  0.00    +0.000 C 
ENDBRANCH  23  24
ENDBRANCH  22  23
ENDBRANCH  10  22
TORSDOF 5
ENDMDL
MODEL 2
REMARK VINA RESULT:      -8.9      0.820      1.606
REMARK  Name = 
REMARK  8 active torsions:
REMARK  status: ('A' for Active; 'I' for Inactive)
REMARK    1  A    between atoms: C_1  and  C_2
REMARK    2  A    between atoms: C_7  and  N_8
REMARK    3  A    between atoms: C_9  and  C_11
REMARK    4  A    between atoms: C_20  and  O_21
REMARK    5  A    between atoms: O_21  and  C_22
REMARK    6  A    between atoms: C_22  and  C_23
REMARK    7  A    between atoms: C_24  and  C_25
REMARK    8  A    between atoms: C_28  and  C_29
REMARK                            x       y       z     vdW  Elec       q    Type
REMARK                         _______ _______ _______ _____ _____    ______ ____
ROOT
ATOM      1  C   UNL     1       3.054   6.446  18.697  0.00  0.00    +0.000 A 
ATOM      2  C   UNL     1       3.379   5.103  18.488  0.00  0.00    +0.000 A 
ATOM      3  C   UNL     1       2.606   4.104  19.059  0.00  0.00    +0.000 A 
ATOM      4  C   UNL     1       2.700   2.815  18.549  0.00  0.00    +0.000 A 
ATOM      5  C   UNL     1       1.562   2.025  18.572  0.00  0.00    +0.000 A 
ATOM      6  C   UNL     1       0.525   2.347  19.441  0.00  0.00    +0.000 A 
ATOM      7  C   UNL     1       0.618   3.479  20.257  0.00  0.00    +0.000 A 
ATOM      8  C   UNL     1       1.603   4.442  19.979  0.00  0.00    +0.000 A 
ATOM      9  C   UNL     1       1.586   5.755  20.489  0.00  0.00    +0.000 A 
ATOM     10  C   UNL     1       2.306   6.787  19.849  0.00  0.00    +0.000 A 
ENDROOT
BRANCH   1  12
ATOM     11  N   UNL     1       4.625   7.112  16.808  0.00  0.00    +0.000 N 
ATOM     12  C   UNL     1       3.502   7.359  17.597  0.00  0.00    +0.000 C 
ATOM     13  O   UNL     1       2.936   8.438  17.408  0.00  0.00    +0.000 OA
ATOM     14  H   UNL     1       4.906   8.003  16.412  0.00  0.00    +0.000 HD
BRANCH  11  21
ATOM     15  C   UNL     1       5.274   4.900  14.901  0.00  0.00    +0.000 C 
ATOM     16  C   UNL     1       6.025   5.168  16.160  0.00  0.00    +0.000 A 
ATOM     17  C   UNL     1       7.157   4.379  16.454  0.00  0.00    +0.000 A 
ATOM     18  C   UNL     1       7.956   4.630  17.562  0.00  0.00    +0.000 A 
ATOM     19  C   UNL     1       7.653   5.711  18.396  0.00  0.00    +0.000 A 
ATOM     20  C   UNL     1       6.547   6.507  18.120  0.00  0.00    +0.000 A 
ATOM     21  C   UNL     1       5.708   6.231  17.031  0.00  0.00    +0.000 A 
ENDBRANCH  11  21
ENDBRANCH   1  12
BRANCH  10  22
ATOM     22  O   UNL     1       2.114   8.009  20.467  0.00  0.00    +0.000 OA
BRANCH  22  23
ATOM     23  C   UNL     1       0.907   8.695  20.123  0.00  0.00    +0.000 C 
BRANCH  23  24
ATOM     24  C   UNL     1       0.657  10.018  20.757  0.00  0.00    +0.000 A 
ATOM     25  C   UNL     1       0.927  11.271  20.108  0.00  0.00    +0.000 A 
ATOM     26  C   UNL     1       1.437  11.511  18.734  0.00  0.00    +0.000 C 
ATOM     27  N   UNL     1       0.640  12.310  20.899  0.00  0.00    +0.000 NA
ATOM     28  O   UNL     1       0.156  11.764  22.068  0.00  0.00    +0.000 OA
ATOM     29  C   UNL     1       0.158  10.401  21.974  0.00  0.00    +0.000 A 
ATOM     30  C   UNL     1      -0.386   9.708  23.160  0.00  0.00    +0.000 C 
ENDBRANCH  23  24
ENDBRANCH  22  23
ENDBRANCH  10  22
TORSDOF 5
ENDMDL
MODEL 3
REMARK VINA RESULT:      -8.5      6.021      8.702
REMARK  Name = 
REMARK  8 active torsions:
REMARK  status: ('A' for Active; 'I' for Inactive)
REMARK    1  A    between atoms: C_1  and  C_2
REMARK    2  A    between atoms: C_7  and  N_8
REMARK    3  A    between atoms: C_9  and  C_11
REMARK    4  A    between atoms: C_20  and  O_21
REMARK    5  A    between atoms: O_21  and  C_22
REMARK    6  A    between atoms: C_22  and  C_23
REMARK    7  A    between atoms: C_24  and  C_25
REMARK    8  A    between atoms: C_28  and  C_29
REMARK                            x       y       z     vdW  Elec       q    Type
REMARK                         _______ _______ _______ _____ _____    ______ ____
ROOT
ATOM      1  C   UNL     1      -1.878  12.177  19.259  0.00  0.00    +0.000 A 
ATOM      2  C   UNL     1      -1.572  11.089  18.436  0.00  0.00    +0.000 A 
ATOM      3  C   UNL     1      -2.492  10.648  17.497  0.00  0.00    +0.000 A 
ATOM      4  C   UNL     1      -2.047   9.843  16.455  0.00  0.00    +0.000 A 
ATOM      5  C   UNL     1      -2.681   9.962  15.229  0.00  0.00    +0.000 A 
ATOM      6  C   UNL     1      -3.952  10.525  15.170  0.00  0.00    +0.000 A 
ATOM      7  C   UNL     1      -4.566  10.997  16.335  0.00  0.00    +0.000 A 
ATOM      8  C   UNL     1      -3.788  11.183  17.490  0.00  0.00    +0.000 A 
ATOM      9  C   UNL     1      -4.192  11.958  18.595  0.00  0.00    +0.000 A 
ATOM     10  C   UNL     1      -3.240  12.479  19.497  0.00  0.00    +0.000 A 
ENDROOT
BRANCH   1  12
ATOM     11  N   UNL     1       0.266  12.402  20.613  0.00  0.00    +0.000 N 
ATOM     12  C   UNL     1      -0.678  12.936  19.736  0.00  0.00    +0.000 C 
ATOM     13  O   UNL     1      -0.528  14.123  19.440  0.00  0.00    +0.000 OA
ATOM     14  H   UNL     1       0.744  13.188  21.042  0.00  0.00    +0.000 HD
BRANCH  11  21
ATOM     15  C   UNL     1      -1.526  12.370  23.009  0.00  0.00    +0.000 C 
ATOM     16  C   UNL     1      -0.647  11.236  22.606  0.00  0.00    +0.000 A 
ATOM     17  C   UNL     1      -0.698  10.040  23.352  0.00  0.00    +0.000 A 
ATOM     18  C   UNL     1       0.025   8.914  22.980  0.00  0.00    +0.000 A 
ATOM     19  C   UNL     1       0.805   8.951  21.819  0.00  0.00    +0.000 A 
ATOM     20  C   UNL     1       0.863  10.116  21.064  0.00  0.00    +0.000 A 
ATOM     21  C   UNL     1       0.174  11.273  21.459  0.00  0.00    +0.000 A 
ENDBRANCH  11  21
ENDBRANCH   1  12
BRANCH  10  22
ATOM     22  O   UNL     1      -3.829  13.258  20.476  0.00  0.00    +0.000 OA
BRANCH  22  23
ATOM     23  C   UNL     1      -5.256  13.339  20.429  0.00  0.00    +0.000 C 
BRANCH  23  24
ATOM     24  C   UNL     1      -6.022  12.729  21.549  0.00  0.00    +0.000 A 
ATOM     25  C   UNL     1      -7.040  11.733  21.363  0.00  0.00    +0.000 A 
ATOM     26  C   UNL     1      -7.493  11.098  20.099  0.00  0.00    +0.000 C 
ATOM     27  N   UNL     1      -7.595  11.367  22.523  0.00  0.00    +0.000 NA
ATOM     28  O   UNL     1      -6.938  12.094  23.493  0.00  0.00    +0.000 OA
ATOM     29  C   UNL     1      -5.996  12.894  22.909  0.00  0.00    +0.000 A 
ATOM     30  C   UNL     1      -5.196  13.690  23.863  0.00  0.00    +0.000 C 
ENDBRANCH  23  24
ENDBRANCH  22  23
ENDBRANCH  10  22
TORSDOF 5
ENDMDL
MODEL 4
REMARK VINA RESULT:      -8.5      0.630      1.348
REMARK  Name = 
REMARK  8 active torsions:
REMARK  status: ('A' for Active; 'I' for Inactive)
REMARK    1  A    between atoms: C_1  and  C_2
REMARK    2  A    between atoms: C_7  and  N_8
REMARK    3  A    between atoms: C_9  and  C_11
REMARK    4  A    between atoms: C_20  and  O_21
REMARK    5  A    between atoms: O_21  and  C_22
REMARK    6  A    between atoms: C_22  and  C_23
REMARK    7  A    between atoms: C_24  and  C_25
REMARK    8  A    between atoms: C_28  and  C_29
REMARK                            x       y       z     vdW  Elec       q    Type
REMARK                         _______ _______ _______ _____ _____    ______ ____
ROOT
ATOM      1  C   UNL     1       3.122   6.522  18.622  0.00  0.00    +0.000 A 
ATOM      2  C   UNL     1       3.566   5.232  18.319  0.00  0.00    +0.000 A 
ATOM      3  C   UNL     1       2.891   4.130  18.821  0.00  0.00    +0.000 A 
ATOM      4  C   UNL     1       3.097   2.893  18.223  0.00  0.00    +0.000 A 
ATOM      5  C   UNL     1       2.036   2.003  18.194  0.00  0.00    +0.000 A 
ATOM      6  C   UNL     1       0.981   2.169  19.085  0.00  0.00    +0.000 A 
ATOM      7  C   UNL     1       0.979   3.246  19.978  0.00  0.00    +0.000 A 
ATOM      8  C   UNL     1       1.871   4.311  19.765  0.00  0.00    +0.000 A 
ATOM      9  C   UNL     1       1.740   5.579  20.366  0.00  0.00    +0.000 A 
ATOM     10  C   UNL     1       2.358   6.713  19.797  0.00  0.00    +0.000 A 
ENDROOT
BRANCH   1  12
ATOM     11  N   UNL     1       4.358   7.297  16.535  0.00  0.00    +0.000 N 
ATOM     12  C   UNL     1       3.476   7.546  17.587  0.00  0.00    +0.000 C 
ATOM     13  O   UNL     1       3.066   8.704  17.684  0.00  0.00    +0.000 OA
ATOM     14  H   UNL     1       4.692   8.199  16.214  0.00  0.00    +0.000 HD
BRANCH  11  21
ATOM     15  C   UNL     1       7.085   7.461  17.756  0.00  0.00    +0.000 C 
ATOM     16  C   UNL     1       6.606   6.319  16.927  0.00  0.00    +0.000 A 
ATOM     17  C   UNL     1       7.456   5.207  16.751  0.00  0.00    +0.000 A 
ATOM     18  C   UNL     1       7.042   4.071  16.067  0.00  0.00    +0.000 A 
ATOM     19  C   UNL     1       5.739   4.010  15.563  0.00  0.00    +0.000 A 
ATOM     20  C   UNL     1       4.881   5.091  15.733  0.00  0.00    +0.000 A 
ATOM     21  C   UNL     1       5.307   6.260  16.380  0.00  0.00    +0.000 A 
ENDBRANCH  11  21
ENDBRANCH   1  12
BRANCH  10  22
ATOM     22  O   UNL     1       2.062   7.868  20.498  0.00  0.00    +0.000 OA
BRANCH  22  23
ATOM     23  C   UNL     1       0.712   7.987  20.955  0.00  0.00    +0.000 C 
BRANCH  23  24
ATOM     24  C   UNL     1       0.061   9.322  20.853  0.00  0.00    +0.000 A 
ATOM     25  C   UNL     1      -0.373  10.081  21.993  0.00  0.00    +0.000 A 
ATOM     26  C   UNL     1      -0.236   9.747  23.434  0.00  0.00    +0.000 C 
ATOM     27  N   UNL     1      -0.949  11.232  21.632  0.00  0.00    +0.000 NA
ATOM     28  O   UNL     1      -0.884  11.264  20.255  0.00  0.00    +0.000 OA
ATOM     29  C   UNL     1      -0.272  10.131  19.798  0.00  0.00    +0.000 A 
ATOM     30  C   UNL     1      -0.106  10.077  18.331  0.00  0.00    +0.000 C 
ENDBRANCH  23  24
ENDBRANCH  22  23
ENDBRANCH  10  22
TORSDOF 5
ENDMDL
MODEL 5
REMARK VINA RESULT:      -8.4      1.019      2.071
REMARK  Name = 
REMARK  8 active torsions:
REMARK  status: ('A' for Active; 'I' for Inactive)
REMARK    1  A    between atoms: C_1  and  C_2
REMARK    2  A    between atoms: C_7  and  N_8
REMARK    3  A    between atoms: C_9  and  C_11
REMARK    4  A    between atoms: C_20  and  O_21
REMARK    5  A    between atoms: O_21  and  C_22
REMARK    6  A    between atoms: C_22  and  C_23
REMARK    7  A    between atoms: C_24  and  C_25
REMARK    8  A    between atoms: C_28  and  C_29
REMARK                            x       y       z     vdW  Elec       q    Type
REMARK                         _______ _______ _______ _____ _____    ______ ____
ROOT
ATOM      1  C   UNL     1       2.996   6.629  18.571  0.00  0.00    +0.000 A 
ATOM      2  C   UNL     1       3.353   5.304  18.308  0.00  0.00    +0.000 A 
ATOM      3  C   UNL     1       2.669   4.266  18.921  0.00  0.00    +0.000 A 
ATOM      4  C   UNL     1       2.769   2.990  18.378  0.00  0.00    +0.000 A 
ATOM      5  C   UNL     1       1.669   2.156  18.480  0.00  0.00    +0.000 A 
ATOM      6  C   UNL     1       0.696   2.421  19.439  0.00  0.00    +0.000 A 
ATOM      7  C   UNL     1       0.815   3.542  20.268  0.00  0.00    +0.000 A 
ATOM      8  C   UNL     1       1.736   4.548  19.928  0.00  0.00    +0.000 A 
ATOM      9  C   UNL     1       1.712   5.851  20.465  0.00  0.00    +0.000 A 
ATOM     10  C   UNL     1       2.335   6.920  19.788  0.00  0.00    +0.000 A 
ENDROOT
BRANCH   1  12
ATOM     11  N   UNL     1       4.243   7.297  16.454  0.00  0.00    +0.000 N 
ATOM     12  C   UNL     1       3.314   7.579  17.456  0.00  0.00    +0.000 C 
ATOM     13  O   UNL     1       2.827   8.711  17.438  0.00  0.00    +0.000 OA
ATOM     14  H   UNL     1       4.527   8.188  16.060  0.00  0.00    +0.000 HD
BRANCH  11  21
ATOM     15  C   UNL     1       6.920   7.759  17.707  0.00  0.00    +0.000 C 
ATOM     16  C   UNL     1       6.538   6.515  16.982  0.00  0.00    +0.000 A 
ATOM     17  C   UNL     1       7.464   5.451  16.929  0.00  0.00    +0.000 A 
ATOM     18  C   UNL     1       7.142   4.230  16.349  0.00  0.00    +0.000 A 
ATOM     19  C   UNL     1       5.860   4.034  15.827  0.00  0.00    +0.000 A 
ATOM     20  C   UNL     1       4.929   5.065  15.876  0.00  0.00    +0.000 A 
ATOM     21  C   UNL     1       5.261   6.317  16.417  0.00  0.00    +0.000 A 
ENDBRANCH  11  21
ENDBRANCH   1  12
BRANCH  10  22
ATOM     22  O   UNL     1       2.150   8.124  20.444  0.00  0.00    +0.000 OA
BRANCH  22  23
ATOM     23  C   UNL     1       0.930   8.809  20.150  0.00  0.00    +0.000 C 
BRANCH  23  24
ATOM     24  C   UNL     1       0.652  10.075  20.880  0.00  0.00    +0.000 A 
ATOM     25  C   UNL     1       0.913  11.378  20.334  0.00  0.00    +0.000 A 
ATOM     26  C   UNL     1       1.440  11.730  18.990  0.00  0.00    +0.000 C 
ATOM     27  N   UNL     1       0.602  12.350  21.198  0.00  0.00    +0.000 NA
ATOM     28  O   UNL     1       0.109  11.709  22.315  0.00  0.00    +0.000 OA
ATOM     29  C   UNL     1       0.131  10.357  22.116  0.00  0.00    +0.000 A 
ATOM     30  C   UNL     1      -0.419   9.567  23.236  0.00  0.00    +0.000 C 
ENDBRANCH  23  24
ENDBRANCH  22  23
ENDBRANCH  10  22
TORSDOF 5
ENDMDL
MODEL 6
REMARK VINA RESULT:      -8.3      2.981      6.902
REMARK  Name = 
REMARK  8 active torsions:
REMARK  status: ('A' for Active; 'I' for Inactive)
REMARK    1  A    between atoms: C_1  and  C_2
REMARK    2  A    between atoms: C_7  and  N_8
REMARK    3  A    between atoms: C_9  and  C_11
REMARK    4  A    between atoms: C_20  and  O_21
REMARK    5  A    between atoms: O_21  and  C_22
REMARK    6  A    between atoms: C_22  and  C_23
REMARK    7  A    between atoms: C_24  and  C_25
REMARK    8  A    between atoms: C_28  and  C_29
REMARK                            x       y       z     vdW  Elec       q    Type
REMARK                         _______ _______ _______ _____ _____    ______ ____
ROOT
ATOM      1  C   UNL     1       3.455   5.583  17.930  0.00  0.00    +0.000 A 
ATOM      2  C   UNL     1       2.933   5.610  19.227  0.00  0.00    +0.000 A 
ATOM      3  C   UNL     1       2.363   6.773  19.722  0.00  0.00    +0.000 A 
ATOM      4  C   UNL     1       1.528   6.686  20.829  0.00  0.00    +0.000 A 
ATOM      5  C   UNL     1       0.473   7.580  20.914  0.00  0.00    +0.000 A 
ATOM      6  C   UNL     1       0.510   8.754  20.171  0.00  0.00    +0.000 A 
ATOM      7  C   UNL     1       1.590   9.012  19.319  0.00  0.00    +0.000 A 
ATOM      8  C   UNL     1       2.463   7.963  18.987  0.00  0.00    +0.000 A 
ATOM      9  C   UNL     1       3.358   7.998  17.899  0.00  0.00    +0.000 A 
ATOM     10  C   UNL     1       3.864   6.803  17.343  0.00  0.00    +0.000 A 
ENDROOT
BRANCH   1  12
ATOM     11  N   UNL     1       2.817   3.119  17.872  0.00  0.00    +0.000 N 
ATOM     12  C   UNL     1       3.444   4.224  17.298  0.00  0.00    +0.000 C 
ATOM     13  O   UNL     1       4.089   4.006  16.271  0.00  0.00    +0.000 OA
ATOM     14  H   UNL     1       3.242   2.295  17.460  0.00  0.00    +0.000 HD
BRANCH  11  21
ATOM     15  C   UNL     1       4.716   2.380  20.062  0.00  0.00    +0.000 C 
ATOM     16  C   UNL     1       3.248   2.551  20.249  0.00  0.00    +0.000 A 
ATOM     17  C   UNL     1       2.711   2.424  21.548  0.00  0.00    +0.000 A 
ATOM     18  C   UNL     1       1.367   2.660  21.811  0.00  0.00    +0.000 A 
ATOM     19  C   UNL     1       0.524   3.061  20.769  0.00  0.00    +0.000 A 
ATOM     20  C   UNL     1       1.033   3.201  19.484  0.00  0.00    +0.000 A 
ATOM     21  C   UNL     1       2.378   2.919  19.201  0.00  0.00    +0.000 A 
ENDBRANCH  11  21
ENDBRANCH   1  12
BRANCH  10  22
ATOM     22  O   UNL     1       4.677   7.047  16.251  0.00  0.00    +0.000 OA
BRANCH  22  23
ATOM     23  C   UNL     1       6.076   7.141  16.528  0.00  0.00    +0.000 C 
BRANCH  23  24
ATOM     24  C   UNL     1       6.855   5.875  16.600  0.00  0.00    +0.000 A 
ATOM     25  C   UNL     1       7.449   5.378  17.810  0.00  0.00    +0.000 A 
ATOM     26  C   UNL     1       7.383   5.954  19.178  0.00  0.00    +0.000 C 
ATOM     27  N   UNL     1       8.116   4.238  17.603  0.00  0.00    +0.000 NA
ATOM     28  O   UNL     1       7.954   3.951  16.265  0.00  0.00    +0.000 OA
ATOM     29  C   UNL     1       7.194   4.922  15.675  0.00  0.00    +0.000 A 
ATOM     30  C   UNL     1       6.918   4.693  14.242  0.00  0.00    +0.000 C 
ENDBRANCH  23  24
ENDBRANCH  22  23
ENDBRANCH  10  22
TORSDOF 5
ENDMDL
MODEL 7
REMARK VINA RESULT:      -8.3      2.407      6.427
REMARK  Name = 
REMARK  8 active torsions:
REMARK  status: ('A' for Active; 'I' for Inactive)
REMARK    1  A    between atoms: C_1  and  C_2
REMARK    2  A    between atoms: C_7  and  N_8
REMARK    3  A    between atoms: C_9  and  C_11
REMARK    4  A    between atoms: C_20  and  O_21
REMARK    5  A    between atoms: O_21  and  C_22
REMARK    6  A    between atoms: C_22  and  C_23
REMARK    7  A    between atoms: C_24  and  C_25
REMARK    8  A    between atoms: C_28  and  C_29
REMARK                            x       y       z     vdW  Elec       q    Type
REMARK                         _______ _______ _______ _____ _____    ______ ____
ROOT
ATOM      1  C   UNL     1       3.775   5.617  18.243  0.00  0.00    +0.000 A 
ATOM      2  C   UNL     1       2.804   4.717  17.795  0.00  0.00    +0.000 A 
ATOM      3  C   UNL     1       2.301   3.754  18.656  0.00  0.00    +0.000 A 
ATOM      4  C   UNL     1       1.100   3.133  18.334  0.00  0.00    +0.000 A 
ATOM      5  C   UNL     1       0.269   2.751  19.374  0.00  0.00    +0.000 A 
ATOM      6  C   UNL     1       0.799   2.603  20.652  0.00  0.00    +0.000 A 
ATOM      7  C   UNL     1       2.151   2.872  20.887  0.00  0.00    +0.000 A 
ATOM      8  C   UNL     1       2.886   3.577  19.918  0.00  0.00    +0.000 A 
ATOM      9  C   UNL     1       4.124   4.201  20.169  0.00  0.00    +0.000 A 
ATOM     10  C   UNL     1       4.588   5.243  19.338  0.00  0.00    +0.000 A 
ENDROOT
BRANCH   1  12
ATOM     11  N   UNL     1       3.178   8.083  18.020  0.00  0.00    +0.000 N 
ATOM     12  C   UNL     1       3.772   6.927  17.514  0.00  0.00    +0.000 C 
ATOM     13  O   UNL     1       4.221   7.008  16.369  0.00  0.00    +0.000 OA
ATOM     14  H   UNL     1       3.001   8.692  17.228  0.00  0.00    +0.000 HD
BRANCH  11  21
ATOM     15  C   UNL     1       1.214  10.340  18.060  0.00  0.00    +0.000 C 
ATOM     16  C   UNL     1       1.309   9.293  19.117  0.00  0.00    +0.000 A 
ATOM     17  C   UNL     1       0.378   9.316  20.177  0.00  0.00    +0.000 A 
ATOM     18  C   UNL     1       0.350   8.321  21.147  0.00  0.00    +0.000 A 
ATOM     19  C   UNL     1       1.246   7.251  21.059  0.00  0.00    +0.000 A 
ATOM     20  C   UNL     1       2.166   7.204  20.018  0.00  0.00    +0.000 A 
ATOM     21  C   UNL     1       2.232   8.229  19.062  0.00  0.00    +0.000 A 
ENDBRANCH  11  21
ENDBRANCH   1  12
BRANCH  10  22
ATOM     22  O   UNL     1       5.790   5.762  19.784  0.00  0.00    +0.000 OA
BRANCH  22  23
ATOM     23  C   UNL     1       6.958   5.288  19.110  0.00  0.00    +0.000 C 
BRANCH  23  24
ATOM     24  C   UNL     1       7.251   5.842  17.760  0.00  0.00    +0.000 A 
ATOM     25  C   UNL     1       7.032   5.115  16.541  0.00  0.00    +0.000 A 
ATOM     26  C   UNL     1       6.457   3.757  16.363  0.00  0.00    +0.000 C 
ATOM     27  N   UNL     1       7.400   5.823  15.468  0.00  0.00    +0.000 NA
ATOM     28  O   UNL     1       7.843   7.033  15.957  0.00  0.00    +0.000 OA
ATOM     29  C   UNL     1       7.742   7.043  17.319  0.00  0.00    +0.000 A 
ATOM     30  C   UNL     1       8.151   8.314  17.952  0.00  0.00    +0.000 C 
ENDBRANCH  23  24
ENDBRANCH  22  23
ENDBRANCH  10  22
TORSDOF 5
ENDMDL
MODEL 8
REMARK VINA RESULT:      -8.1      2.997      7.038
REMARK  Name = 
REMARK  8 active torsions:
REMARK  status: ('A' for Active; 'I' for Inactive)
REMARK    1  A    between atoms: C_1  and  C_2
REMARK    2  A    between atoms: C_7  and  N_8
REMARK    3  A    between atoms: C_9  and  C_11
REMARK    4  A    between atoms: C_20  and  O_21
REMARK    5  A    between atoms: O_21  and  C_22
REMARK    6  A    between atoms: C_22  and  C_23
REMARK    7  A    between atoms: C_24  and  C_25
REMARK    8  A    between atoms: C_28  and  C_29
REMARK                            x       y       z     vdW  Elec       q    Type
REMARK                         _______ _______ _______ _____ _____    ______ ____
ROOT
ATOM      1  C   UNL     1       3.478   5.544  17.892  0.00  0.00    +0.000 A 
ATOM      2  C   UNL     1       2.998   5.585  19.204  0.00  0.00    +0.000 A 
ATOM      3  C   UNL     1       2.428   6.749  19.698  0.00  0.00    +0.000 A 
ATOM      4  C   UNL     1       1.630   6.670  20.833  0.00  0.00    +0.000 A 
ATOM      5  C   UNL     1       0.565   7.549  20.937  0.00  0.00    +0.000 A 
ATOM      6  C   UNL     1       0.562   8.712  20.174  0.00  0.00    +0.000 A 
ATOM      7  C   UNL     1       1.609   8.970  19.283  0.00  0.00    +0.000 A 
ATOM      8  C   UNL     1       2.486   7.927  18.940  0.00  0.00    +0.000 A 
ATOM      9  C   UNL     1       3.346   7.956  17.823  0.00  0.00    +0.000 A 
ATOM     10  C   UNL     1       3.851   6.759  17.271  0.00  0.00    +0.000 A 
ENDROOT
BRANCH   1  12
ATOM     11  N   UNL     1       2.835   3.080  17.873  0.00  0.00    +0.000 N 
ATOM     12  C   UNL     1       3.467   4.175  17.283  0.00  0.00    +0.000 C 
ATOM     13  O   UNL     1       4.114   3.937  16.261  0.00  0.00    +0.000 OA
ATOM     14  H   UNL     1       3.260   2.248  17.478  0.00  0.00    +0.000 HD
BRANCH  11  21
ATOM     15  C   UNL     1       4.723   2.358  20.079  0.00  0.00    +0.000 C 
ATOM     16  C   UNL     1       3.256   2.545  20.260  0.00  0.00    +0.000 A 
ATOM     17  C   UNL     1       2.716   2.442  21.559  0.00  0.00    +0.000 A 
ATOM     18  C   UNL     1       1.374   2.693  21.816  0.00  0.00    +0.000 A 
ATOM     19  C   UNL     1       0.537   3.086  20.766  0.00  0.00    +0.000 A 
ATOM     20  C   UNL     1       1.049   3.202  19.480  0.00  0.00    +0.000 A 
ATOM     21  C   UNL     1       2.393   2.904  19.205  0.00  0.00    +0.000 A 
ENDBRANCH  11  21
ENDBRANCH   1  12
BRANCH  10  22
ATOM     22  O   UNL     1       4.624   6.996  16.149  0.00  0.00    +0.000 OA
BRANCH  22  23
ATOM     23  C   UNL     1       6.020   7.188  16.388  0.00  0.00    +0.000 C 
BRANCH  23  24
ATOM     24  C   UNL     1       6.845   5.985  16.681  0.00  0.00    +0.000 A 
ATOM     25  C   UNL     1       7.144   4.972  15.708  0.00  0.00    +0.000 A 
ATOM     26  C   UNL     1       6.760   4.925  14.273  0.00  0.00    +0.000 C 
ATOM     27  N   UNL     1       7.880   3.984  16.228  0.00  0.00    +0.000 NA
ATOM     28  O   UNL     1       8.099   4.339  17.543  0.00  0.00    +0.000 OA
ATOM     29  C   UNL     1       7.492   5.535  17.803  0.00  0.00    +0.000 A 
ATOM     30  C   UNL     1       7.699   6.037  19.177  0.00  0.00    +0.000 C 
ENDBRANCH  23  24
ENDBRANCH  22  23
ENDBRANCH  10  22
TORSDOF 5
ENDMDL
MODEL 9
REMARK VINA RESULT:      -8.1      4.686      7.498
REMARK  Name = 
REMARK  8 active torsions:
REMARK  status: ('A' for Active; 'I' for Inactive)
REMARK    1  A    between atoms: C_1  and  C_2
REMARK    2  A    between atoms: C_7  and  N_8
REMARK    3  A    between atoms: C_9  and  C_11
REMARK    4  A    between atoms: C_20  and  O_21
REMARK    5  A    between atoms: O_21  and  C_22
REMARK    6  A    between atoms: C_22  and  C_23
REMARK    7  A    between atoms: C_24  and  C_25
REMARK    8  A    between atoms: C_28  and  C_29
REMARK                            x       y       z     vdW  Elec       q    Type
REMARK                         _______ _______ _______ _____ _____    ______ ____
ROOT
ATOM      1  C   UNL     1      -1.338  12.019  19.125  0.00  0.00    +0.000 A 
ATOM      2  C   UNL     1      -1.313  10.872  18.326  0.00  0.00    +0.000 A 
ATOM      3  C   UNL     1      -2.390  10.573  17.507  0.00  0.00    +0.000 A 
ATOM      4  C   UNL     1      -2.205   9.674  16.464  0.00  0.00    +0.000 A 
ATOM      5  C   UNL     1      -2.938   9.867  15.305  0.00  0.00    +0.000 A 
ATOM      6  C   UNL     1      -4.093  10.641  15.349  0.00  0.00    +0.000 A 
ATOM      7  C   UNL     1      -4.488  11.247  16.547  0.00  0.00    +0.000 A 
ATOM      8  C   UNL     1      -3.569  11.325  17.607  0.00  0.00    +0.000 A 
ATOM      9  C   UNL     1      -3.713  12.190  18.711  0.00  0.00    +0.000 A 
ATOM     10  C   UNL     1      -2.594  12.561  19.486  0.00  0.00    +0.000 A 
ENDROOT
BRANCH   1  12
ATOM     11  N   UNL     1       1.113  11.768  19.766  0.00  0.00    +0.000 N 
ATOM     12  C   UNL     1       0.018  12.570  19.442  0.00  0.00    +0.000 C 
ATOM     13  O   UNL     1       0.197  13.786  19.526  0.00  0.00    +0.000 OA
ATOM     14  H   UNL     1       1.770  12.358  20.266  0.00  0.00    +0.000 HD
BRANCH  11  21
ATOM     15  C   UNL     1       2.006   9.588  17.922  0.00  0.00    +0.000 C 
ATOM     16  C   UNL     1       1.548   9.365  19.322  0.00  0.00    +0.000 A 
ATOM     17  C   UNL     1       1.593   8.057  19.848  0.00  0.00    +0.000 A 
ATOM     18  C   UNL     1       1.268   7.790  21.173  0.00  0.00    +0.000 A 
ATOM     19  C   UNL     1       0.913   8.846  22.019  0.00  0.00    +0.000 A 
ATOM     20  C   UNL     1       0.870  10.143  21.523  0.00  0.00    +0.000 A 
ATOM     21  C   UNL     1       1.150  10.415  20.175  0.00  0.00    +0.000 A 
ENDBRANCH  11  21
ENDBRANCH   1  12
BRANCH  10  22
ATOM     22  O   UNL     1      -2.933  13.458  20.483  0.00  0.00    +0.000 OA
BRANCH  22  23
ATOM     23  C   UNL     1      -4.240  13.302  21.040  0.00  0.00    +0.000 C 
BRANCH  23  24
ATOM     24  C   UNL     1      -4.343  12.801  22.437  0.00  0.00    +0.000 A 
ATOM     25  C   UNL     1      -5.551  12.857  23.213  0.00  0.00    +0.000 A 
ATOM     26  C   UNL     1      -6.891  13.351  22.804  0.00  0.00    +0.000 C 
ATOM     27  N   UNL     1      -5.374  12.367  24.444  0.00  0.00    +0.000 NA
ATOM     28  O   UNL     1      -4.058  11.959  24.495  0.00  0.00    +0.000 OA
ATOM     29  C   UNL     1      -3.453  12.209  23.295  0.00  0.00    +0.000 A 
ATOM     30  C   UNL     1      -2.044  11.770  23.219  0.00  0.00    +0.000 C 
ENDBRANCH  23  24
ENDBRANCH  22  23
ENDBRANCH  10  22
TORSDOF 5
ENDMDL
