MODEL 1
REMARK VINA RESULT:      -8.0      0.000      0.000
REMARK  Name = 
REMARK  3 active torsions:
REMARK  status: ('A' for Active; 'I' for Inactive)
REMARK    1  A    between atoms: C_1  and  C_2
REMARK    2  A    between atoms: C_3  and  C_4
REMARK    3  A    between atoms: N_18  and  C_19
REMARK                            x       y       z     vdW  Elec       q    Type
REMARK                         _______ _______ _______ _____ _____    ______ ____
ROOT
ATOM      1  C   UNL     1      -1.520  10.009  18.504  0.00  0.00    +0.000 C 
ATOM      2  C   UNL     1      -0.499  10.533  19.448  0.00  0.00    +0.000 A 
ATOM      3  C   UNL     1       0.882  10.331  19.471  0.00  0.00    +0.000 A 
ATOM      4  N   UNL     1       1.446  11.277  20.283  0.00  0.00    +0.000 NA
ATOM      5  N   UNL     1       0.482  11.983  20.843  0.00  0.00    +0.000 NA
ATOM      6  N   UNL     1      -0.713  11.503  20.418  0.00  0.00    +0.000 N 
ENDROOT
BRANCH   3   7
ATOM      7  C   UNL     1       1.658   9.368  18.670  0.00  0.00    +0.000 C 
ATOM      8  O   UNL     1       1.874   9.643  17.490  0.00  0.00    +0.000 OA
ATOM      9  N   UNL     1       2.060   8.146  19.274  0.00  0.00    +0.000 N 
ATOM     10  C   UNL     1       1.644   7.764  20.635  0.00  0.00    +0.000 C 
ATOM     11  C   UNL     1       1.174   6.328  20.722  0.00  0.00    +0.000 C 
ATOM     12  C   UNL     1       2.299   5.397  20.334  0.00  0.00    +0.000 C 
ATOM     13  C   UNL     1       2.998   5.854  19.082  0.00  0.00    +0.000 A 
ATOM     14  C   UNL     1       3.799   4.903  18.419  0.00  0.00    +0.000 A 
ATOM     15  C   UNL     1       4.492   5.236  17.263  0.00  0.00    +0.000 A 
ATOM     16  C   UNL     1       4.405   6.528  16.768  0.00  0.00    +0.000 A 
ATOM     17  C   UNL     1       3.620   7.484  17.426  0.00  0.00    +0.000 A 
ATOM     18  C   UNL     1       2.890   7.174  18.586  0.00  0.00    +0.000 A 
ENDBRANCH   3   7
BRANCH   6  19
ATOM     19  C   UNL     1      -1.911  12.048  20.952  0.00  0.00    +0.000 A 
ATOM     20  C   UNL     1      -2.831  12.634  20.070  0.00  0.00    +0.000 A 
ATOM     21  C   UNL     1      -4.056  13.114  20.542  0.00  0.00    +0.000 A 
ATOM     22  C   UNL     1      -4.348  13.052  21.899  0.00  0.00    +0.000 A 
ATOM     23  C   UNL     1      -3.416  12.512  22.790  0.00  0.00    +0.000 A 
ATOM     24  C   UNL     1      -2.189  12.033  22.323  0.00  0.00    +0.000 A 
ATOM     25  O   UNL     1      -3.631  12.433  24.141  0.00  0.00    +0.000 OA
ATOM     26  C   UNL     1      -5.020  12.575  24.456  0.00  0.00    +0.000 C 
ATOM     27  C   UNL     1      -5.632  13.742  23.698  0.00  0.00    +0.000 C 
ATOM     28  O   UNL     1      -5.575  13.529  22.285  0.00  0.00    +0.000 OA
ENDBRANCH   6  19
TORSDOF 2
ENDMDL
MODEL 2
REMARK VINA RESULT:      -8.0      2.227      9.537
REMARK  Name = 
REMARK  3 active torsions:
REMARK  status: ('A' for Active; 'I' for Inactive)
REMARK    1  A    between atoms: C_1  and  C_2
REMARK    2  A    between atoms: C_3  and  C_4
REMARK    3  A    between atoms: N_18  and  C_19
REMARK                            x       y       z     vdW  Elec       q    Type
REMARK                         _______ _______ _______ _____ _____    ______ ____
ROOT
ATOM      1  C   UNL     1       1.525   7.878  20.639  0.00  0.00    +0.000 C 
ATOM      2  C   UNL     1       1.553   8.693  19.396  0.00  0.00    +0.000 A 
ATOM      3  C   UNL     1       1.002   9.950  19.140  0.00  0.00    +0.000 A 
ATOM      4  N   UNL     1       1.574  10.452  18.003  0.00  0.00    +0.000 NA
ATOM      5  N   UNL     1       2.367   9.532  17.487  0.00  0.00    +0.000 NA
ATOM      6  N   UNL     1       2.313   8.424  18.266  0.00  0.00    +0.000 N 
ENDROOT
BRANCH   3   7
ATOM      7  C   UNL     1       0.067  10.705  19.992  0.00  0.00    +0.000 C 
ATOM      8  O   UNL     1       0.348  10.834  21.183  0.00  0.00    +0.000 OA
ATOM      9  N   UNL     1      -1.139  11.191  19.417  0.00  0.00    +0.000 N 
ATOM     10  C   UNL     1      -1.535  10.879  18.032  0.00  0.00    +0.000 C 
ATOM     11  C   UNL     1      -2.987  10.468  17.916  0.00  0.00    +0.000 C 
ATOM     12  C   UNL     1      -3.876  11.598  18.378  0.00  0.00    +0.000 C 
ATOM     13  C   UNL     1      -3.395  12.196  19.673  0.00  0.00    +0.000 A 
ATOM     14  C   UNL     1      -4.318  12.986  20.389  0.00  0.00    +0.000 A 
ATOM     15  C   UNL     1      -3.961  13.589  21.587  0.00  0.00    +0.000 A 
ATOM     16  C   UNL     1      -2.674  13.423  22.073  0.00  0.00    +0.000 A 
ATOM     17  C   UNL     1      -1.746  12.649  21.364  0.00  0.00    +0.000 A 
ATOM     18  C   UNL     1      -2.081  12.009  20.159  0.00  0.00    +0.000 A 
ENDBRANCH   3   7
BRANCH   6  19
ATOM     19  C   UNL     1       3.021   7.258  17.867  0.00  0.00    +0.000 A 
ATOM     20  C   UNL     1       2.465   6.004  18.162  0.00  0.00    +0.000 A 
ATOM     21  C   UNL     1       3.089   4.834  17.721  0.00  0.00    +0.000 A 
ATOM     22  C   UNL     1       4.289   4.907  17.026  0.00  0.00    +0.000 A 
ATOM     23  C   UNL     1       4.873   6.151  16.771  0.00  0.00    +0.000 A 
ATOM     24  C   UNL     1       4.255   7.325  17.210  0.00  0.00    +0.000 A 
ATOM     25  O   UNL     1       6.062   6.298  16.104  0.00  0.00    +0.000 OA
ATOM     26  C   UNL     1       6.400   5.114  15.375  0.00  0.00    +0.000 C 
ATOM     27  C   UNL     1       6.205   3.874  16.233  0.00  0.00    +0.000 C 
ATOM     28  O   UNL     1       4.834   3.718  16.613  0.00  0.00    +0.000 OA
ENDBRANCH   6  19
TORSDOF 2
ENDMDL
MODEL 3
REMARK VINA RESULT:      -8.0      2.572      9.564
REMARK  Name = 
REMARK  3 active torsions:
REMARK  status: ('A' for Active; 'I' for Inactive)
REMARK    1  A    between atoms: C_1  and  C_2
REMARK    2  A    between atoms: C_3  and  C_4
REMARK    3  A    between atoms: N_18  and  C_19
REMARK                            x       y       z     vdW  Elec       q    Type
REMARK                         _______ _______ _______ _____ _____    ______ ____
ROOT
ATOM      1  C   UNL     1       1.766   7.778  20.770  0.00  0.00    +0.000 C 
ATOM      2  C   UNL     1       1.598   8.539  19.504  0.00  0.00    +0.000 A 
ATOM      3  C   UNL     1       0.919   9.736  19.266  0.00  0.00    +0.000 A 
ATOM      4  N   UNL     1       1.327  10.234  18.059  0.00  0.00    +0.000 NA
ATOM      5  N   UNL     1       2.138   9.360  17.493  0.00  0.00    +0.000 NA
ATOM      6  N   UNL     1       2.258   8.284  18.310  0.00  0.00    +0.000 N 
ENDROOT
BRANCH   3   7
ATOM      7  C   UNL     1       0.016  10.449  20.186  0.00  0.00    +0.000 C 
ATOM      8  O   UNL     1      -1.110   9.985  20.364  0.00  0.00    +0.000 OA
ATOM      9  N   UNL     1       0.460  11.667  20.770  0.00  0.00    +0.000 N 
ATOM     10  C   UNL     1       1.745  12.292  20.410  0.00  0.00    +0.000 C 
ATOM     11  C   UNL     1       1.625  13.781  20.169  0.00  0.00    +0.000 C 
ATOM     12  C   UNL     1       1.145  14.466  21.426  0.00  0.00    +0.000 C 
ATOM     13  C   UNL     1      -0.015  13.739  22.053  0.00  0.00    +0.000 A 
ATOM     14  C   UNL     1      -0.779  14.457  22.996  0.00  0.00    +0.000 A 
ATOM     15  C   UNL     1      -1.860  13.866  23.635  0.00  0.00    +0.000 A 
ATOM     16  C   UNL     1      -2.178  12.547  23.351  0.00  0.00    +0.000 A 
ATOM     17  C   UNL     1      -1.418  11.821  22.424  0.00  0.00    +0.000 A 
ATOM     18  C   UNL     1      -0.331  12.396  21.745  0.00  0.00    +0.000 A 
ENDBRANCH   3   7
BRANCH   6  19
ATOM     19  C   UNL     1       3.017   7.164  17.878  0.00  0.00    +0.000 A 
ATOM     20  C   UNL     1       2.508   5.878  18.118  0.00  0.00    +0.000 A 
ATOM     21  C   UNL     1       3.183   4.751  17.642  0.00  0.00    +0.000 A 
ATOM     22  C   UNL     1       4.388   4.899  16.967  0.00  0.00    +0.000 A 
ATOM     23  C   UNL     1       4.925   6.173  16.766  0.00  0.00    +0.000 A 
ATOM     24  C   UNL     1       4.254   7.304  17.241  0.00  0.00    +0.000 A 
ATOM     25  O   UNL     1       6.115   6.392  16.123  0.00  0.00    +0.000 OA
ATOM     26  C   UNL     1       6.509   5.251  15.354  0.00  0.00    +0.000 C 
ATOM     27  C   UNL     1       6.353   3.973  16.162  0.00  0.00    +0.000 C 
ATOM     28  O   UNL     1       4.985   3.748  16.518  0.00  0.00    +0.000 OA
ENDBRANCH   6  19
TORSDOF 2
ENDMDL
MODEL 4
REMARK VINA RESULT:      -7.9      2.455      9.191
REMARK  Name = 
REMARK  3 active torsions:
REMARK  status: ('A' for Active; 'I' for Inactive)
REMARK    1  A    between atoms: C_1  and  C_2
REMARK    2  A    between atoms: C_3  and  C_4
REMARK    3  A    between atoms: N_18  and  C_19
REMARK                            x       y       z     vdW  Elec       q    Type
REMARK                         _______ _______ _______ _____ _____    ______ ____
ROOT
ATOM      1  C   UNL     1       1.348   7.888  20.824  0.00  0.00    +0.000 C 
ATOM      2  C   UNL     1       1.488   8.483  19.469  0.00  0.00    +0.000 A 
ATOM      3  C   UNL     1       1.116   9.746  19.006  0.00  0.00    +0.000 A 
ATOM      4  N   UNL     1       1.751   9.977  17.816  0.00  0.00    +0.000 NA
ATOM      5  N   UNL     1       2.408   8.887  17.469  0.00  0.00    +0.000 NA
ATOM      6  N   UNL     1       2.202   7.935  18.412  0.00  0.00    +0.000 N 
ENDROOT
BRANCH   3   7
ATOM      7  C   UNL     1       0.296  10.749  19.707  0.00  0.00    +0.000 C 
ATOM      8  O   UNL     1       0.726  11.207  20.766  0.00  0.00    +0.000 OA
ATOM      9  N   UNL     1      -0.975  11.089  19.168  0.00  0.00    +0.000 N 
ATOM     10  C   UNL     1      -1.543  10.403  17.994  0.00  0.00    +0.000 C 
ATOM     11  C   UNL     1      -2.997  10.028  18.181  0.00  0.00    +0.000 C 
ATOM     12  C   UNL     1      -3.822  11.274  18.398  0.00  0.00    +0.000 C 
ATOM     13  C   UNL     1      -3.182  12.205  19.393  0.00  0.00    +0.000 A 
ATOM     14  C   UNL     1      -4.008  13.200  19.954  0.00  0.00    +0.000 A 
ATOM     15  C   UNL     1      -3.502  14.111  20.871  0.00  0.00    +0.000 A 
ATOM     16  C   UNL     1      -2.163  14.048  21.224  0.00  0.00    +0.000 A 
ATOM     17  C   UNL     1      -1.332  13.069  20.664  0.00  0.00    +0.000 A 
ATOM     18  C   UNL     1      -1.816  12.120  19.749  0.00  0.00    +0.000 A 
ENDBRANCH   3   7
BRANCH   6  19
ATOM     19  C   UNL     1       2.741   6.635  18.218  0.00  0.00    +0.000 A 
ATOM     20  C   UNL     1       4.022   6.519  17.655  0.00  0.00    +0.000 A 
ATOM     21  C   UNL     1       4.621   5.264  17.517  0.00  0.00    +0.000 A 
ATOM     22  C   UNL     1       3.930   4.120  17.895  0.00  0.00    +0.000 A 
ATOM     23  C   UNL     1       2.635   4.225  18.412  0.00  0.00    +0.000 A 
ATOM     24  C   UNL     1       2.031   5.477  18.551  0.00  0.00    +0.000 A 
ATOM     25  O   UNL     1       1.890   3.139  18.791  0.00  0.00    +0.000 OA
ATOM     26  C   UNL     1       2.713   1.982  18.978  0.00  0.00    +0.000 C 
ATOM     27  C   UNL     1       3.687   1.818  17.823  0.00  0.00    +0.000 C 
ATOM     28  O   UNL     1       4.588   2.926  17.743  0.00  0.00    +0.000 OA
ENDBRANCH   6  19
TORSDOF 2
ENDMDL
MODEL 5
REMARK VINA RESULT:      -7.9      3.383      8.682
REMARK  Name = 
REMARK  3 active torsions:
REMARK  status: ('A' for Active; 'I' for Inactive)
REMARK    1  A    between atoms: C_1  and  C_2
REMARK    2  A    between atoms: C_3  and  C_4
REMARK    3  A    between atoms: N_18  and  C_19
REMARK                            x       y       z     vdW  Elec       q    Type
REMARK                         _______ _______ _______ _____ _____    ______ ____
ROOT
ATOM      1  C   UNL     1       0.194   9.638  18.235  0.00  0.00    +0.000 C 
ATOM      2  C   UNL     1       0.680   9.795  19.631  0.00  0.00    +0.000 A 
ATOM      3  C   UNL     1       0.512  10.857  20.521  0.00  0.00    +0.000 A 
ATOM      4  N   UNL     1       0.815  10.419  21.782  0.00  0.00    +0.000 NA
ATOM      5  N   UNL     1       1.260   9.180  21.704  0.00  0.00    +0.000 NA
ATOM      6  N   UNL     1       1.267   8.800  20.402  0.00  0.00    +0.000 N 
ENDROOT
BRANCH   3   7
ATOM      7  C   UNL     1      -0.028  12.195  20.223  0.00  0.00    +0.000 C 
ATOM      8  O   UNL     1      -1.244  12.359  20.318  0.00  0.00    +0.000 OA
ATOM      9  N   UNL     1       0.865  13.208  19.779  0.00  0.00    +0.000 N 
ATOM     10  C   UNL     1       2.289  12.941  19.509  0.00  0.00    +0.000 C 
ATOM     11  C   UNL     1       2.763  13.552  18.208  0.00  0.00    +0.000 C 
ATOM     12  C   UNL     1       2.604  15.053  18.260  0.00  0.00    +0.000 C 
ATOM     13  C   UNL     1       1.257  15.456  18.799  0.00  0.00    +0.000 A 
ATOM     14  C   UNL     1       0.847  16.782  18.555  0.00  0.00    +0.000 A 
ATOM     15  C   UNL     1      -0.374  17.247  19.025  0.00  0.00    +0.000 A 
ATOM     16  C   UNL     1      -1.188  16.398  19.757  0.00  0.00    +0.000 A 
ATOM     17  C   UNL     1      -0.784  15.081  20.015  0.00  0.00    +0.000 A 
ATOM     18  C   UNL     1       0.435  14.573  19.536  0.00  0.00    +0.000 A 
ENDBRANCH   3   7
BRANCH   6  19
ATOM     19  C   UNL     1       1.790   7.527  20.052  0.00  0.00    +0.000 A 
ATOM     20  C   UNL     1       2.611   7.429  18.918  0.00  0.00    +0.000 A 
ATOM     21  C   UNL     1       3.208   6.212  18.581  0.00  0.00    +0.000 A 
ATOM     22  C   UNL     1       2.953   5.080  19.345  0.00  0.00    +0.000 A 
ATOM     23  C   UNL     1       2.099   5.159  20.448  0.00  0.00    +0.000 A 
ATOM     24  C   UNL     1       1.498   6.374  20.789  0.00  0.00    +0.000 A 
ATOM     25  O   UNL     1       1.792   4.081  21.237  0.00  0.00    +0.000 OA
ATOM     26  C   UNL     1       2.732   3.017  21.054  0.00  0.00    +0.000 C 
ATOM     27  C   UNL     1       2.997   2.775  19.577  0.00  0.00    +0.000 C 
ATOM     28  O   UNL     1       3.586   3.924  18.961  0.00  0.00    +0.000 OA
ENDBRANCH   6  19
TORSDOF 2
ENDMDL
MODEL 6
REMARK VINA RESULT:      -7.9      2.973      9.128
REMARK  Name = 
REMARK  3 active torsions:
REMARK  status: ('A' for Active; 'I' for Inactive)
REMARK    1  A    between atoms: C_1  and  C_2
REMARK    2  A    between atoms: C_3  and  C_4
REMARK    3  A    between atoms: N_18  and  C_19
REMARK                            x       y       z     vdW  Elec       q    Type
REMARK                         _______ _______ _______ _____ _____    ______ ____
ROOT
ATOM      1  C   UNL     1       1.369   8.509  20.981  0.00  0.00    +0.000 C 
ATOM      2  C   UNL     1       1.475   8.681  19.508  0.00  0.00    +0.000 A 
ATOM      3  C   UNL     1       0.993   9.705  18.692  0.00  0.00    +0.000 A 
ATOM      4  N   UNL     1       1.624   9.628  17.480  0.00  0.00    +0.000 NA
ATOM      5  N   UNL     1       2.387   8.553  17.468  0.00  0.00    +0.000 NA
ATOM      6  N   UNL     1       2.257   7.912  18.656  0.00  0.00    +0.000 N 
ENDROOT
BRANCH   3   7
ATOM      7  C   UNL     1       0.069  10.788  19.070  0.00  0.00    +0.000 C 
ATOM      8  O   UNL     1      -1.130  10.522  19.147  0.00  0.00    +0.000 OA
ATOM      9  N   UNL     1       0.593  12.096  19.263  0.00  0.00    +0.000 N 
ATOM     10  C   UNL     1       2.004  12.426  18.999  0.00  0.00    +0.000 C 
ATOM     11  C   UNL     1       2.169  13.714  18.220  0.00  0.00    +0.000 C 
ATOM     12  C   UNL     1       1.592  14.866  19.009  0.00  0.00    +0.000 C 
ATOM     13  C   UNL     1       0.239  14.534  19.579  0.00  0.00    +0.000 A 
ATOM     14  C   UNL     1      -0.553  15.618  20.007  0.00  0.00    +0.000 A 
ATOM     15  C   UNL     1      -1.810  15.408  20.557  0.00  0.00    +0.000 A 
ATOM     16  C   UNL     1      -2.280  14.112  20.702  0.00  0.00    +0.000 A 
ATOM     17  C   UNL     1      -1.496  13.027  20.289  0.00  0.00    +0.000 A 
ATOM     18  C   UNL     1      -0.229  13.206  19.710  0.00  0.00    +0.000 A 
ENDBRANCH   3   7
BRANCH   6  19
ATOM     19  C   UNL     1       2.920   6.672  18.854  0.00  0.00    +0.000 A 
ATOM     20  C   UNL     1       4.209   6.509  18.322  0.00  0.00    +0.000 A 
ATOM     21  C   UNL     1       4.927   5.335  18.558  0.00  0.00    +0.000 A 
ATOM     22  C   UNL     1       4.348   4.302  19.285  0.00  0.00    +0.000 A 
ATOM     23  C   UNL     1       3.047   4.438  19.777  0.00  0.00    +0.000 A 
ATOM     24  C   UNL     1       2.323   5.610  19.543  0.00  0.00    +0.000 A 
ATOM     25  O   UNL     1       2.409   3.456  20.489  0.00  0.00    +0.000 OA
ATOM     26  C   UNL     1       3.339   2.494  20.999  0.00  0.00    +0.000 C 
ATOM     27  C   UNL     1       4.330   2.076  19.925  0.00  0.00    +0.000 C 
ATOM     28  O   UNL     1       5.120   3.186  19.488  0.00  0.00    +0.000 OA
ENDBRANCH   6  19
TORSDOF 2
ENDMDL
MODEL 7
REMARK VINA RESULT:      -7.9      3.281      8.860
REMARK  Name = 
REMARK  3 active torsions:
REMARK  status: ('A' for Active; 'I' for Inactive)
REMARK    1  A    between atoms: C_1  and  C_2
REMARK    2  A    between atoms: C_3  and  C_4
REMARK    3  A    between atoms: N_18  and  C_19
REMARK                            x       y       z     vdW  Elec       q    Type
REMARK                         _______ _______ _______ _____ _____    ______ ____
ROOT
ATOM      1  C   UNL     1       0.287   9.709  18.160  0.00  0.00    +0.000 C 
ATOM      2  C   UNL     1       0.735   9.899  19.565  0.00  0.00    +0.000 A 
ATOM      3  C   UNL     1       0.553  10.987  20.420  0.00  0.00    +0.000 A 
ATOM      4  N   UNL     1       0.815  10.581  21.700  0.00  0.00    +0.000 NA
ATOM      5  N   UNL     1       1.250   9.336  21.669  0.00  0.00    +0.000 NA
ATOM      6  N   UNL     1       1.289   8.921  20.379  0.00  0.00    +0.000 N 
ENDROOT
BRANCH   3   7
ATOM      7  C   UNL     1       0.035  12.321  20.071  0.00  0.00    +0.000 C 
ATOM      8  O   UNL     1      -1.185  12.484  20.070  0.00  0.00    +0.000 OA
ATOM      9  N   UNL     1       0.958  13.333  19.690  0.00  0.00    +0.000 N 
ATOM     10  C   UNL     1       2.399  13.067  19.533  0.00  0.00    +0.000 C 
ATOM     11  C   UNL     1       2.972  13.669  18.268  0.00  0.00    +0.000 C 
ATOM     12  C   UNL     1       2.806  15.170  18.295  0.00  0.00    +0.000 C 
ATOM     13  C   UNL     1       1.422  15.574  18.725  0.00  0.00    +0.000 A 
ATOM     14  C   UNL     1       1.029  16.897  18.440  0.00  0.00    +0.000 A 
ATOM     15  C   UNL     1      -0.225  17.364  18.810  0.00  0.00    +0.000 A 
ATOM     16  C   UNL     1      -1.092  16.518  19.484  0.00  0.00    +0.000 A 
ATOM     17  C   UNL     1      -0.707  15.204  19.782  0.00  0.00    +0.000 A 
ATOM     18  C   UNL     1       0.546  14.695  19.404  0.00  0.00    +0.000 A 
ENDBRANCH   3   7
BRANCH   6  19
ATOM     19  C   UNL     1       1.808   7.633  20.078  0.00  0.00    +0.000 A 
ATOM     20  C   UNL     1       1.462   6.560  20.913  0.00  0.00    +0.000 A 
ATOM     21  C   UNL     1       1.888   5.264  20.611  0.00  0.00    +0.000 A 
ATOM     22  C   UNL     1       2.696   5.040  19.504  0.00  0.00    +0.000 A 
ATOM     23  C   UNL     1       3.084   6.111  18.695  0.00  0.00    +0.000 A 
ATOM     24  C   UNL     1       2.662   7.410  18.993  0.00  0.00    +0.000 A 
ATOM     25  O   UNL     1       3.891   5.966  17.596  0.00  0.00    +0.000 OA
ATOM     26  C   UNL     1       3.939   4.603  17.161  0.00  0.00    +0.000 C 
ATOM     27  C   UNL     1       4.151   3.665  18.338  0.00  0.00    +0.000 C 
ATOM     28  O   UNL     1       3.062   3.739  19.263  0.00  0.00    +0.000 OA
ENDBRANCH   6  19
TORSDOF 2
ENDMDL
MODEL 8
REMARK VINA RESULT:      -7.8      2.410      9.068
REMARK  Name = 
REMARK  3 active torsions:
REMARK  status: ('A' for Active; 'I' for Inactive)
REMARK    1  A    between atoms: C_1  and  C_2
REMARK    2  A    between atoms: C_3  and  C_4
REMARK    3  A    between atoms: N_18  and  C_19
REMARK                            x       y       z     vdW  Elec       q    Type
REMARK                         _______ _______ _______ _____ _____    ______ ____
ROOT
ATOM      1  C   UNL     1       0.649   8.158  21.066  0.00  0.00    +0.000 C 
ATOM      2  C   UNL     1       0.971   8.810  19.769  0.00  0.00    +0.000 A 
ATOM      3  C   UNL     1       0.559  10.044  19.264  0.00  0.00    +0.000 A 
ATOM      4  N   UNL     1       1.372  10.378  18.216  0.00  0.00    +0.000 NA
ATOM      5  N   UNL     1       2.193   9.372  17.980  0.00  0.00    +0.000 NA
ATOM      6  N   UNL     1       1.919   8.372  18.854  0.00  0.00    +0.000 N 
ENDROOT
BRANCH   3   7
ATOM      7  C   UNL     1      -0.476  10.935  19.816  0.00  0.00    +0.000 C 
ATOM      8  O   UNL     1      -0.269  11.446  20.917  0.00  0.00    +0.000 OA
ATOM      9  N   UNL     1      -1.685  11.110  19.089  0.00  0.00    +0.000 N 
ATOM     10  C   UNL     1      -1.981  10.355  17.859  0.00  0.00    +0.000 C 
ATOM     11  C   UNL     1      -3.388   9.798  17.837  0.00  0.00    +0.000 C 
ATOM     12  C   UNL     1      -4.387  10.929  17.905  0.00  0.00    +0.000 C 
ATOM     13  C   UNL     1      -4.024  11.935  18.964  0.00  0.00    +0.000 A 
ATOM     14  C   UNL     1      -5.042  12.818  19.378  0.00  0.00    +0.000 A 
ATOM     15  C   UNL     1      -4.798  13.787  20.340  0.00  0.00    +0.000 A 
ATOM     16  C   UNL     1      -3.529  13.896  20.887  0.00  0.00    +0.000 A 
ATOM     17  C   UNL     1      -2.506  13.031  20.475  0.00  0.00    +0.000 A 
ATOM     18  C   UNL     1      -2.726  12.025  19.519  0.00  0.00    +0.000 A 
ENDBRANCH   3   7
BRANCH   6  19
ATOM     19  C   UNL     1       2.618   7.141  18.744  0.00  0.00    +0.000 A 
ATOM     20  C   UNL     1       3.700   7.062  17.852  0.00  0.00    +0.000 A 
ATOM     21  C   UNL     1       4.462   5.895  17.768  0.00  0.00    +0.000 A 
ATOM     22  C   UNL     1       4.122   4.788  18.536  0.00  0.00    +0.000 A 
ATOM     23  C   UNL     1       3.018   4.843  19.390  0.00  0.00    +0.000 A 
ATOM     24  C   UNL     1       2.251   6.008  19.478  0.00  0.00    +0.000 A 
ATOM     25  O   UNL     1       2.617   3.786  20.165  0.00  0.00    +0.000 OA
ATOM     26  C   UNL     1       3.659   2.814  20.300  0.00  0.00    +0.000 C 
ATOM     27  C   UNL     1       4.301   2.517  18.955  0.00  0.00    +0.000 C 
ATOM     28  O   UNL     1       4.926   3.683  18.410  0.00  0.00    +0.000 OA
ENDBRANCH   6  19
TORSDOF 2
ENDMDL
MODEL 9
REMARK VINA RESULT:      -7.7      1.568      2.310
REMARK  Name = 
REMARK  3 active torsions:
REMARK  status: ('A' for Active; 'I' for Inactive)
REMARK    1  A    between atoms: C_1  and  C_2
REMARK    2  A    between atoms: C_3  and  C_4
REMARK    3  A    between atoms: N_18  and  C_19
REMARK                            x       y       z     vdW  Elec       q    Type
REMARK                         _______ _______ _______ _____ _____    ______ ____
ROOT
ATOM      1  C   UNL     1       0.022  10.135  18.688  0.00  0.00    +0.000 C 
ATOM      2  C   UNL     1       0.515   9.589  19.979  0.00  0.00    +0.000 A 
ATOM      3  C   UNL     1       1.508   8.640  20.226  0.00  0.00    +0.000 A 
ATOM      4  N   UNL     1       1.861   8.714  21.546  0.00  0.00    +0.000 NA
ATOM      5  N   UNL     1       1.068   9.579  22.148  0.00  0.00    +0.000 NA
ATOM      6  N   UNL     1       0.187  10.067  21.240  0.00  0.00    +0.000 N 
ENDROOT
BRANCH   3   7
ATOM      7  C   UNL     1       2.189   7.782  19.240  0.00  0.00    +0.000 C 
ATOM      8  O   UNL     1       2.577   8.302  18.195  0.00  0.00    +0.000 OA
ATOM      9  N   UNL     1       2.306   6.391  19.511  0.00  0.00    +0.000 N 
ATOM     10  C   UNL     1       1.683   5.763  20.690  0.00  0.00    +0.000 C 
ATOM     11  C   UNL     1       0.966   4.473  20.355  0.00  0.00    +0.000 C 
ATOM     12  C   UNL     1       1.949   3.471  19.796  0.00  0.00    +0.000 C 
ATOM     13  C   UNL     1       2.849   4.088  18.759  0.00  0.00    +0.000 A 
ATOM     14  C   UNL     1       3.541   3.200  17.911  0.00  0.00    +0.000 A 
ATOM     15  C   UNL     1       4.403   3.677  16.932  0.00  0.00    +0.000 A 
ATOM     16  C   UNL     1       4.595   5.043  16.803  0.00  0.00    +0.000 A 
ATOM     17  C   UNL     1       3.920   5.933  17.649  0.00  0.00    +0.000 A 
ATOM     18  C   UNL     1       3.026   5.486  18.635  0.00  0.00    +0.000 A 
ENDBRANCH   3   7
BRANCH   6  19
ATOM     19  C   UNL     1      -0.832  10.959  21.670  0.00  0.00    +0.000 A 
ATOM     20  C   UNL     1      -1.262  10.891  23.005  0.00  0.00    +0.000 A 
ATOM     21  C   UNL     1      -2.207  11.799  23.490  0.00  0.00    +0.000 A 
ATOM     22  C   UNL     1      -2.758  12.747  22.637  0.00  0.00    +0.000 A 
ATOM     23  C   UNL     1      -2.370  12.790  21.295  0.00  0.00    +0.000 A 
ATOM     24  C   UNL     1      -1.427  11.883  20.804  0.00  0.00    +0.000 A 
ATOM     25  O   UNL     1      -2.883  13.687  20.395  0.00  0.00    +0.000 OA
ATOM     26  C   UNL     1      -3.516  14.786  21.059  0.00  0.00    +0.000 C 
ATOM     27  C   UNL     1      -4.418  14.296  22.179  0.00  0.00    +0.000 C 
ATOM     28  O   UNL     1      -3.668  13.614  23.188  0.00  0.00    +0.000 OA
ENDBRANCH   6  19
TORSDOF 2
ENDMDL
