MODEL 1
REMARK VINA RESULT:      -8.6      0.000      0.000
REMARK  Name = 
REMARK  5 active torsions:
REMARK  status: ('A' for Active; 'I' for Inactive)
REMARK    1  A    between atoms: C_2  and  C_12
REMARK    2  A    between atoms: N_3  and  C_4
REMARK    3  A    between atoms: C_4  and  C_5
REMARK    4  A    between atoms: C_8  and  O_9
REMARK    5  A    between atoms: C_14  and  C_15
REMARK                            x       y       z     vdW  Elec       q    Type
REMARK                         _______ _______ _______ _____ _____    ______ ____
ROOT
ATOM      1  C   UNL     1       2.578   6.228  18.971  0.00  0.00    +0.000 A 
ATOM      2  C   UNL     1       3.618   6.338  18.036  0.00  0.00    +0.000 A 
ATOM      3  C   UNL     1       4.175   5.197  17.477  0.00  0.00    +0.000 A 
ATOM      4  N   UNL     1       3.752   3.967  17.832  0.00  0.00    +0.000 NA
ATOM      5  C   UNL     1       2.759   3.834  18.725  0.00  0.00    +0.000 A 
ATOM      6  C   UNL     1       2.384   2.536  19.056  0.00  0.00    +0.000 A 
ATOM      7  C   UNL     1       1.371   2.264  19.976  0.00  0.00    +0.000 A 
ATOM      8  C   UNL     1       0.704   3.315  20.575  0.00  0.00    +0.000 A 
ATOM      9  C   UNL     1       1.061   4.624  20.254  0.00  0.00    +0.000 A 
ATOM     10  C   UNL     1       2.106   4.928  19.333  0.00  0.00    +0.000 A 
ENDROOT
BRANCH   3  11
ATOM     11  C   UNL     1       5.286   5.244  16.500  0.00  0.00    +0.000 A 
ATOM     12  C   UNL     1       5.265   4.444  15.349  0.00  0.00    +0.000 A 
ATOM     13  C   UNL     1       6.331   4.487  14.463  0.00  0.00    +0.000 A 
ATOM     14  N   UNL     1       7.419   5.267  14.636  0.00  0.00    +0.000 NA
ATOM     15  C   UNL     1       7.427   6.047  15.734  0.00  0.00    +0.000 A 
ATOM     16  C   UNL     1       6.405   6.074  16.675  0.00  0.00    +0.000 A 
ENDBRANCH   3  11
BRANCH   1  18
ATOM     17  O   UNL     1       1.874   7.548  20.840  0.00  0.00    +0.000 OA
ATOM     18  C   UNL     1       2.033   7.476  19.625  0.00  0.00    +0.000 C 
ATOM     19  N   UNL     1       1.740   8.568  18.828  0.00  0.00    +0.000 N 
ATOM     20  H   UNL     1       1.709   8.517  17.825  0.00  0.00    +0.000 HD
BRANCH  19  21
ATOM     21  C   UNL     1       1.272   9.807  19.412  0.00  0.00    +0.000 C 
BRANCH  21  22
ATOM     22  C   UNL     1       0.058  10.335  18.696  0.00  0.00    +0.000 A 
ATOM     23  C   UNL     1      -0.598   9.547  17.738  0.00  0.00    +0.000 A 
ATOM     24  C   UNL     1      -1.743  10.017  17.092  0.00  0.00    +0.000 A 
ATOM     25  C   UNL     1      -2.226  11.285  17.400  0.00  0.00    +0.000 A 
ATOM     26  C   UNL     1      -1.575  12.090  18.326  0.00  0.00    +0.000 A 
ATOM     27  C   UNL     1      -0.431  11.620  18.971  0.00  0.00    +0.000 A 
BRANCH  25  28
ATOM     28  O   UNL     1      -3.352  11.778  16.809  0.00  0.00    +0.000 OA
ATOM     29  H   UNL     1      -4.060  11.806  17.473  0.00  0.00    +0.000 HD
ENDBRANCH  25  28
ENDBRANCH  21  22
ENDBRANCH  19  21
ENDBRANCH   1  18
TORSDOF 5
ENDMDL
MODEL 2
REMARK VINA RESULT:      -8.6      0.151      1.303
REMARK  Name = 
REMARK  5 active torsions:
REMARK  status: ('A' for Active; 'I' for Inactive)
REMARK    1  A    between atoms: C_2  and  C_12
REMARK    2  A    between atoms: N_3  and  C_4
REMARK    3  A    between atoms: C_4  and  C_5
REMARK    4  A    between atoms: C_8  and  O_9
REMARK    5  A    between atoms: C_14  and  C_15
REMARK                            x       y       z     vdW  Elec       q    Type
REMARK                         _______ _______ _______ _____ _____    ______ ____
ROOT
ATOM      1  C   UNL     1       2.636   6.251  18.840  0.00  0.00    +0.000 A 
ATOM      2  C   UNL     1       3.674   6.319  17.899  0.00  0.00    +0.000 A 
ATOM      3  C   UNL     1       4.191   5.155  17.348  0.00  0.00    +0.000 A 
ATOM      4  N   UNL     1       3.729   3.943  17.717  0.00  0.00    +0.000 NA
ATOM      5  C   UNL     1       2.737   3.850  18.615  0.00  0.00    +0.000 A 
ATOM      6  C   UNL     1       2.321   2.569  18.960  0.00  0.00    +0.000 A 
ATOM      7  C   UNL     1       1.305   2.339  19.887  0.00  0.00    +0.000 A 
ATOM      8  C   UNL     1       0.675   3.416  20.480  0.00  0.00    +0.000 A 
ATOM      9  C   UNL     1       1.073   4.710  20.145  0.00  0.00    +0.000 A 
ATOM     10  C   UNL     1       2.123   4.971  19.217  0.00  0.00    +0.000 A 
ENDROOT
BRANCH   3  11
ATOM     11  C   UNL     1       5.298   5.156  16.366  0.00  0.00    +0.000 A 
ATOM     12  C   UNL     1       6.446   5.932  16.577  0.00  0.00    +0.000 A 
ATOM     13  C   UNL     1       7.457   5.935  15.628  0.00  0.00    +0.000 A 
ATOM     14  N   UNL     1       7.412   5.223  14.482  0.00  0.00    +0.000 NA
ATOM     15  C   UNL     1       6.315   4.466  14.291  0.00  0.00    +0.000 A 
ATOM     16  C   UNL     1       5.254   4.397  15.186  0.00  0.00    +0.000 A 
ENDBRANCH   3  11
BRANCH   1  18
ATOM     17  O   UNL     1       2.091   7.650  20.705  0.00  0.00    +0.000 OA
ATOM     18  C   UNL     1       2.136   7.523  19.485  0.00  0.00    +0.000 C 
ATOM     19  N   UNL     1       1.750   8.572  18.670  0.00  0.00    +0.000 N 
ATOM     20  H   UNL     1       1.625   8.473  17.679  0.00  0.00    +0.000 HD
BRANCH  19  21
ATOM     21  C   UNL     1       1.319   9.832  19.239  0.00  0.00    +0.000 C 
BRANCH  21  22
ATOM     22  C   UNL     1       0.066  10.340  18.579  0.00  0.00    +0.000 A 
ATOM     23  C   UNL     1      -0.383  11.647  18.822  0.00  0.00    +0.000 A 
ATOM     24  C   UNL     1      -1.527  12.137  18.190  0.00  0.00    +0.000 A 
ATOM     25  C   UNL     1      -2.229  11.311  17.318  0.00  0.00    +0.000 A 
ATOM     26  C   UNL     1      -1.816  10.005  17.086  0.00  0.00    +0.000 A 
ATOM     27  C   UNL     1      -0.673   9.516  17.719  0.00  0.00    +0.000 A 
BRANCH  25  28
ATOM     28  O   UNL     1      -3.341  11.752  16.663  0.00  0.00    +0.000 OA
ATOM     29  H   UNL     1      -3.834  10.979  16.341  0.00  0.00    +0.000 HD
ENDBRANCH  25  28
ENDBRANCH  21  22
ENDBRANCH  19  21
ENDBRANCH   1  18
TORSDOF 5
ENDMDL
MODEL 3
REMARK VINA RESULT:      -8.0      3.205      9.089
REMARK  Name = 
REMARK  5 active torsions:
REMARK  status: ('A' for Active; 'I' for Inactive)
REMARK    1  A    between atoms: C_2  and  C_12
REMARK    2  A    between atoms: N_3  and  C_4
REMARK    3  A    between atoms: C_4  and  C_5
REMARK    4  A    between atoms: C_8  and  O_9
REMARK    5  A    between atoms: C_14  and  C_15
REMARK                            x       y       z     vdW  Elec       q    Type
REMARK                         _______ _______ _______ _____ _____    ______ ____
ROOT
ATOM      1  C   UNL     1       0.075  10.453  18.946  0.00  0.00    +0.000 A 
ATOM      2  C   UNL     1       0.261  11.335  20.021  0.00  0.00    +0.000 A 
ATOM      3  C   UNL     1      -0.739  12.232  20.366  0.00  0.00    +0.000 A 
ATOM      4  N   UNL     1      -1.892  12.294  19.669  0.00  0.00    +0.000 NA
ATOM      5  C   UNL     1      -2.096  11.463  18.637  0.00  0.00    +0.000 A 
ATOM      6  C   UNL     1      -3.301  11.593  17.954  0.00  0.00    +0.000 A 
ATOM      7  C   UNL     1      -3.628  10.793  16.859  0.00  0.00    +0.000 A 
ATOM      8  C   UNL     1      -2.735   9.827  16.438  0.00  0.00    +0.000 A 
ATOM      9  C   UNL     1      -1.522   9.677  17.111  0.00  0.00    +0.000 A 
ATOM     10  C   UNL     1      -1.156  10.496  18.219  0.00  0.00    +0.000 A 
ENDROOT
BRANCH   3  11
ATOM     11  C   UNL     1      -0.599  13.201  21.476  0.00  0.00    +0.000 A 
ATOM     12  C   UNL     1      -1.378  13.084  22.635  0.00  0.00    +0.000 A 
ATOM     13  C   UNL     1      -1.245  14.020  23.650  0.00  0.00    +0.000 A 
ATOM     14  N   UNL     1      -0.395  15.067  23.597  0.00  0.00    +0.000 NA
ATOM     15  C   UNL     1       0.364  15.166  22.489  0.00  0.00    +0.000 A 
ATOM     16  C   UNL     1       0.303  14.276  21.424  0.00  0.00    +0.000 A 
ENDBRANCH   3  11
BRANCH   1  18
ATOM     17  O   UNL     1       1.879   9.754  17.537  0.00  0.00    +0.000 OA
ATOM     18  C   UNL     1       1.202   9.534  18.537  0.00  0.00    +0.000 C 
ATOM     19  N   UNL     1       1.487   8.440  19.333  0.00  0.00    +0.000 N 
ATOM     20  H   UNL     1       0.879   8.131  20.070  0.00  0.00    +0.000 HD
BRANCH  19  21
ATOM     21  C   UNL     1       2.594   7.562  19.017  0.00  0.00    +0.000 C 
BRANCH  21  22
ATOM     22  C   UNL     1       2.196   6.113  19.099  0.00  0.00    +0.000 A 
ATOM     23  C   UNL     1       2.173   5.318  17.942  0.00  0.00    +0.000 A 
ATOM     24  C   UNL     1       1.834   3.965  18.014  0.00  0.00    +0.000 A 
ATOM     25  C   UNL     1       1.509   3.410  19.247  0.00  0.00    +0.000 A 
ATOM     26  C   UNL     1       1.500   4.187  20.399  0.00  0.00    +0.000 A 
ATOM     27  C   UNL     1       1.838   5.539  20.326  0.00  0.00    +0.000 A 
BRANCH  25  28
ATOM     28  O   UNL     1       1.192   2.089  19.370  0.00  0.00    +0.000 OA
ATOM     29  H   UNL     1       1.845   1.570  18.873  0.00  0.00    +0.000 HD
ENDBRANCH  25  28
ENDBRANCH  21  22
ENDBRANCH  19  21
ENDBRANCH   1  18
TORSDOF 5
ENDMDL
MODEL 4
REMARK VINA RESULT:      -8.0      3.337      8.408
REMARK  Name = 
REMARK  5 active torsions:
REMARK  status: ('A' for Active; 'I' for Inactive)
REMARK    1  A    between atoms: C_2  and  C_12
REMARK    2  A    between atoms: N_3  and  C_4
REMARK    3  A    between atoms: C_4  and  C_5
REMARK    4  A    between atoms: C_8  and  O_9
REMARK    5  A    between atoms: C_14  and  C_15
REMARK                            x       y       z     vdW  Elec       q    Type
REMARK                         _______ _______ _______ _____ _____    ______ ____
ROOT
ATOM      1  C   UNL     1       1.117  10.477  19.328  0.00  0.00    +0.000 A 
ATOM      2  C   UNL     1       1.298  11.774  18.825  0.00  0.00    +0.000 A 
ATOM      3  C   UNL     1       0.868  12.871  19.558  0.00  0.00    +0.000 A 
ATOM      4  N   UNL     1       0.251  12.717  20.747  0.00  0.00    +0.000 NA
ATOM      5  C   UNL     1       0.065  11.488  21.250  0.00  0.00    +0.000 A 
ATOM      6  C   UNL     1      -0.592  11.403  22.474  0.00  0.00    +0.000 A 
ATOM      7  C   UNL     1      -0.853  10.184  23.098  0.00  0.00    +0.000 A 
ATOM      8  C   UNL     1      -0.438   9.013  22.492  0.00  0.00    +0.000 A 
ATOM      9  C   UNL     1       0.226   9.075  21.267  0.00  0.00    +0.000 A 
ATOM     10  C   UNL     1       0.486  10.308  20.600  0.00  0.00    +0.000 A 
ENDROOT
BRANCH   3  11
ATOM     11  C   UNL     1       1.013  14.263  19.077  0.00  0.00    +0.000 A 
ATOM     12  C   UNL     1       2.264  14.765  18.694  0.00  0.00    +0.000 A 
ATOM     13  C   UNL     1       2.376  16.081  18.272  0.00  0.00    +0.000 A 
ATOM     14  N   UNL     1       1.335  16.938  18.202  0.00  0.00    +0.000 NA
ATOM     15  C   UNL     1       0.132  16.446  18.554  0.00  0.00    +0.000 A 
ATOM     16  C   UNL     1      -0.078  15.142  18.986  0.00  0.00    +0.000 A 
ENDBRANCH   3  11
BRANCH   1  18
ATOM     17  O   UNL     1       1.148   9.172  17.320  0.00  0.00    +0.000 OA
ATOM     18  C   UNL     1       1.522   9.291  18.483  0.00  0.00    +0.000 C 
ATOM     19  N   UNL     1       2.360   8.339  19.037  0.00  0.00    +0.000 N 
ATOM     20  H   UNL     1       2.573   8.307  20.018  0.00  0.00    +0.000 HD
BRANCH  19  21
ATOM     21  C   UNL     1       2.825   7.215  18.251  0.00  0.00    +0.000 C 
BRANCH  21  22
ATOM     22  C   UNL     1       2.247   5.916  18.745  0.00  0.00    +0.000 A 
ATOM     23  C   UNL     1       1.972   5.735  20.109  0.00  0.00    +0.000 A 
ATOM     24  C   UNL     1       1.408   4.545  20.571  0.00  0.00    +0.000 A 
ATOM     25  C   UNL     1       1.126   3.529  19.664  0.00  0.00    +0.000 A 
ATOM     26  C   UNL     1       1.416   3.678  18.313  0.00  0.00    +0.000 A 
ATOM     27  C   UNL     1       1.981   4.868  17.853  0.00  0.00    +0.000 A 
BRANCH  25  28
ATOM     28  O   UNL     1       0.556   2.356  20.066  0.00  0.00    +0.000 OA
ATOM     29  H   UNL     1       1.233   1.826  20.518  0.00  0.00    +0.000 HD
ENDBRANCH  25  28
ENDBRANCH  21  22
ENDBRANCH  19  21
ENDBRANCH   1  18
TORSDOF 5
ENDMDL
MODEL 5
REMARK VINA RESULT:      -7.9      3.144      7.546
REMARK  Name = 
REMARK  5 active torsions:
REMARK  status: ('A' for Active; 'I' for Inactive)
REMARK    1  A    between atoms: C_2  and  C_12
REMARK    2  A    between atoms: N_3  and  C_4
REMARK    3  A    between atoms: C_4  and  C_5
REMARK    4  A    between atoms: C_8  and  O_9
REMARK    5  A    between atoms: C_14  and  C_15
REMARK                            x       y       z     vdW  Elec       q    Type
REMARK                         _______ _______ _______ _____ _____    ______ ____
ROOT
ATOM      1  C   UNL     1       3.947   5.471  18.996  0.00  0.00    +0.000 A 
ATOM      2  C   UNL     1       3.452   6.743  19.323  0.00  0.00    +0.000 A 
ATOM      3  C   UNL     1       2.192   6.876  19.887  0.00  0.00    +0.000 A 
ATOM      4  N   UNL     1       1.411   5.800  20.110  0.00  0.00    +0.000 NA
ATOM      5  C   UNL     1       1.859   4.572  19.807  0.00  0.00    +0.000 A 
ATOM      6  C   UNL     1       0.994   3.510  20.050  0.00  0.00    +0.000 A 
ATOM      7  C   UNL     1       1.339   2.188  19.770  0.00  0.00    +0.000 A 
ATOM      8  C   UNL     1       2.587   1.913  19.244  0.00  0.00    +0.000 A 
ATOM      9  C   UNL     1       3.472   2.963  18.997  0.00  0.00    +0.000 A 
ATOM     10  C   UNL     1       3.134   4.324  19.254  0.00  0.00    +0.000 A 
ENDROOT
BRANCH   3  11
ATOM     11  C   UNL     1       1.605   8.188  20.237  0.00  0.00    +0.000 A 
ATOM     12  C   UNL     1       1.375   9.158  19.252  0.00  0.00    +0.000 A 
ATOM     13  C   UNL     1       0.847  10.390  19.612  0.00  0.00    +0.000 A 
ATOM     14  N   UNL     1       0.532  10.730  20.879  0.00  0.00    +0.000 NA
ATOM     15  C   UNL     1       0.738   9.788  21.820  0.00  0.00    +0.000 A 
ATOM     16  C   UNL     1       1.259   8.527  21.555  0.00  0.00    +0.000 A 
ENDBRANCH   3  11
BRANCH   1  18
ATOM     17  O   UNL     1       6.210   4.710  18.815  0.00  0.00    +0.000 OA
ATOM     18  C   UNL     1       5.290   5.351  18.315  0.00  0.00    +0.000 C 
ATOM     19  N   UNL     1       5.465   5.956  17.083  0.00  0.00    +0.000 N 
ATOM     20  H   UNL     1       4.806   6.610  16.701  0.00  0.00    +0.000 HD
BRANCH  19  21
ATOM     21  C   UNL     1       6.713   5.822  16.362  0.00  0.00    +0.000 C 
BRANCH  21  22
ATOM     22  C   UNL     1       6.532   5.065  15.074  0.00  0.00    +0.000 A 
ATOM     23  C   UNL     1       7.491   5.162  14.053  0.00  0.00    +0.000 A 
ATOM     24  C   UNL     1       7.346   4.439  12.868  0.00  0.00    +0.000 A 
ATOM     25  C   UNL     1       6.232   3.623  12.701  0.00  0.00    +0.000 A 
ATOM     26  C   UNL     1       5.258   3.534  13.688  0.00  0.00    +0.000 A 
ATOM     27  C   UNL     1       5.403   4.258  14.872  0.00  0.00    +0.000 A 
BRANCH  25  28
ATOM     28  O   UNL     1       6.057   2.883  11.568  0.00  0.00    +0.000 OA
ATOM     29  H   UNL     1       6.516   2.034  11.683  0.00  0.00    +0.000 HD
ENDBRANCH  25  28
ENDBRANCH  21  22
ENDBRANCH  19  21
ENDBRANCH   1  18
TORSDOF 5
ENDMDL
MODEL 6
REMARK VINA RESULT:      -7.9      3.197      8.805
REMARK  Name = 
REMARK  5 active torsions:
REMARK  status: ('A' for Active; 'I' for Inactive)
REMARK    1  A    between atoms: C_2  and  C_12
REMARK    2  A    between atoms: N_3  and  C_4
REMARK    3  A    between atoms: C_4  and  C_5
REMARK    4  A    between atoms: C_8  and  O_9
REMARK    5  A    between atoms: C_14  and  C_15
REMARK                            x       y       z     vdW  Elec       q    Type
REMARK                         _______ _______ _______ _____ _____    ______ ____
ROOT
ATOM      1  C   UNL     1       0.580  10.450  18.906  0.00  0.00    +0.000 A 
ATOM      2  C   UNL     1       1.020  11.448  19.788  0.00  0.00    +0.000 A 
ATOM      3  C   UNL     1       0.168  12.480  20.152  0.00  0.00    +0.000 A 
ATOM      4  N   UNL     1      -1.083  12.561  19.654  0.00  0.00    +0.000 NA
ATOM      5  C   UNL     1      -1.529  11.619  18.809  0.00  0.00    +0.000 A 
ATOM      6  C   UNL     1      -2.823  11.774  18.323  0.00  0.00    +0.000 A 
ATOM      7  C   UNL     1      -3.398  10.868  17.432  0.00  0.00    +0.000 A 
ATOM      8  C   UNL     1      -2.669   9.769  17.022  0.00  0.00    +0.000 A 
ATOM      9  C   UNL     1      -1.371   9.592  17.501  0.00  0.00    +0.000 A 
ATOM     10  C   UNL     1      -0.753  10.514  18.394  0.00  0.00    +0.000 A 
ENDROOT
BRANCH   3  11
ATOM     11  C   UNL     1       0.575  13.573  21.062  0.00  0.00    +0.000 A 
ATOM     12  C   UNL     1      -0.349  14.164  21.935  0.00  0.00    +0.000 A 
ATOM     13  C   UNL     1       0.053  15.205  22.759  0.00  0.00    +0.000 A 
ATOM     14  N   UNL     1       1.307  15.703  22.780  0.00  0.00    +0.000 NA
ATOM     15  C   UNL     1       2.196  15.121  21.953  0.00  0.00    +0.000 A 
ATOM     16  C   UNL     1       1.887  14.073  21.095  0.00  0.00    +0.000 A 
ENDBRANCH   3  11
BRANCH   1  18
ATOM     17  O   UNL     1       2.114   9.431  17.376  0.00  0.00    +0.000 OA
ATOM     18  C   UNL     1       1.545   9.375  18.462  0.00  0.00    +0.000 C 
ATOM     19  N   UNL     1       1.808   8.324  19.322  0.00  0.00    +0.000 N 
ATOM     20  H   UNL     1       1.266   8.150  20.149  0.00  0.00    +0.000 HD
BRANCH  19  21
ATOM     21  C   UNL     1       2.769   7.300  18.968  0.00  0.00    +0.000 C 
BRANCH  21  22
ATOM     22  C   UNL     1       2.163   5.924  19.031  0.00  0.00    +0.000 A 
ATOM     23  C   UNL     1       1.680   5.418  20.248  0.00  0.00    +0.000 A 
ATOM     24  C   UNL     1       1.089   4.155  20.310  0.00  0.00    +0.000 A 
ATOM     25  C   UNL     1       0.989   3.393  19.151  0.00  0.00    +0.000 A 
ATOM     26  C   UNL     1       1.486   3.865  17.942  0.00  0.00    +0.000 A 
ATOM     27  C   UNL     1       2.077   5.127  17.882  0.00  0.00    +0.000 A 
BRANCH  25  28
ATOM     28  O   UNL     1       0.401   2.162  19.158  0.00  0.00    +0.000 OA
ATOM     29  H   UNL     1      -0.140   2.086  19.961  0.00  0.00    +0.000 HD
ENDBRANCH  25  28
ENDBRANCH  21  22
ENDBRANCH  19  21
ENDBRANCH   1  18
TORSDOF 5
ENDMDL
MODEL 7
REMARK VINA RESULT:      -7.9      3.353      9.405
REMARK  Name = 
REMARK  5 active torsions:
REMARK  status: ('A' for Active; 'I' for Inactive)
REMARK    1  A    between atoms: C_2  and  C_12
REMARK    2  A    between atoms: N_3  and  C_4
REMARK    3  A    between atoms: C_4  and  C_5
REMARK    4  A    between atoms: C_8  and  O_9
REMARK    5  A    between atoms: C_14  and  C_15
REMARK                            x       y       z     vdW  Elec       q    Type
REMARK                         _______ _______ _______ _____ _____    ______ ____
ROOT
ATOM      1  C   UNL     1      -0.414  10.425  19.467  0.00  0.00    +0.000 A 
ATOM      2  C   UNL     1      -0.534  11.174  20.648  0.00  0.00    +0.000 A 
ATOM      3  C   UNL     1      -1.642  11.984  20.849  0.00  0.00    +0.000 A 
ATOM      4  N   UNL     1      -2.609  12.088  19.915  0.00  0.00    +0.000 NA
ATOM      5  C   UNL     1      -2.519  11.383  18.777  0.00  0.00    +0.000 A 
ATOM      6  C   UNL     1      -3.544  11.551  17.852  0.00  0.00    +0.000 A 
ATOM      7  C   UNL     1      -3.562  10.882  16.628  0.00  0.00    +0.000 A 
ATOM      8  C   UNL     1      -2.536  10.010  16.321  0.00  0.00    +0.000 A 
ATOM      9  C   UNL     1      -1.500   9.823  17.237  0.00  0.00    +0.000 A 
ATOM     10  C   UNL     1      -1.448  10.511  18.484  0.00  0.00    +0.000 A 
ENDROOT
BRANCH   3  11
ATOM     11  C   UNL     1      -1.820  12.812  22.062  0.00  0.00    +0.000 A 
ATOM     12  C   UNL     1      -3.015  12.769  22.793  0.00  0.00    +0.000 A 
ATOM     13  C   UNL     1      -3.166  13.576  23.911  0.00  0.00    +0.000 A 
ATOM     14  N   UNL     1      -2.216  14.424  24.358  0.00  0.00    +0.000 NA
ATOM     15  C   UNL     1      -1.062  14.449  23.663  0.00  0.00    +0.000 A 
ATOM     16  C   UNL     1      -0.819  13.677  22.534  0.00  0.00    +0.000 A 
ENDBRANCH   3  11
BRANCH   1  18
ATOM     17  O   UNL     1       1.659   9.923  18.380  0.00  0.00    +0.000 OA
ATOM     18  C   UNL     1       0.834   9.607  19.232  0.00  0.00    +0.000 C 
ATOM     19  N   UNL     1       1.056   8.494  20.023  0.00  0.00    +0.000 N 
ATOM     20  H   UNL     1       0.352   8.107  20.626  0.00  0.00    +0.000 HD
BRANCH  19  21
ATOM     21  C   UNL     1       2.265   7.711  19.877  0.00  0.00    +0.000 C 
BRANCH  21  22
ATOM     22  C   UNL     1       1.959   6.273  19.551  0.00  0.00    +0.000 A 
ATOM     23  C   UNL     1       2.156   5.784  18.250  0.00  0.00    +0.000 A 
ATOM     24  C   UNL     1       1.905   4.445  17.947  0.00  0.00    +0.000 A 
ATOM     25  C   UNL     1       1.446   3.595  18.949  0.00  0.00    +0.000 A 
ATOM     26  C   UNL     1       1.219   4.067  20.236  0.00  0.00    +0.000 A 
ATOM     27  C   UNL     1       1.470   5.406  20.538  0.00  0.00    +0.000 A 
BRANCH  25  28
ATOM     28  O   UNL     1       1.206   2.275  18.705  0.00  0.00    +0.000 OA
ATOM     29  H   UNL     1       0.611   1.939  19.396  0.00  0.00    +0.000 HD
ENDBRANCH  25  28
ENDBRANCH  21  22
ENDBRANCH  19  21
ENDBRANCH   1  18
TORSDOF 5
ENDMDL
MODEL 8
REMARK VINA RESULT:      -7.9      3.149      7.556
REMARK  Name = 
REMARK  5 active torsions:
REMARK  status: ('A' for Active; 'I' for Inactive)
REMARK    1  A    between atoms: C_2  and  C_12
REMARK    2  A    between atoms: N_3  and  C_4
REMARK    3  A    between atoms: C_4  and  C_5
REMARK    4  A    between atoms: C_8  and  O_9
REMARK    5  A    between atoms: C_14  and  C_15
REMARK                            x       y       z     vdW  Elec       q    Type
REMARK                         _______ _______ _______ _____ _____    ______ ____
ROOT
ATOM      1  C   UNL     1       3.942   5.482  19.056  0.00  0.00    +0.000 A 
ATOM      2  C   UNL     1       3.445   6.749  19.393  0.00  0.00    +0.000 A 
ATOM      3  C   UNL     1       2.180   6.876  19.948  0.00  0.00    +0.000 A 
ATOM      4  N   UNL     1       1.397   5.797  20.154  0.00  0.00    +0.000 NA
ATOM      5  C   UNL     1       1.848   4.574  19.840  0.00  0.00    +0.000 A 
ATOM      6  C   UNL     1       0.981   3.509  20.064  0.00  0.00    +0.000 A 
ATOM      7  C   UNL     1       1.328   2.190  19.772  0.00  0.00    +0.000 A 
ATOM      8  C   UNL     1       2.580   1.921  19.252  0.00  0.00    +0.000 A 
ATOM      9  C   UNL     1       3.467   2.973  19.024  0.00  0.00    +0.000 A 
ATOM     10  C   UNL     1       3.127   4.331  19.294  0.00  0.00    +0.000 A 
ENDROOT
BRANCH   3  11
ATOM     11  C   UNL     1       1.590   8.184  20.309  0.00  0.00    +0.000 A 
ATOM     12  C   UNL     1       1.270   8.486  21.640  0.00  0.00    +0.000 A 
ATOM     13  C   UNL     1       0.694   9.710  21.947  0.00  0.00    +0.000 A 
ATOM     14  N   UNL     1       0.411  10.657  21.028  0.00  0.00    +0.000 NA
ATOM     15  C   UNL     1       0.736  10.370  19.753  0.00  0.00    +0.000 A 
ATOM     16  C   UNL     1       1.318   9.174  19.351  0.00  0.00    +0.000 A 
ENDBRANCH   3  11
BRANCH   1  18
ATOM     17  O   UNL     1       6.208   4.727  18.885  0.00  0.00    +0.000 OA
ATOM     18  C   UNL     1       5.291   5.369  18.383  0.00  0.00    +0.000 C 
ATOM     19  N   UNL     1       5.473   5.984  17.157  0.00  0.00    +0.000 N 
ATOM     20  H   UNL     1       4.815   6.639  16.774  0.00  0.00    +0.000 HD
BRANCH  19  21
ATOM     21  C   UNL     1       6.726   5.856  16.444  0.00  0.00    +0.000 C 
BRANCH  21  22
ATOM     22  C   UNL     1       6.563   5.078  15.166  0.00  0.00    +0.000 A 
ATOM     23  C   UNL     1       5.470   4.213  14.999  0.00  0.00    +0.000 A 
ATOM     24  C   UNL     1       5.294   3.511  13.805  0.00  0.00    +0.000 A 
ATOM     25  C   UNL     1       6.220   3.669  12.780  0.00  0.00    +0.000 A 
ATOM     26  C   UNL     1       7.323   4.500  12.937  0.00  0.00    +0.000 A 
ATOM     27  C   UNL     1       7.498   5.200  14.130  0.00  0.00    +0.000 A 
BRANCH  25  28
ATOM     28  O   UNL     1       6.079   3.019  11.589  0.00  0.00    +0.000 OA
ATOM     29  H   UNL     1       6.140   2.063  11.752  0.00  0.00    +0.000 HD
ENDBRANCH  25  28
ENDBRANCH  21  22
ENDBRANCH  19  21
ENDBRANCH   1  18
TORSDOF 5
ENDMDL
MODEL 9
REMARK VINA RESULT:      -7.8      3.142      7.432
REMARK  Name = 
REMARK  5 active torsions:
REMARK  status: ('A' for Active; 'I' for Inactive)
REMARK    1  A    between atoms: C_2  and  C_12
REMARK    2  A    between atoms: N_3  and  C_4
REMARK    3  A    between atoms: C_4  and  C_5
REMARK    4  A    between atoms: C_8  and  O_9
REMARK    5  A    between atoms: C_14  and  C_15
REMARK                            x       y       z     vdW  Elec       q    Type
REMARK                         _______ _______ _______ _____ _____    ______ ____
ROOT
ATOM      1  C   UNL     1       4.049   5.571  19.199  0.00  0.00    +0.000 A 
ATOM      2  C   UNL     1       3.494   6.859  19.212  0.00  0.00    +0.000 A 
ATOM      3  C   UNL     1       2.245   7.073  19.775  0.00  0.00    +0.000 A 
ATOM      4  N   UNL     1       1.530   6.055  20.297  0.00  0.00    +0.000 NA
ATOM      5  C   UNL     1       2.037   4.813  20.296  0.00  0.00    +0.000 A 
ATOM      6  C   UNL     1       1.239   3.810  20.836  0.00  0.00    +0.000 A 
ATOM      7  C   UNL     1       1.649   2.477  20.888  0.00  0.00    +0.000 A 
ATOM      8  C   UNL     1       2.895   2.135  20.398  0.00  0.00    +0.000 A 
ATOM      9  C   UNL     1       3.713   3.126  19.856  0.00  0.00    +0.000 A 
ATOM     10  C   UNL     1       3.308   4.491  19.773  0.00  0.00    +0.000 A 
ENDROOT
BRANCH   3  11
ATOM     11  C   UNL     1       1.596   8.403  19.805  0.00  0.00    +0.000 A 
ATOM     12  C   UNL     1       1.522   9.192  18.649  0.00  0.00    +0.000 A 
ATOM     13  C   UNL     1       0.931  10.446  18.710  0.00  0.00    +0.000 A 
ATOM     14  N   UNL     1       0.408  10.974  19.837  0.00  0.00    +0.000 NA
ATOM     15  C   UNL     1       0.465  10.205  20.941  0.00  0.00    +0.000 A 
ATOM     16  C   UNL     1       1.034   8.938  20.975  0.00  0.00    +0.000 A 
ENDBRANCH   3  11
BRANCH   1  18
ATOM     17  O   UNL     1       6.206   4.557  18.967  0.00  0.00    +0.000 OA
ATOM     18  C   UNL     1       5.377   5.342  18.516  0.00  0.00    +0.000 C 
ATOM     19  N   UNL     1       5.641   6.018  17.337  0.00  0.00    +0.000 N 
ATOM     20  H   UNL     1       5.071   6.775  17.006  0.00  0.00    +0.000 HD
BRANCH  19  21
ATOM     21  C   UNL     1       6.873   5.789  16.613  0.00  0.00    +0.000 C 
BRANCH  21  22
ATOM     22  C   UNL     1       6.633   5.047  15.327  0.00  0.00    +0.000 A 
ATOM     23  C   UNL     1       5.536   4.178  15.204  0.00  0.00    +0.000 A 
ATOM     24  C   UNL     1       5.288   3.510  14.004  0.00  0.00    +0.000 A 
ATOM     25  C   UNL     1       6.146   3.704  12.927  0.00  0.00    +0.000 A 
ATOM     26  C   UNL     1       7.252   4.538  13.037  0.00  0.00    +0.000 A 
ATOM     27  C   UNL     1       7.499   5.206  14.237  0.00  0.00    +0.000 A 
BRANCH  25  28
ATOM     28  O   UNL     1       5.932   3.088  11.729  0.00  0.00    +0.000 OA
ATOM     29  H   UNL     1       6.741   3.164  11.196  0.00  0.00    +0.000 HD
ENDBRANCH  25  28
ENDBRANCH  21  22
ENDBRANCH  19  21
ENDBRANCH   1  18
TORSDOF 5
ENDMDL
