MODEL 1
REMARK VINA RESULT:      -8.8      0.000      0.000
REMARK  Name = 
REMARK  5 active torsions:
REMARK  status: ('A' for Active; 'I' for Inactive)
REMARK    1  A    between atoms: N_1  and  S_2
REMARK    2  A    between atoms: S_2  and  C_5
REMARK    3  A    between atoms: C_8  and  N_9
REMARK    4  A    between atoms: N_9  and  C_10
REMARK    5  A    between atoms: C_12  and  C_13
REMARK                            x       y       z     vdW  Elec       q    Type
REMARK                         _______ _______ _______ _____ _____    ______ ____
ROOT
ATOM      1  N   UNL     1       2.756   6.953  18.015  0.00  0.00    +0.000 N 
ATOM      2  H   UNL     1       2.111   6.645  17.294  0.00  0.00    +0.000 HD
ENDROOT
BRANCH   1   3
ATOM      3  C   UNL     1       3.711   5.925  18.267  0.00  0.00    +0.000 A 
ATOM      4  N   UNL     1       5.037   6.171  18.229  0.00  0.00    +0.000 NA
ATOM      5  C   UNL     1       5.876   5.126  18.437  0.00  0.00    +0.000 A 
ATOM      6  N   UNL     1       5.457   3.861  18.675  0.00  0.00    +0.000 NA
ATOM      7  C   UNL     1       4.153   3.619  18.678  0.00  0.00    +0.000 A 
ATOM      8  C   UNL     1       3.742   2.307  18.874  0.00  0.00    +0.000 A 
ATOM      9  C   UNL     1       2.395   1.947  18.871  0.00  0.00    +0.000 A 
ATOM     10  C   UNL     1       1.429   2.921  18.681  0.00  0.00    +0.000 A 
ATOM     11  C   UNL     1       1.822   4.245  18.485  0.00  0.00    +0.000 A 
ATOM     12  C   UNL     1       3.198   4.619  18.477  0.00  0.00    +0.000 A 
BRANCH   5  13
ATOM     13  C   UNL     1       7.395   5.327  18.399  0.00  0.00    +0.000 C 
ATOM     14  F   UNL     1       8.090   4.295  17.837  0.00  0.00    +0.000 F 
ATOM     15  F   UNL     1       7.768   6.441  17.696  0.00  0.00    +0.000 F 
ATOM     16  F   UNL     1       7.938   5.492  19.646  0.00  0.00    +0.000 F 
ENDBRANCH   5  13
ENDBRANCH   1   3
BRANCH   1  20
ATOM     17  C   UNL     1       0.841   9.848  20.413  0.00  0.00    +0.000 A 
ATOM     18  C   UNL     1       1.080  10.147  19.067  0.00  0.00    +0.000 A 
ATOM     19  C   UNL     1       1.717   9.207  18.237  0.00  0.00    +0.000 A 
ATOM     20  C   UNL     1       2.162   7.990  18.754  0.00  0.00    +0.000 A 
ATOM     21  C   UNL     1       1.898   7.714  20.114  0.00  0.00    +0.000 A 
ATOM     22  C   UNL     1       1.249   8.629  20.943  0.00  0.00    +0.000 A 
BRANCH  17  23
ATOM     23  S   UNL     1      -0.007  10.999  21.455  0.00  0.00    +0.000 S 
ATOM     24  O   UNL     1       0.092  10.549  22.824  0.00  0.00    +0.000 OA
ATOM     25  O   UNL     1      -1.263  11.362  20.845  0.00  0.00    +0.000 OA
BRANCH  23  26
ATOM     26  N   UNL     1       0.952  12.371  21.333  0.00  0.00    +0.000 NA
ATOM     27  H   UNL     1       1.322  12.446  20.384  0.00  0.00    +0.000 HD
ATOM     28  H   UNL     1       1.672  12.358  22.055  0.00  0.00    +0.000 HD
ENDBRANCH  23  26
ENDBRANCH  17  23
ENDBRANCH   1  20
TORSDOF 5
ENDMDL
MODEL 2
REMARK VINA RESULT:      -8.7      0.450      1.064
REMARK  Name = 
REMARK  5 active torsions:
REMARK  status: ('A' for Active; 'I' for Inactive)
REMARK    1  A    between atoms: N_1  and  S_2
REMARK    2  A    between atoms: S_2  and  C_5
REMARK    3  A    between atoms: C_8  and  N_9
REMARK    4  A    between atoms: N_9  and  C_10
REMARK    5  A    between atoms: C_12  and  C_13
REMARK                            x       y       z     vdW  Elec       q    Type
REMARK                         _______ _______ _______ _____ _____    ______ ____
ROOT
ATOM      1  N   UNL     1       2.791   7.254  17.912  0.00  0.00    +0.000 N 
ATOM      2  H   UNL     1       2.261   7.182  17.050  0.00  0.00    +0.000 HD
ENDROOT
BRANCH   1   3
ATOM      3  C   UNL     1       3.723   6.178  17.988  0.00  0.00    +0.000 A 
ATOM      4  N   UNL     1       5.053   6.392  17.921  0.00  0.00    +0.000 NA
ATOM      5  C   UNL     1       5.867   5.307  17.955  0.00  0.00    +0.000 A 
ATOM      6  N   UNL     1       5.417   4.034  18.050  0.00  0.00    +0.000 NA
ATOM      7  C   UNL     1       4.107   3.827  18.082  0.00  0.00    +0.000 A 
ATOM      8  C   UNL     1       3.663   2.512  18.128  0.00  0.00    +0.000 A 
ATOM      9  C   UNL     1       2.306   2.191  18.142  0.00  0.00    +0.000 A 
ATOM     10  C   UNL     1       1.365   3.207  18.122  0.00  0.00    +0.000 A 
ATOM     11  C   UNL     1       1.792   4.534  18.077  0.00  0.00    +0.000 A 
ATOM     12  C   UNL     1       3.177   4.869  18.053  0.00  0.00    +0.000 A 
BRANCH   5  13
ATOM     13  C   UNL     1       7.388   5.471  17.873  0.00  0.00    +0.000 C 
ATOM     14  F   UNL     1       8.056   4.361  17.441  0.00  0.00    +0.000 F 
ATOM     15  F   UNL     1       7.771   6.478  17.028  0.00  0.00    +0.000 F 
ATOM     16  F   UNL     1       7.952   5.785  19.082  0.00  0.00    +0.000 F 
ENDBRANCH   5  13
ENDBRANCH   1   3
BRANCH   1  20
ATOM     17  C   UNL     1       0.756   9.882  20.512  0.00  0.00    +0.000 A 
ATOM     18  C   UNL     1       1.196   8.652  21.014  0.00  0.00    +0.000 A 
ATOM     19  C   UNL     1       1.878   7.750  20.177  0.00  0.00    +0.000 A 
ATOM     20  C   UNL     1       2.078   8.045  18.828  0.00  0.00    +0.000 A 
ATOM     21  C   UNL     1       1.630   9.298  18.354  0.00  0.00    +0.000 A 
ATOM     22  C   UNL     1       0.971  10.210  19.178  0.00  0.00    +0.000 A 
BRANCH  17  23
ATOM     23  S   UNL     1      -0.054  11.048  21.566  0.00  0.00    +0.000 S 
ATOM     24  O   UNL     1       0.037  10.585  22.930  0.00  0.00    +0.000 OA
ATOM     25  O   UNL     1      -1.301  11.454  20.963  0.00  0.00    +0.000 OA
BRANCH  23  26
ATOM     26  N   UNL     1       0.945  12.393  21.450  0.00  0.00    +0.000 NA
ATOM     27  H   UNL     1       1.913  12.090  21.335  0.00  0.00    +0.000 HD
ATOM     28  H   UNL     1       0.798  13.006  22.252  0.00  0.00    +0.000 HD
ENDBRANCH  23  26
ENDBRANCH  17  23
ENDBRANCH   1  20
TORSDOF 5
ENDMDL
MODEL 3
REMARK VINA RESULT:      -8.7      0.782      1.547
REMARK  Name = 
REMARK  5 active torsions:
REMARK  status: ('A' for Active; 'I' for Inactive)
REMARK    1  A    between atoms: N_1  and  S_2
REMARK    2  A    between atoms: S_2  and  C_5
REMARK    3  A    between atoms: C_8  and  N_9
REMARK    4  A    between atoms: N_9  and  C_10
REMARK    5  A    between atoms: C_12  and  C_13
REMARK                            x       y       z     vdW  Elec       q    Type
REMARK                         _______ _______ _______ _____ _____    ______ ____
ROOT
ATOM      1  N   UNL     1       2.810   7.199  17.911  0.00  0.00    +0.000 N 
ATOM      2  H   UNL     1       2.275   7.078  17.057  0.00  0.00    +0.000 HD
ENDROOT
BRANCH   1   3
ATOM      3  C   UNL     1       3.735   6.124  18.050  0.00  0.00    +0.000 A 
ATOM      4  N   UNL     1       5.067   6.331  18.010  0.00  0.00    +0.000 NA
ATOM      5  C   UNL     1       5.875   5.245  18.104  0.00  0.00    +0.000 A 
ATOM      6  N   UNL     1       5.418   3.978  18.232  0.00  0.00    +0.000 NA
ATOM      7  C   UNL     1       4.107   3.776  18.236  0.00  0.00    +0.000 A 
ATOM      8  C   UNL     1       3.657   2.465  18.317  0.00  0.00    +0.000 A 
ATOM      9  C   UNL     1       2.299   2.149  18.306  0.00  0.00    +0.000 A 
ATOM     10  C   UNL     1       1.362   3.167  18.225  0.00  0.00    +0.000 A 
ATOM     11  C   UNL     1       1.796   4.490  18.146  0.00  0.00    +0.000 A 
ATOM     12  C   UNL     1       3.182   4.820  18.146  0.00  0.00    +0.000 A 
BRANCH   5  13
ATOM     13  C   UNL     1       7.399   5.401  18.057  0.00  0.00    +0.000 C 
ATOM     14  F   UNL     1       7.989   5.582  19.275  0.00  0.00    +0.000 F 
ATOM     15  F   UNL     1       8.029   4.319  17.505  0.00  0.00    +0.000 F 
ATOM     16  F   UNL     1       7.797   6.472  17.299  0.00  0.00    +0.000 F 
ENDBRANCH   5  13
ENDBRANCH   1   3
BRANCH   1  20
ATOM     17  C   UNL     1       0.817   9.995  20.364  0.00  0.00    +0.000 A 
ATOM     18  C   UNL     1       1.185   8.763  20.918  0.00  0.00    +0.000 A 
ATOM     19  C   UNL     1       1.851   7.806  20.130  0.00  0.00    +0.000 A 
ATOM     20  C   UNL     1       2.105   8.050  18.780  0.00  0.00    +0.000 A 
ATOM     21  C   UNL     1       1.728   9.305  18.254  0.00  0.00    +0.000 A 
ATOM     22  C   UNL     1       1.087  10.271  19.029  0.00  0.00    +0.000 A 
BRANCH  17  23
ATOM     23  S   UNL     1       0.028  11.229  21.356  0.00  0.00    +0.000 S 
ATOM     24  O   UNL     1      -1.340  11.374  20.919  0.00  0.00    +0.000 OA
ATOM     25  O   UNL     1       0.917  12.354  21.517  0.00  0.00    +0.000 OA
BRANCH  23  26
ATOM     26  N   UNL     1      -0.027  10.496  22.866  0.00  0.00    +0.000 NA
ATOM     27  H   UNL     1       0.921  10.391  23.230  0.00  0.00    +0.000 HD
ATOM     28  H   UNL     1      -0.547   9.620  22.808  0.00  0.00    +0.000 HD
ENDBRANCH  23  26
ENDBRANCH  17  23
ENDBRANCH   1  20
TORSDOF 5
ENDMDL
MODEL 4
REMARK VINA RESULT:      -8.6      1.855      2.408
REMARK  Name = 
REMARK  5 active torsions:
REMARK  status: ('A' for Active; 'I' for Inactive)
REMARK    1  A    between atoms: N_1  and  S_2
REMARK    2  A    between atoms: S_2  and  C_5
REMARK    3  A    between atoms: C_8  and  N_9
REMARK    4  A    between atoms: N_9  and  C_10
REMARK    5  A    between atoms: C_12  and  C_13
REMARK                            x       y       z     vdW  Elec       q    Type
REMARK                         _______ _______ _______ _____ _____    ______ ____
ROOT
ATOM      1  N   UNL     1       3.154   6.589  19.640  0.00  0.00    +0.000 N 
ATOM      2  H   UNL     1       3.947   6.887  20.198  0.00  0.00    +0.000 HD
ENDROOT
BRANCH   1   3
ATOM      3  C   UNL     1       3.531   5.473  18.837  0.00  0.00    +0.000 A 
ATOM      4  N   UNL     1       4.596   5.528  18.011  0.00  0.00    +0.000 NA
ATOM      5  C   UNL     1       4.857   4.436  17.249  0.00  0.00    +0.000 A 
ATOM      6  N   UNL     1       4.110   3.308  17.272  0.00  0.00    +0.000 NA
ATOM      7  C   UNL     1       3.044   3.273  18.061  0.00  0.00    +0.000 A 
ATOM      8  C   UNL     1       2.261   2.126  18.034  0.00  0.00    +0.000 A 
ATOM      9  C   UNL     1       1.108   2.001  18.809  0.00  0.00    +0.000 A 
ATOM     10  C   UNL     1       0.732   3.041  19.644  0.00  0.00    +0.000 A 
ATOM     11  C   UNL     1       1.507   4.199  19.686  0.00  0.00    +0.000 A 
ATOM     12  C   UNL     1       2.681   4.338  18.889  0.00  0.00    +0.000 A 
BRANCH   5  13
ATOM     13  C   UNL     1       6.044   4.428  16.280  0.00  0.00    +0.000 C 
ATOM     14  F   UNL     1       7.269   4.390  16.884  0.00  0.00    +0.000 F 
ATOM     15  F   UNL     1       6.027   3.360  15.424  0.00  0.00    +0.000 F 
ATOM     16  F   UNL     1       6.074   5.534  15.471  0.00  0.00    +0.000 F 
ENDBRANCH   5  13
ENDBRANCH   1   3
BRANCH   1  20
ATOM     17  C   UNL     1       0.583   9.893  19.115  0.00  0.00    +0.000 A 
ATOM     18  C   UNL     1       0.657   9.299  20.380  0.00  0.00    +0.000 A 
ATOM     19  C   UNL     1       1.503   8.195  20.592  0.00  0.00    +0.000 A 
ATOM     20  C   UNL     1       2.237   7.648  19.539  0.00  0.00    +0.000 A 
ATOM     21  C   UNL     1       2.147   8.277  18.277  0.00  0.00    +0.000 A 
ATOM     22  C   UNL     1       1.328   9.385  18.057  0.00  0.00    +0.000 A 
BRANCH  17  23
ATOM     23  S   UNL     1      -0.434  11.315  18.846  0.00  0.00    +0.000 S 
ATOM     24  O   UNL     1       0.413  12.442  18.535  0.00  0.00    +0.000 OA
ATOM     25  O   UNL     1      -1.460  11.369  19.859  0.00  0.00    +0.000 OA
BRANCH  23  26
ATOM     26  N   UNL     1      -1.240  10.918  17.427  0.00  0.00    +0.000 NA
ATOM     27  H   UNL     1      -0.740  11.311  16.629  0.00  0.00    +0.000 HD
ATOM     28  H   UNL     1      -2.215  11.212  17.488  0.00  0.00    +0.000 HD
ENDBRANCH  23  26
ENDBRANCH  17  23
ENDBRANCH   1  20
TORSDOF 5
ENDMDL
MODEL 5
REMARK VINA RESULT:      -8.6      1.649      1.986
REMARK  Name = 
REMARK  5 active torsions:
REMARK  status: ('A' for Active; 'I' for Inactive)
REMARK    1  A    between atoms: N_1  and  S_2
REMARK    2  A    between atoms: S_2  and  C_5
REMARK    3  A    between atoms: C_8  and  N_9
REMARK    4  A    between atoms: N_9  and  C_10
REMARK    5  A    between atoms: C_12  and  C_13
REMARK                            x       y       z     vdW  Elec       q    Type
REMARK                         _______ _______ _______ _____ _____    ______ ____
ROOT
ATOM      1  N   UNL     1       2.874   6.585  19.908  0.00  0.00    +0.000 N 
ATOM      2  H   UNL     1       3.365   6.733  20.784  0.00  0.00    +0.000 HD
ENDROOT
BRANCH   1   3
ATOM      3  C   UNL     1       3.486   5.512  19.196  0.00  0.00    +0.000 A 
ATOM      4  N   UNL     1       4.690   5.655  18.605  0.00  0.00    +0.000 NA
ATOM      5  C   UNL     1       5.178   4.597  17.910  0.00  0.00    +0.000 A 
ATOM      6  N   UNL     1       4.526   3.419  17.779  0.00  0.00    +0.000 NA
ATOM      7  C   UNL     1       3.328   3.295  18.335  0.00  0.00    +0.000 A 
ATOM      8  C   UNL     1       2.652   2.096  18.147  0.00  0.00    +0.000 A 
ATOM      9  C   UNL     1       1.379   1.878  18.671  0.00  0.00    +0.000 A 
ATOM     10  C   UNL     1       0.766   2.874  19.414  0.00  0.00    +0.000 A 
ATOM     11  C   UNL     1       1.431   4.083  19.614  0.00  0.00    +0.000 A 
ATOM     12  C   UNL     1       2.728   4.318  19.073  0.00  0.00    +0.000 A 
BRANCH   5  13
ATOM     13  C   UNL     1       6.535   4.689  17.203  0.00  0.00    +0.000 C 
ATOM     14  F   UNL     1       7.602   4.324  17.972  0.00  0.00    +0.000 F 
ATOM     15  F   UNL     1       6.607   3.903  16.084  0.00  0.00    +0.000 F 
ATOM     16  F   UNL     1       6.819   5.957  16.768  0.00  0.00    +0.000 F 
ENDBRANCH   5  13
ENDBRANCH   1   3
BRANCH   1  20
ATOM     17  C   UNL     1       0.532  10.004  19.117  0.00  0.00    +0.000 A 
ATOM     18  C   UNL     1       1.280   9.450  18.071  0.00  0.00    +0.000 A 
ATOM     19  C   UNL     1       2.073   8.311  18.298  0.00  0.00    +0.000 A 
ATOM     20  C   UNL     1       2.165   7.750  19.573  0.00  0.00    +0.000 A 
ATOM     21  C   UNL     1       1.391   8.328  20.604  0.00  0.00    +0.000 A 
ATOM     22  C   UNL     1       0.585   9.445  20.388  0.00  0.00    +0.000 A 
BRANCH  17  23
ATOM     23  S   UNL     1      -0.511  11.404  18.834  0.00  0.00    +0.000 S 
ATOM     24  O   UNL     1       0.315  12.545  18.520  0.00  0.00    +0.000 OA
ATOM     25  O   UNL     1      -1.543  11.444  19.843  0.00  0.00    +0.000 OA
BRANCH  23  26
ATOM     26  N   UNL     1      -1.304  10.982  17.415  0.00  0.00    +0.000 NA
ATOM     27  H   UNL     1      -0.633  10.588  16.754  0.00  0.00    +0.000 HD
ATOM     28  H   UNL     1      -1.817  11.786  17.051  0.00  0.00    +0.000 HD
ENDBRANCH  23  26
ENDBRANCH  17  23
ENDBRANCH   1  20
TORSDOF 5
ENDMDL
MODEL 6
REMARK VINA RESULT:      -8.6      3.206      4.136
REMARK  Name = 
REMARK  5 active torsions:
REMARK  status: ('A' for Active; 'I' for Inactive)
REMARK    1  A    between atoms: N_1  and  S_2
REMARK    2  A    between atoms: S_2  and  C_5
REMARK    3  A    between atoms: C_8  and  N_9
REMARK    4  A    between atoms: N_9  and  C_10
REMARK    5  A    between atoms: C_12  and  C_13
REMARK                            x       y       z     vdW  Elec       q    Type
REMARK                         _______ _______ _______ _____ _____    ______ ____
ROOT
ATOM      1  N   UNL     1       2.446   7.405  19.456  0.00  0.00    +0.000 N 
ATOM      2  H   UNL     1       3.359   7.739  19.747  0.00  0.00    +0.000 HD
ENDROOT
BRANCH   1   3
ATOM      3  C   UNL     1       2.569   6.088  18.924  0.00  0.00    +0.000 A 
ATOM      4  N   UNL     1       1.851   5.059  19.419  0.00  0.00    +0.000 NA
ATOM      5  C   UNL     1       2.063   3.830  18.883  0.00  0.00    +0.000 A 
ATOM      6  N   UNL     1       2.951   3.586  17.891  0.00  0.00    +0.000 NA
ATOM      7  C   UNL     1       3.678   4.596  17.432  0.00  0.00    +0.000 A 
ATOM      8  C   UNL     1       4.620   4.317  16.450  0.00  0.00    +0.000 A 
ATOM      9  C   UNL     1       5.448   5.306  15.920  0.00  0.00    +0.000 A 
ATOM     10  C   UNL     1       5.328   6.611  16.371  0.00  0.00    +0.000 A 
ATOM     11  C   UNL     1       4.386   6.910  17.355  0.00  0.00    +0.000 A 
ATOM     12  C   UNL     1       3.543   5.903  17.909  0.00  0.00    +0.000 A 
BRANCH   5  13
ATOM     13  C   UNL     1       1.292   2.611  19.400  0.00  0.00    +0.000 C 
ATOM     14  F   UNL     1       0.168   2.307  18.687  0.00  0.00    +0.000 F 
ATOM     15  F   UNL     1       2.043   1.466  19.402  0.00  0.00    +0.000 F 
ATOM     16  F   UNL     1       0.868   2.764  20.695  0.00  0.00    +0.000 F 
ENDBRANCH   5  13
ENDBRANCH   1   3
BRANCH   1  20
ATOM     17  C   UNL     1      -0.296  10.590  19.086  0.00  0.00    +0.000 A 
ATOM     18  C   UNL     1       0.411  10.182  17.949  0.00  0.00    +0.000 A 
ATOM     19  C   UNL     1       1.334   9.124  18.035  0.00  0.00    +0.000 A 
ATOM     20  C   UNL     1       1.594   8.504  19.258  0.00  0.00    +0.000 A 
ATOM     21  C   UNL     1       0.857   8.933  20.384  0.00  0.00    +0.000 A 
ATOM     22  C   UNL     1      -0.076   9.967  20.309  0.00  0.00    +0.000 A 
BRANCH  17  23
ATOM     23  S   UNL     1      -1.500  11.882  18.982  0.00  0.00    +0.000 S 
ATOM     24  O   UNL     1      -1.328  12.770  20.107  0.00  0.00    +0.000 OA
ATOM     25  O   UNL     1      -2.779  11.318  18.624  0.00  0.00    +0.000 OA
BRANCH  23  26
ATOM     26  N   UNL     1      -1.000  12.732  17.622  0.00  0.00    +0.000 NA
ATOM     27  H   UNL     1      -1.675  12.597  16.868  0.00  0.00    +0.000 HD
ATOM     28  H   UNL     1      -0.047  12.464  17.376  0.00  0.00    +0.000 HD
ENDBRANCH  23  26
ENDBRANCH  17  23
ENDBRANCH   1  20
TORSDOF 5
ENDMDL
MODEL 7
REMARK VINA RESULT:      -8.5      1.697      1.949
REMARK  Name = 
REMARK  5 active torsions:
REMARK  status: ('A' for Active; 'I' for Inactive)
REMARK    1  A    between atoms: N_1  and  S_2
REMARK    2  A    between atoms: S_2  and  C_5
REMARK    3  A    between atoms: C_8  and  N_9
REMARK    4  A    between atoms: N_9  and  C_10
REMARK    5  A    between atoms: C_12  and  C_13
REMARK                            x       y       z     vdW  Elec       q    Type
REMARK                         _______ _______ _______ _____ _____    ______ ____
ROOT
ATOM      1  N   UNL     1       3.087   6.651  19.554  0.00  0.00    +0.000 N 
ATOM      2  H   UNL     1       3.820   6.878  20.219  0.00  0.00    +0.000 HD
ENDROOT
BRANCH   1   3
ATOM      3  C   UNL     1       3.485   5.526  18.774  0.00  0.00    +0.000 A 
ATOM      4  N   UNL     1       4.544   5.588  17.940  0.00  0.00    +0.000 NA
ATOM      5  C   UNL     1       4.826   4.486  17.200  0.00  0.00    +0.000 A 
ATOM      6  N   UNL     1       4.106   3.341  17.254  0.00  0.00    +0.000 NA
ATOM      7  C   UNL     1       3.046   3.298  18.051  0.00  0.00    +0.000 A 
ATOM      8  C   UNL     1       2.291   2.132  18.056  0.00  0.00    +0.000 A 
ATOM      9  C   UNL     1       1.147   1.998  18.842  0.00  0.00    +0.000 A 
ATOM     10  C   UNL     1       0.751   3.047  19.655  0.00  0.00    +0.000 A 
ATOM     11  C   UNL     1       1.499   4.223  19.666  0.00  0.00    +0.000 A 
ATOM     12  C   UNL     1       2.664   4.372  18.858  0.00  0.00    +0.000 A 
BRANCH   5  13
ATOM     13  C   UNL     1       6.006   4.484  16.223  0.00  0.00    +0.000 C 
ATOM     14  F   UNL     1       6.063   3.393  15.404  0.00  0.00    +0.000 F 
ATOM     15  F   UNL     1       6.008   5.568  15.387  0.00  0.00    +0.000 F 
ATOM     16  F   UNL     1       7.219   4.522  16.860  0.00  0.00    +0.000 F 
ENDBRANCH   5  13
ENDBRANCH   1   3
BRANCH   1  20
ATOM     17  C   UNL     1       0.440   9.919  19.215  0.00  0.00    +0.000 A 
ATOM     18  C   UNL     1       1.144   9.508  18.077  0.00  0.00    +0.000 A 
ATOM     19  C   UNL     1       2.036   8.423  18.152  0.00  0.00    +0.000 A 
ATOM     20  C   UNL     1       2.268   7.777  19.367  0.00  0.00    +0.000 A 
ATOM     21  C   UNL     1       1.536   8.210  20.495  0.00  0.00    +0.000 A 
ATOM     22  C   UNL     1       0.633   9.271  20.429  0.00  0.00    +0.000 A 
BRANCH  17  23
ATOM     23  S   UNL     1      -0.724  11.247  19.123  0.00  0.00    +0.000 S 
ATOM     24  O   UNL     1      -0.829  11.866  20.423  0.00  0.00    +0.000 OA
ATOM     25  O   UNL     1      -1.879  10.821  18.369  0.00  0.00    +0.000 OA
BRANCH  23  26
ATOM     26  N   UNL     1       0.063  12.350  18.131  0.00  0.00    +0.000 NA
ATOM     27  H   UNL     1      -0.612  12.783  17.499  0.00  0.00    +0.000 HD
ATOM     28  H   UNL     1       0.841  11.894  17.654  0.00  0.00    +0.000 HD
ENDBRANCH  23  26
ENDBRANCH  17  23
ENDBRANCH   1  20
TORSDOF 5
ENDMDL
MODEL 8
REMARK VINA RESULT:      -8.5      1.898      2.344
REMARK  Name = 
REMARK  5 active torsions:
REMARK  status: ('A' for Active; 'I' for Inactive)
REMARK    1  A    between atoms: N_1  and  S_2
REMARK    2  A    between atoms: S_2  and  C_5
REMARK    3  A    between atoms: C_8  and  N_9
REMARK    4  A    between atoms: N_9  and  C_10
REMARK    5  A    between atoms: C_12  and  C_13
REMARK                            x       y       z     vdW  Elec       q    Type
REMARK                         _______ _______ _______ _____ _____    ______ ____
ROOT
ATOM      1  N   UNL     1       2.712   6.933  19.776  0.00  0.00    +0.000 N 
ATOM      2  H   UNL     1       3.477   7.117  20.417  0.00  0.00    +0.000 HD
ENDROOT
BRANCH   1   3
ATOM      3  C   UNL     1       3.110   5.937  18.836  0.00  0.00    +0.000 A 
ATOM      4  N   UNL     1       4.008   6.204  17.865  0.00  0.00    +0.000 NA
ATOM      5  C   UNL     1       4.295   5.212  16.985  0.00  0.00    +0.000 A 
ATOM      6  N   UNL     1       3.731   3.982  17.029  0.00  0.00    +0.000 NA
ATOM      7  C   UNL     1       2.824   3.736  17.966  0.00  0.00    +0.000 A 
ATOM      8  C   UNL     1       2.220   2.486  17.964  0.00  0.00    +0.000 A 
ATOM      9  C   UNL     1       1.239   2.140  18.892  0.00  0.00    +0.000 A 
ATOM     10  C   UNL     1       0.858   3.058  19.857  0.00  0.00    +0.000 A 
ATOM     11  C   UNL     1       1.455   4.318  19.875  0.00  0.00    +0.000 A 
ATOM     12  C   UNL     1       2.452   4.683  18.924  0.00  0.00    +0.000 A 
BRANCH   5  13
ATOM     13  C   UNL     1       5.298   5.444  15.850  0.00  0.00    +0.000 C 
ATOM     14  F   UNL     1       5.274   4.495  14.869  0.00  0.00    +0.000 F 
ATOM     15  F   UNL     1       5.108   6.637  15.206  0.00  0.00    +0.000 F 
ATOM     16  F   UNL     1       6.596   5.478  16.290  0.00  0.00    +0.000 F 
ENDBRANCH   5  13
ENDBRANCH   1   3
BRANCH   1  20
ATOM     17  C   UNL     1       0.244  10.349  19.581  0.00  0.00    +0.000 A 
ATOM     18  C   UNL     1       0.338   9.661  20.796  0.00  0.00    +0.000 A 
ATOM     19  C   UNL     1       1.150   8.517  20.899  0.00  0.00    +0.000 A 
ATOM     20  C   UNL     1       1.830   8.026  19.783  0.00  0.00    +0.000 A 
ATOM     21  C   UNL     1       1.722   8.748  18.574  0.00  0.00    +0.000 A 
ATOM     22  C   UNL     1       0.937   9.895  18.464  0.00  0.00    +0.000 A 
BRANCH  17  23
ATOM     23  S   UNL     1      -0.730  11.820  19.451  0.00  0.00    +0.000 S 
ATOM     24  O   UNL     1      -0.362  12.719  20.518  0.00  0.00    +0.000 OA
ATOM     25  O   UNL     1      -2.101  11.463  19.172  0.00  0.00    +0.000 OA
BRANCH  23  26
ATOM     26  N   UNL     1      -0.159  12.506  18.029  0.00  0.00    +0.000 NA
ATOM     27  H   UNL     1       0.807  12.809  18.160  0.00  0.00    +0.000 HD
ATOM     28  H   UNL     1      -0.787  13.251  17.726  0.00  0.00    +0.000 HD
ENDBRANCH  23  26
ENDBRANCH  17  23
ENDBRANCH   1  20
TORSDOF 5
ENDMDL
MODEL 9
REMARK VINA RESULT:      -8.5      0.725      1.452
REMARK  Name = 
REMARK  5 active torsions:
REMARK  status: ('A' for Active; 'I' for Inactive)
REMARK    1  A    between atoms: N_1  and  S_2
REMARK    2  A    between atoms: S_2  and  C_5
REMARK    3  A    between atoms: C_8  and  N_9
REMARK    4  A    between atoms: N_9  and  C_10
REMARK    5  A    between atoms: C_12  and  C_13
REMARK                            x       y       z     vdW  Elec       q    Type
REMARK                         _______ _______ _______ _____ _____    ______ ____
ROOT
ATOM      1  N   UNL     1       2.823   6.990  18.101  0.00  0.00    +0.000 N 
ATOM      2  H   UNL     1       2.292   6.799  17.257  0.00  0.00    +0.000 HD
ENDROOT
BRANCH   1   3
ATOM      3  C   UNL     1       3.778   5.952  18.306  0.00  0.00    +0.000 A 
ATOM      4  N   UNL     1       5.103   6.198  18.271  0.00  0.00    +0.000 NA
ATOM      5  C   UNL     1       5.943   5.144  18.431  0.00  0.00    +0.000 A 
ATOM      6  N   UNL     1       5.522   3.871  18.620  0.00  0.00    +0.000 NA
ATOM      7  C   UNL     1       4.218   3.630  18.621  0.00  0.00    +0.000 A 
ATOM      8  C   UNL     1       3.806   2.312  18.765  0.00  0.00    +0.000 A 
ATOM      9  C   UNL     1       2.459   1.954  18.755  0.00  0.00    +0.000 A 
ATOM     10  C   UNL     1       1.493   2.937  18.610  0.00  0.00    +0.000 A 
ATOM     11  C   UNL     1       1.887   4.267  18.466  0.00  0.00    +0.000 A 
ATOM     12  C   UNL     1       3.263   4.639  18.465  0.00  0.00    +0.000 A 
BRANCH   5  13
ATOM     13  C   UNL     1       7.461   5.344  18.393  0.00  0.00    +0.000 C 
ATOM     14  F   UNL     1       7.873   6.429  17.673  0.00  0.00    +0.000 F 
ATOM     15  F   UNL     1       8.010   5.503  19.637  0.00  0.00    +0.000 F 
ATOM     16  F   UNL     1       8.122   4.275  17.845  0.00  0.00    +0.000 F 
ENDBRANCH   5  13
ENDBRANCH   1   3
BRANCH   1  20
ATOM     17  C   UNL     1       0.756   9.881  20.376  0.00  0.00    +0.000 A 
ATOM     18  C   UNL     1       1.141   8.689  21.001  0.00  0.00    +0.000 A 
ATOM     19  C   UNL     1       1.831   7.702  20.274  0.00  0.00    +0.000 A 
ATOM     20  C   UNL     1       2.095   7.874  18.914  0.00  0.00    +0.000 A 
ATOM     21  C   UNL     1       1.700   9.091  18.315  0.00  0.00    +0.000 A 
ATOM     22  C   UNL     1       1.034  10.087  19.030  0.00  0.00    +0.000 A 
BRANCH  17  23
ATOM     23  S   UNL     1      -0.064  11.153  21.290  0.00  0.00    +0.000 S 
ATOM     24  O   UNL     1       0.847  12.258  21.471  0.00  0.00    +0.000 OA
ATOM     25  O   UNL     1      -0.796  10.561  22.384  0.00  0.00    +0.000 OA
BRANCH  23  26
ATOM     26  N   UNL     1      -1.239  11.675  20.209  0.00  0.00    +0.000 NA
ATOM     27  H   UNL     1      -2.115  11.833  20.708  0.00  0.00    +0.000 HD
ATOM     28  H   UNL     1      -1.318  11.014  19.436  0.00  0.00    +0.000 HD
ENDBRANCH  23  26
ENDBRANCH  17  23
ENDBRANCH   1  20
TORSDOF 5
ENDMDL
