MODEL 1
REMARK VINA RESULT:      -8.5      0.000      0.000
REMARK  Name = 
REMARK  4 active torsions:
REMARK  status: ('A' for Active; 'I' for Inactive)
REMARK    1  A    between atoms: C_1  and  C_2
REMARK    2  A    between atoms: C_2  and  N_3
REMARK    3  A    between atoms: C_2  and  C_15
REMARK    4  A    between atoms: C_4  and  C_6
REMARK                            x       y       z     vdW  Elec       q    Type
REMARK                         _______ _______ _______ _____ _____    ______ ____
ROOT
ATOM      1  N   UNL     1       5.487   5.877  18.199  0.00  0.00    +0.000 N 
ATOM      2  C   UNL     1       4.130   5.645  18.251  0.00  0.00    +0.000 C 
ATOM      3  O   UNL     1       3.647   4.529  18.097  0.00  0.00    +0.000 OA
ATOM      4  H   UNL     1       5.856   6.815  18.251  0.00  0.00    +0.000 HD
ENDROOT
BRANCH   2   5
ATOM      5  C   UNL     1       3.245   6.821  18.515  0.00  0.00    +0.000 A 
ATOM      6  C   UNL     1       2.997   7.802  17.548  0.00  0.00    +0.000 A 
ATOM      7  C   UNL     1       2.113   8.860  17.797  0.00  0.00    +0.000 A 
ATOM      8  C   UNL     1       1.476   8.897  19.041  0.00  0.00    +0.000 A 
ATOM      9  N   UNL     1       0.545   9.786  19.538  0.00  0.00    +0.000 N 
ATOM     10  C   UNL     1       0.176   9.420  20.806  0.00  0.00    +0.000 A 
ATOM     11  C   UNL     1       0.886   8.290  21.144  0.00  0.00    +0.000 A 
ATOM     12  C   UNL     1       1.703   7.942  20.032  0.00  0.00    +0.000 A 
ATOM     13  C   UNL     1       2.606   6.892  19.767  0.00  0.00    +0.000 A 
ATOM     14  H   UNL     1       0.179  10.576  19.029  0.00  0.00    +0.000 HD
ENDBRANCH   2   5
BRANCH   1  16
ATOM     15  C   UNL     1       7.783   5.105  18.546  0.00  0.00    +0.000 C 
ATOM     16  C   UNL     1       6.432   4.815  17.895  0.00  0.00    +0.000 C 
BRANCH  16  17
ATOM     17  C   UNL     1       6.568   4.706  16.406  0.00  0.00    +0.000 A 
ATOM     18  N   UNL     1       7.420   5.355  15.634  0.00  0.00    +0.000 NA
ATOM     19  C   UNL     1       7.181   4.911  14.359  0.00  0.00    +0.000 A 
ATOM     20  C   UNL     1       7.805   5.273  13.158  0.00  0.00    +0.000 A 
ATOM     21  C   UNL     1       7.360   4.691  11.965  0.00  0.00    +0.000 A 
ATOM     22  C   UNL     1       6.322   3.756  11.974  0.00  0.00    +0.000 A 
ATOM     23  C   UNL     1       5.696   3.370  13.167  0.00  0.00    +0.000 A 
ATOM     24  C   UNL     1       6.152   3.976  14.341  0.00  0.00    +0.000 A 
ATOM     25  N   UNL     1       5.774   3.864  15.657  0.00  0.00    +0.000 N 
ATOM     26  H   UNL     1       5.028   3.288  16.025  0.00  0.00    +0.000 HD
ENDBRANCH  16  17
ENDBRANCH   1  16
TORSDOF 3
ENDMDL
MODEL 2
REMARK VINA RESULT:      -8.4      0.216      1.231
REMARK  Name = 
REMARK  4 active torsions:
REMARK  status: ('A' for Active; 'I' for Inactive)
REMARK    1  A    between atoms: C_1  and  C_2
REMARK    2  A    between atoms: C_2  and  N_3
REMARK    3  A    between atoms: C_2  and  C_15
REMARK    4  A    between atoms: C_4  and  C_6
REMARK                            x       y       z     vdW  Elec       q    Type
REMARK                         _______ _______ _______ _____ _____    ______ ____
ROOT
ATOM      1  N   UNL     1       5.354   5.993  18.137  0.00  0.00    +0.000 N 
ATOM      2  C   UNL     1       4.046   5.749  18.496  0.00  0.00    +0.000 C 
ATOM      3  O   UNL     1       3.617   4.616  18.683  0.00  0.00    +0.000 OA
ATOM      4  H   UNL     1       5.665   6.926  17.912  0.00  0.00    +0.000 HD
ENDROOT
BRANCH   2   5
ATOM      5  C   UNL     1       3.150   6.933  18.661  0.00  0.00    +0.000 A 
ATOM      6  C   UNL     1       2.935   7.857  17.631  0.00  0.00    +0.000 A 
ATOM      7  C   UNL     1       2.041   8.924  17.788  0.00  0.00    +0.000 A 
ATOM      8  C   UNL     1       1.358   9.028  19.004  0.00  0.00    +0.000 A 
ATOM      9  N   UNL     1       0.408   9.940  19.416  0.00  0.00    +0.000 N 
ATOM     10  C   UNL     1      -0.006   9.645  20.689  0.00  0.00    +0.000 A 
ATOM     11  C   UNL     1       0.694   8.539  21.115  0.00  0.00    +0.000 A 
ATOM     12  C   UNL     1       1.551   8.131  20.055  0.00  0.00    +0.000 A 
ATOM     13  C   UNL     1       2.466   7.072  19.883  0.00  0.00    +0.000 A 
ATOM     14  H   UNL     1       0.058  10.698  18.851  0.00  0.00    +0.000 HD
ENDBRANCH   2   5
BRANCH   1  16
ATOM     15  C   UNL     1       7.657   5.250  18.501  0.00  0.00    +0.000 C 
ATOM     16  C   UNL     1       6.295   4.910  17.898  0.00  0.00    +0.000 C 
BRANCH  16  17
ATOM     17  C   UNL     1       6.405   4.688  16.419  0.00  0.00    +0.000 A 
ATOM     18  N   UNL     1       5.671   3.878  15.679  0.00  0.00    +0.000 NA
ATOM     19  C   UNL     1       6.126   4.033  14.394  0.00  0.00    +0.000 A 
ATOM     20  C   UNL     1       5.694   3.410  13.216  0.00  0.00    +0.000 A 
ATOM     21  C   UNL     1       6.342   3.721  12.014  0.00  0.00    +0.000 A 
ATOM     22  C   UNL     1       7.391   4.643  11.989  0.00  0.00    +0.000 A 
ATOM     23  C   UNL     1       7.826   5.288  13.155  0.00  0.00    +0.000 A 
ATOM     24  C   UNL     1       7.169   4.951  14.342  0.00  0.00    +0.000 A 
ATOM     25  N   UNL     1       7.332   5.351  15.645  0.00  0.00    +0.000 N 
ATOM     26  H   UNL     1       8.025   6.001  15.997  0.00  0.00    +0.000 HD
ENDBRANCH  16  17
ENDBRANCH   1  16
TORSDOF 3
ENDMDL
MODEL 3
REMARK VINA RESULT:      -8.2      0.714      1.484
REMARK  Name = 
REMARK  4 active torsions:
REMARK  status: ('A' for Active; 'I' for Inactive)
REMARK    1  A    between atoms: C_1  and  C_2
REMARK    2  A    between atoms: C_2  and  N_3
REMARK    3  A    between atoms: C_2  and  C_15
REMARK    4  A    between atoms: C_4  and  C_6
REMARK                            x       y       z     vdW  Elec       q    Type
REMARK                         _______ _______ _______ _____ _____    ______ ____
ROOT
ATOM      1  N   UNL     1       5.503   5.624  18.280  0.00  0.00    +0.000 N 
ATOM      2  C   UNL     1       4.302   5.205  18.811  0.00  0.00    +0.000 C 
ATOM      3  O   UNL     1       4.069   4.028  19.060  0.00  0.00    +0.000 OA
ATOM      4  H   UNL     1       5.644   6.586  18.010  0.00  0.00    +0.000 HD
ENDROOT
BRANCH   2   5
ATOM      5  C   UNL     1       3.274   6.254  19.085  0.00  0.00    +0.000 A 
ATOM      6  C   UNL     1       2.493   6.250  20.247  0.00  0.00    +0.000 A 
ATOM      7  C   UNL     1       1.580   7.279  20.512  0.00  0.00    +0.000 A 
ATOM      8  C   UNL     1       1.483   8.319  19.583  0.00  0.00    +0.000 A 
ATOM      9  N   UNL     1       0.709   9.461  19.603  0.00  0.00    +0.000 N 
ATOM     10  C   UNL     1       0.955  10.215  18.485  0.00  0.00    +0.000 A 
ATOM     11  C   UNL     1       1.887   9.548  17.722  0.00  0.00    +0.000 A 
ATOM     12  C   UNL     1       2.238   8.354  18.411  0.00  0.00    +0.000 A 
ATOM     13  C   UNL     1       3.142   7.302  18.155  0.00  0.00    +0.000 A 
ATOM     14  H   UNL     1       0.072   9.709  20.345  0.00  0.00    +0.000 HD
ENDBRANCH   2   5
BRANCH   1  16
ATOM     15  C   UNL     1       7.880   5.107  18.545  0.00  0.00    +0.000 C 
ATOM     16  C   UNL     1       6.551   4.680  17.925  0.00  0.00    +0.000 C 
BRANCH  16  17
ATOM     17  C   UNL     1       6.654   4.618  16.430  0.00  0.00    +0.000 A 
ATOM     18  N   UNL     1       7.475   5.306  15.659  0.00  0.00    +0.000 NA
ATOM     19  C   UNL     1       7.214   4.897  14.377  0.00  0.00    +0.000 A 
ATOM     20  C   UNL     1       7.804   5.306  13.173  0.00  0.00    +0.000 A 
ATOM     21  C   UNL     1       7.340   4.751  11.974  0.00  0.00    +0.000 A 
ATOM     22  C   UNL     1       6.320   3.797  11.978  0.00  0.00    +0.000 A 
ATOM     23  C   UNL     1       5.729   3.363  13.174  0.00  0.00    +0.000 A 
ATOM     24  C   UNL     1       6.202   3.943  14.355  0.00  0.00    +0.000 A 
ATOM     25  N   UNL     1       5.857   3.785  15.674  0.00  0.00    +0.000 N 
ATOM     26  H   UNL     1       5.131   3.184  16.043  0.00  0.00    +0.000 HD
ENDBRANCH  16  17
ENDBRANCH   1  16
TORSDOF 3
ENDMDL
MODEL 4
REMARK VINA RESULT:      -8.2      0.695      1.911
REMARK  Name = 
REMARK  4 active torsions:
REMARK  status: ('A' for Active; 'I' for Inactive)
REMARK    1  A    between atoms: C_1  and  C_2
REMARK    2  A    between atoms: C_2  and  N_3
REMARK    3  A    between atoms: C_2  and  C_15
REMARK    4  A    between atoms: C_4  and  C_6
REMARK                            x       y       z     vdW  Elec       q    Type
REMARK                         _______ _______ _______ _____ _____    ______ ____
ROOT
ATOM      1  N   UNL     1       5.452   5.648  18.402  0.00  0.00    +0.000 N 
ATOM      2  C   UNL     1       4.205   5.240  18.821  0.00  0.00    +0.000 C 
ATOM      3  O   UNL     1       3.916   4.057  18.969  0.00  0.00    +0.000 OA
ATOM      4  H   UNL     1       5.644   6.621  18.212  0.00  0.00    +0.000 HD
ENDROOT
BRANCH   2   5
ATOM      5  C   UNL     1       3.195   6.305  19.102  0.00  0.00    +0.000 A 
ATOM      6  C   UNL     1       2.443   6.330  20.283  0.00  0.00    +0.000 A 
ATOM      7  C   UNL     1       1.549   7.374  20.552  0.00  0.00    +0.000 A 
ATOM      8  C   UNL     1       1.441   8.399  19.607  0.00  0.00    +0.000 A 
ATOM      9  N   UNL     1       0.680   9.550  19.625  0.00  0.00    +0.000 N 
ATOM     10  C   UNL     1       0.907  10.282  18.488  0.00  0.00    +0.000 A 
ATOM     11  C   UNL     1       1.813   9.591  17.715  0.00  0.00    +0.000 A 
ATOM     12  C   UNL     1       2.168   8.405  18.416  0.00  0.00    +0.000 A 
ATOM     13  C   UNL     1       3.053   7.338  18.157  0.00  0.00    +0.000 A 
ATOM     14  H   UNL     1       0.065   9.818  20.378  0.00  0.00    +0.000 HD
ENDBRANCH   2   5
BRANCH   1  16
ATOM     15  C   UNL     1       7.846   5.168  18.570  0.00  0.00    +0.000 C 
ATOM     16  C   UNL     1       6.490   4.693  18.050  0.00  0.00    +0.000 C 
BRANCH  16  17
ATOM     17  C   UNL     1       6.514   4.539  16.558  0.00  0.00    +0.000 A 
ATOM     18  N   UNL     1       5.675   3.839  15.817  0.00  0.00    +0.000 NA
ATOM     19  C   UNL     1       6.086   4.017  14.520  0.00  0.00    +0.000 A 
ATOM     20  C   UNL     1       5.546   3.499  13.336  0.00  0.00    +0.000 A 
ATOM     21  C   UNL     1       6.167   3.810  12.121  0.00  0.00    +0.000 A 
ATOM     22  C   UNL     1       7.296   4.633  12.088  0.00  0.00    +0.000 A 
ATOM     23  C   UNL     1       7.841   5.173  13.262  0.00  0.00    +0.000 A 
ATOM     24  C   UNL     1       7.208   4.837  14.461  0.00  0.00    +0.000 A 
ATOM     25  N   UNL     1       7.465   5.153  15.773  0.00  0.00    +0.000 N 
ATOM     26  H   UNL     1       8.230   5.717  16.121  0.00  0.00    +0.000 HD
ENDBRANCH  16  17
ENDBRANCH   1  16
TORSDOF 3
ENDMDL
MODEL 5
REMARK VINA RESULT:      -8.1      3.038      3.268
REMARK  Name = 
REMARK  4 active torsions:
REMARK  status: ('A' for Active; 'I' for Inactive)
REMARK    1  A    between atoms: C_1  and  C_2
REMARK    2  A    between atoms: C_2  and  N_3
REMARK    3  A    between atoms: C_2  and  C_15
REMARK    4  A    between atoms: C_4  and  C_6
REMARK                            x       y       z     vdW  Elec       q    Type
REMARK                         _______ _______ _______ _____ _____    ______ ____
ROOT
ATOM      1  N   UNL     1       5.958   4.497  17.962  0.00  0.00    +0.000 N 
ATOM      2  C   UNL     1       4.739   5.054  17.639  0.00  0.00    +0.000 C 
ATOM      3  O   UNL     1       4.623   5.936  16.795  0.00  0.00    +0.000 OA
ATOM      4  H   UNL     1       6.041   3.830  18.714  0.00  0.00    +0.000 HD
ENDROOT
BRANCH   2   5
ATOM      5  C   UNL     1       3.538   4.536  18.361  0.00  0.00    +0.000 A 
ATOM      6  C   UNL     1       2.299   4.373  17.730  0.00  0.00    +0.000 A 
ATOM      7  C   UNL     1       1.204   3.826  18.411  0.00  0.00    +0.000 A 
ATOM      8  C   UNL     1       1.393   3.433  19.740  0.00  0.00    +0.000 A 
ATOM      9  N   UNL     1       0.517   2.841  20.626  0.00  0.00    +0.000 N 
ATOM     10  C   UNL     1       1.143   2.613  21.824  0.00  0.00    +0.000 A 
ATOM     11  C   UNL     1       2.435   3.076  21.721  0.00  0.00    +0.000 A 
ATOM     12  C   UNL     1       2.610   3.586  20.404  0.00  0.00    +0.000 A 
ATOM     13  C   UNL     1       3.696   4.152  19.706  0.00  0.00    +0.000 A 
ATOM     14  H   UNL     1      -0.438   2.596  20.411  0.00  0.00    +0.000 HD
ENDBRANCH   2   5
BRANCH   1  16
ATOM     15  C   UNL     1       7.435   6.432  17.714  0.00  0.00    +0.000 C 
ATOM     16  C   UNL     1       7.195   4.966  17.359  0.00  0.00    +0.000 C 
BRANCH  16  17
ATOM     17  C   UNL     1       7.103   4.784  15.873  0.00  0.00    +0.000 A 
ATOM     18  N   UNL     1       7.752   5.463  14.946  0.00  0.00    +0.000 NA
ATOM     19  C   UNL     1       7.359   4.926  13.746  0.00  0.00    +0.000 A 
ATOM     20  C   UNL     1       7.745   5.274  12.445  0.00  0.00    +0.000 A 
ATOM     21  C   UNL     1       7.177   4.585  11.367  0.00  0.00    +0.000 A 
ATOM     22  C   UNL     1       6.253   3.559  11.585  0.00  0.00    +0.000 A 
ATOM     23  C   UNL     1       5.867   3.187  12.880  0.00  0.00    +0.000 A 
ATOM     24  C   UNL     1       6.440   3.900  13.937  0.00  0.00    +0.000 A 
ATOM     25  N   UNL     1       6.289   3.830  15.300  0.00  0.00    +0.000 N 
ATOM     26  H   UNL     1       5.673   3.210  15.810  0.00  0.00    +0.000 HD
ENDBRANCH  16  17
ENDBRANCH   1  16
TORSDOF 3
ENDMDL
MODEL 6
REMARK VINA RESULT:      -8.1      4.250      6.462
REMARK  Name = 
REMARK  4 active torsions:
REMARK  status: ('A' for Active; 'I' for Inactive)
REMARK    1  A    between atoms: C_1  and  C_2
REMARK    2  A    between atoms: C_2  and  N_3
REMARK    3  A    between atoms: C_2  and  C_15
REMARK    4  A    between atoms: C_4  and  C_6
REMARK                            x       y       z     vdW  Elec       q    Type
REMARK                         _______ _______ _______ _____ _____    ______ ____
ROOT
ATOM      1  N   UNL     1       1.685   8.630  18.063  0.00  0.00    +0.000 N 
ATOM      2  C   UNL     1       1.008   9.302  19.057  0.00  0.00    +0.000 C 
ATOM      3  O   UNL     1       1.409   9.341  20.215  0.00  0.00    +0.000 OA
ATOM      4  H   UNL     1       1.296   8.545  17.136  0.00  0.00    +0.000 HD
ENDROOT
BRANCH   2   5
ATOM      5  C   UNL     1      -0.255  10.002  18.672  0.00  0.00    +0.000 A 
ATOM      6  C   UNL     1      -0.757  11.090  19.394  0.00  0.00    +0.000 A 
ATOM      7  C   UNL     1      -1.908  11.771  18.976  0.00  0.00    +0.000 A 
ATOM      8  C   UNL     1      -2.533  11.335  17.804  0.00  0.00    +0.000 A 
ATOM      9  N   UNL     1      -3.641  11.831  17.148  0.00  0.00    +0.000 N 
ATOM     10  C   UNL     1      -3.885  11.097  16.015  0.00  0.00    +0.000 A 
ATOM     11  C   UNL     1      -2.934  10.104  15.943  0.00  0.00    +0.000 A 
ATOM     12  C   UNL     1      -2.066  10.250  17.061  0.00  0.00    +0.000 A 
ATOM     13  C   UNL     1      -0.914   9.570  17.505  0.00  0.00    +0.000 A 
ATOM     14  H   UNL     1      -4.176  12.629  17.452  0.00  0.00    +0.000 HD
ENDBRANCH   2   5
BRANCH   1  16
ATOM     15  C   UNL     1       3.761   7.778  17.087  0.00  0.00    +0.000 C 
ATOM     16  C   UNL     1       2.894   7.871  18.342  0.00  0.00    +0.000 C 
BRANCH  16  17
ATOM     17  C   UNL     1       2.502   6.506  18.824  0.00  0.00    +0.000 A 
ATOM     18  N   UNL     1       2.096   5.488  18.089  0.00  0.00    +0.000 NA
ATOM     19  C   UNL     1       1.876   4.458  18.967  0.00  0.00    +0.000 A 
ATOM     20  C   UNL     1       1.439   3.151  18.716  0.00  0.00    +0.000 A 
ATOM     21  C   UNL     1       1.265   2.279  19.798  0.00  0.00    +0.000 A 
ATOM     22  C   UNL     1       1.536   2.700  21.102  0.00  0.00    +0.000 A 
ATOM     23  C   UNL     1       1.990   3.999  21.371  0.00  0.00    +0.000 A 
ATOM     24  C   UNL     1       2.143   4.852  20.274  0.00  0.00    +0.000 A 
ATOM     25  N   UNL     1       2.536   6.162  20.158  0.00  0.00    +0.000 N 
ATOM     26  H   UNL     1       2.786   6.788  20.913  0.00  0.00    +0.000 HD
ENDBRANCH  16  17
ENDBRANCH   1  16
TORSDOF 3
ENDMDL
MODEL 7
REMARK VINA RESULT:      -8.1      4.309      8.608
REMARK  Name = 
REMARK  4 active torsions:
REMARK  status: ('A' for Active; 'I' for Inactive)
REMARK    1  A    between atoms: C_1  and  C_2
REMARK    2  A    between atoms: C_2  and  N_3
REMARK    3  A    between atoms: C_2  and  C_15
REMARK    4  A    between atoms: C_4  and  C_6
REMARK                            x       y       z     vdW  Elec       q    Type
REMARK                         _______ _______ _______ _____ _____    ______ ____
ROOT
ATOM      1  N   UNL     1       1.154   8.859  19.688  0.00  0.00    +0.000 N 
ATOM      2  C   UNL     1       2.050   8.157  18.911  0.00  0.00    +0.000 C 
ATOM      3  O   UNL     1       2.746   8.699  18.059  0.00  0.00    +0.000 OA
ATOM      4  H   UNL     1       0.536   8.382  20.328  0.00  0.00    +0.000 HD
ENDROOT
BRANCH   2   5
ATOM      5  C   UNL     1       2.154   6.686  19.147  0.00  0.00    +0.000 A 
ATOM      6  C   UNL     1       1.966   6.116  20.412  0.00  0.00    +0.000 A 
ATOM      7  C   UNL     1       2.006   4.727  20.596  0.00  0.00    +0.000 A 
ATOM      8  C   UNL     1       2.226   3.927  19.471  0.00  0.00    +0.000 A 
ATOM      9  N   UNL     1       2.278   2.553  19.352  0.00  0.00    +0.000 N 
ATOM     10  C   UNL     1       2.498   2.203  18.045  0.00  0.00    +0.000 A 
ATOM     11  C   UNL     1       2.608   3.361  17.309  0.00  0.00    +0.000 A 
ATOM     12  C   UNL     1       2.425   4.458  18.196  0.00  0.00    +0.000 A 
ATOM     13  C   UNL     1       2.395   5.859  18.034  0.00  0.00    +0.000 A 
ATOM     14  H   UNL     1       2.150   1.907  20.115  0.00  0.00    +0.000 HD
ENDBRANCH   2   5
BRANCH   1  16
ATOM     15  C   UNL     1       0.939  11.000  20.853  0.00  0.00    +0.000 C 
ATOM     16  C   UNL     1       0.936  10.284  19.503  0.00  0.00    +0.000 C 
BRANCH  16  17
ATOM     17  C   UNL     1      -0.372  10.481  18.796  0.00  0.00    +0.000 A 
ATOM     18  N   UNL     1      -1.453  11.072  19.271  0.00  0.00    +0.000 NA
ATOM     19  C   UNL     1      -2.377  11.027  18.258  0.00  0.00    +0.000 A 
ATOM     20  C   UNL     1      -3.691  11.513  18.230  0.00  0.00    +0.000 A 
ATOM     21  C   UNL     1      -4.454  11.321  17.072  0.00  0.00    +0.000 A 
ATOM     22  C   UNL     1      -3.912  10.671  15.961  0.00  0.00    +0.000 A 
ATOM     23  C   UNL     1      -2.594  10.192  15.966  0.00  0.00    +0.000 A 
ATOM     24  C   UNL     1      -1.859  10.386  17.138  0.00  0.00    +0.000 A 
ATOM     25  N   UNL     1      -0.581  10.042  17.506  0.00  0.00    +0.000 N 
ATOM     26  H   UNL     1       0.093   9.534  16.949  0.00  0.00    +0.000 HD
ENDBRANCH  16  17
ENDBRANCH   1  16
TORSDOF 3
ENDMDL
MODEL 8
REMARK VINA RESULT:      -8.0      3.405      8.462
REMARK  Name = 
REMARK  4 active torsions:
REMARK  status: ('A' for Active; 'I' for Inactive)
REMARK    1  A    between atoms: C_1  and  C_2
REMARK    2  A    between atoms: C_2  and  N_3
REMARK    3  A    between atoms: C_2  and  C_15
REMARK    4  A    between atoms: C_4  and  C_6
REMARK                            x       y       z     vdW  Elec       q    Type
REMARK                         _______ _______ _______ _____ _____    ______ ____
ROOT
ATOM      1  N   UNL     1       1.384   8.889  19.265  0.00  0.00    +0.000 N 
ATOM      2  C   UNL     1       2.225   8.714  18.188  0.00  0.00    +0.000 C 
ATOM      3  O   UNL     1       2.585   9.645  17.477  0.00  0.00    +0.000 OA
ATOM      4  H   UNL     1       1.038   8.099  19.788  0.00  0.00    +0.000 HD
ENDROOT
BRANCH   2   5
ATOM      5  C   UNL     1       2.699   7.324  17.910  0.00  0.00    +0.000 A 
ATOM      6  C   UNL     1       3.993   7.054  17.448  0.00  0.00    +0.000 A 
ATOM      7  C   UNL     1       4.435   5.739  17.256  0.00  0.00    +0.000 A 
ATOM      8  C   UNL     1       3.545   4.702  17.554  0.00  0.00    +0.000 A 
ATOM      9  N   UNL     1       3.720   3.334  17.495  0.00  0.00    +0.000 N 
ATOM     10  C   UNL     1       2.576   2.697  17.902  0.00  0.00    +0.000 A 
ATOM     11  C   UNL     1       1.643   3.660  18.213  0.00  0.00    +0.000 A 
ATOM     12  C   UNL     1       2.246   4.932  18.009  0.00  0.00    +0.000 A 
ATOM     13  C   UNL     1       1.816   6.263  18.183  0.00  0.00    +0.000 A 
ATOM     14  H   UNL     1       4.573   2.878  17.213  0.00  0.00    +0.000 HD
ENDBRANCH   2   5
BRANCH   1  16
ATOM     15  C   UNL     1       0.552  10.290  21.091  0.00  0.00    +0.000 C 
ATOM     16  C   UNL     1       0.821  10.190  19.591  0.00  0.00    +0.000 C 
BRANCH  16  17
ATOM     17  C   UNL     1      -0.444  10.375  18.806  0.00  0.00    +0.000 A 
ATOM     18  N   UNL     1      -1.540  10.995  19.200  0.00  0.00    +0.000 NA
ATOM     19  C   UNL     1      -2.409  10.924  18.140  0.00  0.00    +0.000 A 
ATOM     20  C   UNL     1      -3.712  11.424  18.022  0.00  0.00    +0.000 A 
ATOM     21  C   UNL     1      -4.414  11.198  16.832  0.00  0.00    +0.000 A 
ATOM     22  C   UNL     1      -3.822  10.500  15.777  0.00  0.00    +0.000 A 
ATOM     23  C   UNL     1      -2.513  10.007  15.871  0.00  0.00    +0.000 A 
ATOM     24  C   UNL     1      -1.839  10.236  17.075  0.00  0.00    +0.000 A 
ATOM     25  N   UNL     1      -0.589   9.891  17.524  0.00  0.00    +0.000 N 
ATOM     26  H   UNL     1       0.109   9.355  17.023  0.00  0.00    +0.000 HD
ENDBRANCH  16  17
ENDBRANCH   1  16
TORSDOF 3
ENDMDL
MODEL 9
REMARK VINA RESULT:      -8.0      4.357      6.460
REMARK  Name = 
REMARK  4 active torsions:
REMARK  status: ('A' for Active; 'I' for Inactive)
REMARK    1  A    between atoms: C_1  and  C_2
REMARK    2  A    between atoms: C_2  and  N_3
REMARK    3  A    between atoms: C_2  and  C_15
REMARK    4  A    between atoms: C_4  and  C_6
REMARK                            x       y       z     vdW  Elec       q    Type
REMARK                         _______ _______ _______ _____ _____    ______ ____
ROOT
ATOM      1  N   UNL     1       1.531   8.710  18.086  0.00  0.00    +0.000 N 
ATOM      2  C   UNL     1       0.904   9.526  19.002  0.00  0.00    +0.000 C 
ATOM      3  O   UNL     1       1.361   9.732  20.121  0.00  0.00    +0.000 OA
ATOM      4  H   UNL     1       1.098   8.493  17.201  0.00  0.00    +0.000 HD
ENDROOT
BRANCH   2   5
ATOM      5  C   UNL     1      -0.375  10.172  18.579  0.00  0.00    +0.000 A 
ATOM      6  C   UNL     1      -0.908  11.283  19.244  0.00  0.00    +0.000 A 
ATOM      7  C   UNL     1      -2.076  11.910  18.789  0.00  0.00    +0.000 A 
ATOM      8  C   UNL     1      -2.685  11.398  17.640  0.00  0.00    +0.000 A 
ATOM      9  N   UNL     1      -3.804  11.830  16.957  0.00  0.00    +0.000 N 
ATOM     10  C   UNL     1      -4.025  11.033  15.864  0.00  0.00    +0.000 A 
ATOM     11  C   UNL     1      -3.049  10.062  15.845  0.00  0.00    +0.000 A 
ATOM     12  C   UNL     1      -2.188  10.289  16.955  0.00  0.00    +0.000 A 
ATOM     13  C   UNL     1      -1.020   9.663  17.436  0.00  0.00    +0.000 A 
ATOM     14  H   UNL     1      -4.361  12.629  17.219  0.00  0.00    +0.000 HD
ENDBRANCH   2   5
BRANCH   1  16
ATOM     15  C   UNL     1       3.683   7.949  17.205  0.00  0.00    +0.000 C 
ATOM     16  C   UNL     1       2.751   7.991  18.415  0.00  0.00    +0.000 C 
BRANCH  16  17
ATOM     17  C   UNL     1       2.386   6.605  18.858  0.00  0.00    +0.000 A 
ATOM     18  N   UNL     1       2.180   6.193  20.095  0.00  0.00    +0.000 NA
ATOM     19  C   UNL     1       1.854   4.865  19.996  0.00  0.00    +0.000 A 
ATOM     20  C   UNL     1       1.538   3.948  21.006  0.00  0.00    +0.000 A 
ATOM     21  C   UNL     1       1.262   2.622  20.650  0.00  0.00    +0.000 A 
ATOM     22  C   UNL     1       1.289   2.224  19.311  0.00  0.00    +0.000 A 
ATOM     23  C   UNL     1       1.588   3.132  18.285  0.00  0.00    +0.000 A 
ATOM     24  C   UNL     1       1.871   4.445  18.670  0.00  0.00    +0.000 A 
ATOM     25  N   UNL     1       2.217   5.571  17.964  0.00  0.00    +0.000 N 
ATOM     26  H   UNL     1       2.353   5.639  16.963  0.00  0.00    +0.000 HD
ENDBRANCH  16  17
ENDBRANCH   1  16
TORSDOF 3
ENDMDL
