MODEL 1
REMARK VINA RESULT:      -8.5      0.000      0.000
REMARK  Name = 
REMARK  5 active torsions:
REMARK  status: ('A' for Active; 'I' for Inactive)
REMARK    1  A    between atoms: C_2  and  C_20
REMARK    2  A    between atoms: N_3  and  C_4
REMARK    3  A    between atoms: C_7  and  S_8
REMARK    4  A    between atoms: S_8  and  N_11
REMARK    5  A    between atoms: C_23  and  C_24
REMARK                            x       y       z     vdW  Elec       q    Type
REMARK                         _______ _______ _______ _____ _____    ______ ____
ROOT
ATOM      1  C   UNL     1       1.317   8.915  19.647  0.00  0.00    +0.000 A 
ATOM      2  C   UNL     1       0.490   9.912  19.118  0.00  0.00    +0.000 A 
ATOM      3  C   UNL     1      -0.283  10.721  19.951  0.00  0.00    +0.000 A 
ATOM      4  C   UNL     1      -0.262  10.516  21.329  0.00  0.00    +0.000 A 
ATOM      5  C   UNL     1       0.533   9.505  21.876  0.00  0.00    +0.000 A 
ATOM      6  C   UNL     1       1.310   8.697  21.032  0.00  0.00    +0.000 A 
ENDROOT
BRANCH   1   9
ATOM      7  O   UNL     1       2.045   6.094  19.997  0.00  0.00    +0.000 OA
ATOM      8  C   UNL     1       2.488   6.796  19.093  0.00  0.00    +0.000 C 
ATOM      9  N   UNL     1       2.179   8.124  18.848  0.00  0.00    +0.000 N 
ATOM     10  H   UNL     1       2.454   8.513  17.958  0.00  0.00    +0.000 HD
BRANCH   8  11
ATOM     11  C   UNL     1       3.404   6.140  18.126  0.00  0.00    +0.000 A 
ATOM     12  C   UNL     1       4.194   6.969  17.317  0.00  0.00    +0.000 A 
ATOM     13  C   UNL     1       4.994   6.426  16.314  0.00  0.00    +0.000 A 
ATOM     14  C   UNL     1       5.010   5.041  16.095  0.00  0.00    +0.000 A 
ATOM     15  C   UNL     1       4.225   4.213  16.918  0.00  0.00    +0.000 A 
ATOM     16  C   UNL     1       3.424   4.757  17.931  0.00  0.00    +0.000 A 
BRANCH  14  17
ATOM     17  C   UNL     1       5.833   4.446  14.975  0.00  0.00    +0.000 C 
ATOM     18  F   UNL     1       6.346   3.219  15.267  0.00  0.00    +0.000 F 
ATOM     19  F   UNL     1       5.114   4.289  13.830  0.00  0.00    +0.000 F 
ATOM     20  F   UNL     1       6.899   5.227  14.645  0.00  0.00    +0.000 F 
ENDBRANCH  14  17
ENDBRANCH   8  11
ENDBRANCH   1   9
BRANCH   4  21
ATOM     21  S   UNL     1      -1.112  11.666  22.383  0.00  0.00    +0.000 S 
ATOM     22  O   UNL     1      -1.748  10.883  23.427  0.00  0.00    +0.000 OA
ATOM     23  O   UNL     1      -0.188  12.722  22.734  0.00  0.00    +0.000 OA
BRANCH  21  24
ATOM     24  N   UNL     1      -2.365  12.251  21.438  0.00  0.00    +0.000 N 
ATOM     25  C   UNL     1      -3.258  13.054  22.141  0.00  0.00    +0.000 A 
ATOM     26  N   UNL     1      -2.952  14.347  22.268  0.00  0.00    +0.000 NA
ATOM     27  C   UNL     1      -3.793  15.060  23.039  0.00  0.00    +0.000 A 
ATOM     28  C   UNL     1      -4.869  14.509  23.696  0.00  0.00    +0.000 A 
ATOM     29  C   UNL     1      -5.069  13.163  23.490  0.00  0.00    +0.000 A 
ATOM     30  N   UNL     1      -4.290  12.412  22.690  0.00  0.00    +0.000 NA
ATOM     31  H   UNL     1      -2.838  11.468  21.001  0.00  0.00    +0.000 HD
ENDBRANCH  21  24
ENDBRANCH   4  21
TORSDOF 5
ENDMDL
MODEL 2
REMARK VINA RESULT:      -8.4      6.051     10.809
REMARK  Name = 
REMARK  5 active torsions:
REMARK  status: ('A' for Active; 'I' for Inactive)
REMARK    1  A    between atoms: C_2  and  C_20
REMARK    2  A    between atoms: N_3  and  C_4
REMARK    3  A    between atoms: C_7  and  S_8
REMARK    4  A    between atoms: S_8  and  N_11
REMARK    5  A    between atoms: C_23  and  C_24
REMARK                            x       y       z     vdW  Elec       q    Type
REMARK                         _______ _______ _______ _____ _____    ______ ____
ROOT
ATOM      1  C   UNL     1       1.276   8.588  19.626  0.00  0.00    +0.000 A 
ATOM      2  C   UNL     1       1.714   7.462  20.332  0.00  0.00    +0.000 A 
ATOM      3  C   UNL     1       2.720   6.641  19.821  0.00  0.00    +0.000 A 
ATOM      4  C   UNL     1       3.277   6.921  18.575  0.00  0.00    +0.000 A 
ATOM      5  C   UNL     1       2.832   8.023  17.840  0.00  0.00    +0.000 A 
ATOM      6  C   UNL     1       1.823   8.846  18.360  0.00  0.00    +0.000 A 
ENDROOT
BRANCH   1   9
ATOM      7  O   UNL     1       1.429  10.211  22.065  0.00  0.00    +0.000 OA
ATOM      8  C   UNL     1       0.458  10.213  21.316  0.00  0.00    +0.000 C 
ATOM      9  N   UNL     1       0.317   9.495  20.139  0.00  0.00    +0.000 N 
ATOM     10  H   UNL     1      -0.442   9.749  19.523  0.00  0.00    +0.000 HD
BRANCH   8  11
ATOM     11  C   UNL     1      -0.660  11.124  21.673  0.00  0.00    +0.000 A 
ATOM     12  C   UNL     1      -1.150  11.065  22.985  0.00  0.00    +0.000 A 
ATOM     13  C   UNL     1      -2.267  11.812  23.358  0.00  0.00    +0.000 A 
ATOM     14  C   UNL     1      -2.920  12.623  22.419  0.00  0.00    +0.000 A 
ATOM     15  C   UNL     1      -2.415  12.687  21.107  0.00  0.00    +0.000 A 
ATOM     16  C   UNL     1      -1.290  11.943  20.732  0.00  0.00    +0.000 A 
BRANCH  14  17
ATOM     17  C   UNL     1      -4.162  13.395  22.799  0.00  0.00    +0.000 C 
ATOM     18  F   UNL     1      -4.347  13.506  24.144  0.00  0.00    +0.000 F 
ATOM     19  F   UNL     1      -4.150  14.667  22.317  0.00  0.00    +0.000 F 
ATOM     20  F   UNL     1      -5.298  12.820  22.313  0.00  0.00    +0.000 F 
ENDBRANCH  14  17
ENDBRANCH   8  11
ENDBRANCH   1   9
BRANCH   4  21
ATOM     21  S   UNL     1       4.673   5.971  18.024  0.00  0.00    +0.000 S 
ATOM     22  O   UNL     1       5.527   6.878  17.280  0.00  0.00    +0.000 OA
ATOM     23  O   UNL     1       5.204   5.249  19.160  0.00  0.00    +0.000 OA
BRANCH  21  24
ATOM     24  N   UNL     1       4.040   4.919  16.885  0.00  0.00    +0.000 N 
ATOM     25  C   UNL     1       3.287   3.890  17.443  0.00  0.00    +0.000 A 
ATOM     26  N   UNL     1       2.002   4.141  17.703  0.00  0.00    +0.000 NA
ATOM     27  C   UNL     1       1.343   3.151  18.331  0.00  0.00    +0.000 A 
ATOM     28  C   UNL     1       1.940   1.976  18.729  0.00  0.00    +0.000 A 
ATOM     29  C   UNL     1       3.272   1.847  18.410  0.00  0.00    +0.000 A 
ATOM     30  N   UNL     1       3.968   2.782  17.738  0.00  0.00    +0.000 NA
ATOM     31  H   UNL     1       4.798   4.557  16.318  0.00  0.00    +0.000 HD
ENDBRANCH  21  24
ENDBRANCH   4  21
TORSDOF 5
ENDMDL
MODEL 3
REMARK VINA RESULT:      -8.3      6.117     10.796
REMARK  Name = 
REMARK  5 active torsions:
REMARK  status: ('A' for Active; 'I' for Inactive)
REMARK    1  A    between atoms: C_2  and  C_20
REMARK    2  A    between atoms: N_3  and  C_4
REMARK    3  A    between atoms: C_7  and  S_8
REMARK    4  A    between atoms: S_8  and  N_11
REMARK    5  A    between atoms: C_23  and  C_24
REMARK                            x       y       z     vdW  Elec       q    Type
REMARK                         _______ _______ _______ _____ _____    ______ ____
ROOT
ATOM      1  C   UNL     1       1.002   8.964  19.740  0.00  0.00    +0.000 A 
ATOM      2  C   UNL     1       1.567   9.129  18.470  0.00  0.00    +0.000 A 
ATOM      3  C   UNL     1       2.542   8.250  17.999  0.00  0.00    +0.000 A 
ATOM      4  C   UNL     1       2.989   7.210  18.812  0.00  0.00    +0.000 A 
ATOM      5  C   UNL     1       2.459   7.046  20.095  0.00  0.00    +0.000 A 
ATOM      6  C   UNL     1       1.477   7.933  20.562  0.00  0.00    +0.000 A 
ENDROOT
BRANCH   1   9
ATOM      7  O   UNL     1       1.175  11.230  21.595  0.00  0.00    +0.000 OA
ATOM      8  C   UNL     1       0.117  10.828  21.124  0.00  0.00    +0.000 C 
ATOM      9  N   UNL     1      -0.047   9.782  20.229  0.00  0.00    +0.000 N 
ATOM     10  H   UNL     1      -0.941   9.695  19.769  0.00  0.00    +0.000 HD
BRANCH   8  11
ATOM     11  C   UNL     1      -1.110  11.573  21.502  0.00  0.00    +0.000 A 
ATOM     12  C   UNL     1      -1.499  11.540  22.848  0.00  0.00    +0.000 A 
ATOM     13  C   UNL     1      -2.698  12.125  23.253  0.00  0.00    +0.000 A 
ATOM     14  C   UNL     1      -3.535  12.746  22.314  0.00  0.00    +0.000 A 
ATOM     15  C   UNL     1      -3.132  12.786  20.967  0.00  0.00    +0.000 A 
ATOM     16  C   UNL     1      -1.925  12.204  20.558  0.00  0.00    +0.000 A 
BRANCH  14  17
ATOM     17  C   UNL     1      -4.861  13.336  22.734  0.00  0.00    +0.000 C 
ATOM     18  F   UNL     1      -5.859  13.137  21.829  0.00  0.00    +0.000 F 
ATOM     19  F   UNL     1      -5.312  12.816  23.908  0.00  0.00    +0.000 F 
ATOM     20  F   UNL     1      -4.791  14.684  22.922  0.00  0.00    +0.000 F 
ENDBRANCH  14  17
ENDBRANCH   8  11
ENDBRANCH   1   9
BRANCH   4  21
ATOM     21  S   UNL     1       4.097   6.000  18.131  0.00  0.00    +0.000 S 
ATOM     22  O   UNL     1       4.956   6.701  17.196  0.00  0.00    +0.000 OA
ATOM     23  O   UNL     1       4.678   5.255  19.227  0.00  0.00    +0.000 OA
BRANCH  21  24
ATOM     24  N   UNL     1       3.117   5.020  17.191  0.00  0.00    +0.000 N 
ATOM     25  C   UNL     1       2.608   3.924  17.880  0.00  0.00    +0.000 A 
ATOM     26  N   UNL     1       1.489   4.108  18.584  0.00  0.00    +0.000 NA
ATOM     27  C   UNL     1       1.092   3.048  19.312  0.00  0.00    +0.000 A 
ATOM     28  C   UNL     1       1.796   1.867  19.378  0.00  0.00    +0.000 A 
ATOM     29  C   UNL     1       2.939   1.811  18.613  0.00  0.00    +0.000 A 
ATOM     30  N   UNL     1       3.356   2.821  17.828  0.00  0.00    +0.000 NA
ATOM     31  H   UNL     1       3.637   4.731  16.369  0.00  0.00    +0.000 HD
ENDBRANCH  21  24
ENDBRANCH   4  21
TORSDOF 5
ENDMDL
MODEL 4
REMARK VINA RESULT:      -8.3      0.431      1.103
REMARK  Name = 
REMARK  5 active torsions:
REMARK  status: ('A' for Active; 'I' for Inactive)
REMARK    1  A    between atoms: C_2  and  C_20
REMARK    2  A    between atoms: N_3  and  C_4
REMARK    3  A    between atoms: C_7  and  S_8
REMARK    4  A    between atoms: S_8  and  N_11
REMARK    5  A    between atoms: C_23  and  C_24
REMARK                            x       y       z     vdW  Elec       q    Type
REMARK                         _______ _______ _______ _____ _____    ______ ____
ROOT
ATOM      1  C   UNL     1       1.257   9.134  19.384  0.00  0.00    +0.000 A 
ATOM      2  C   UNL     1       0.621  10.292  18.926  0.00  0.00    +0.000 A 
ATOM      3  C   UNL     1      -0.141  11.082  19.789  0.00  0.00    +0.000 A 
ATOM      4  C   UNL     1      -0.302  10.698  21.118  0.00  0.00    +0.000 A 
ATOM      5  C   UNL     1       0.300   9.527  21.588  0.00  0.00    +0.000 A 
ATOM      6  C   UNL     1       1.066   8.740  20.716  0.00  0.00    +0.000 A 
ENDROOT
BRANCH   1   9
ATOM      7  O   UNL     1       2.240   6.412  19.870  0.00  0.00    +0.000 OA
ATOM      8  C   UNL     1       2.541   7.068  18.879  0.00  0.00    +0.000 C 
ATOM      9  N   UNL     1       2.104   8.346  18.566  0.00  0.00    +0.000 N 
ATOM     10  H   UNL     1       2.265   8.679  17.627  0.00  0.00    +0.000 HD
BRANCH   8  11
ATOM     11  C   UNL     1       3.416   6.405  17.879  0.00  0.00    +0.000 A 
ATOM     12  C   UNL     1       3.369   5.006  17.803  0.00  0.00    +0.000 A 
ATOM     13  C   UNL     1       4.240   4.313  16.964  0.00  0.00    +0.000 A 
ATOM     14  C   UNL     1       5.183   5.008  16.194  0.00  0.00    +0.000 A 
ATOM     15  C   UNL     1       5.216   6.413  16.265  0.00  0.00    +0.000 A 
ATOM     16  C   UNL     1       4.338   7.112  17.102  0.00  0.00    +0.000 A 
BRANCH  14  17
ATOM     17  C   UNL     1       6.167   4.263  15.322  0.00  0.00    +0.000 C 
ATOM     18  F   UNL     1       7.469   4.494  15.649  0.00  0.00    +0.000 F 
ATOM     19  F   UNL     1       5.999   2.914  15.386  0.00  0.00    +0.000 F 
ATOM     20  F   UNL     1       6.049   4.595  14.006  0.00  0.00    +0.000 F 
ENDBRANCH  14  17
ENDBRANCH   8  11
ENDBRANCH   1   9
BRANCH   4  21
ATOM     21  S   UNL     1      -1.124  11.803  22.240  0.00  0.00    +0.000 S 
ATOM     22  O   UNL     1      -1.607  10.995  23.343  0.00  0.00    +0.000 OA
ATOM     23  O   UNL     1      -0.242  12.922  22.496  0.00  0.00    +0.000 OA
BRANCH  21  24
ATOM     24  N   UNL     1      -2.494  12.295  21.413  0.00  0.00    +0.000 N 
ATOM     25  C   UNL     1      -3.346  13.086  22.177  0.00  0.00    +0.000 A 
ATOM     26  N   UNL     1      -3.091  14.395  22.225  0.00  0.00    +0.000 NA
ATOM     27  C   UNL     1      -3.880  15.101  23.054  0.00  0.00    +0.000 A 
ATOM     28  C   UNL     1      -4.855  14.531  23.841  0.00  0.00    +0.000 A 
ATOM     29  C   UNL     1      -5.010  13.170  23.706  0.00  0.00    +0.000 A 
ATOM     30  N   UNL     1      -4.284  12.422  22.855  0.00  0.00    +0.000 NA
ATOM     31  H   UNL     1      -2.973  11.474  21.056  0.00  0.00    +0.000 HD
ENDBRANCH  21  24
ENDBRANCH   4  21
TORSDOF 5
ENDMDL
MODEL 5
REMARK VINA RESULT:      -8.2      6.136     11.082
REMARK  Name = 
REMARK  5 active torsions:
REMARK  status: ('A' for Active; 'I' for Inactive)
REMARK    1  A    between atoms: C_2  and  C_20
REMARK    2  A    between atoms: N_3  and  C_4
REMARK    3  A    between atoms: C_7  and  S_8
REMARK    4  A    between atoms: S_8  and  N_11
REMARK    5  A    between atoms: C_23  and  C_24
REMARK                            x       y       z     vdW  Elec       q    Type
REMARK                         _______ _______ _______ _____ _____    ______ ____
ROOT
ATOM      1  C   UNL     1       1.710   7.108  20.371  0.00  0.00    +0.000 A 
ATOM      2  C   UNL     1       2.517   7.273  19.240  0.00  0.00    +0.000 A 
ATOM      3  C   UNL     1       3.164   6.184  18.655  0.00  0.00    +0.000 A 
ATOM      4  C   UNL     1       3.036   4.916  19.220  0.00  0.00    +0.000 A 
ATOM      5  C   UNL     1       2.260   4.736  20.367  0.00  0.00    +0.000 A 
ATOM      6  C   UNL     1       1.610   5.835  20.949  0.00  0.00    +0.000 A 
ENDROOT
BRANCH   1   9
ATOM      7  O   UNL     1       0.761   9.575  19.098  0.00  0.00    +0.000 OA
ATOM      8  C   UNL     1       0.575   9.316  20.283  0.00  0.00    +0.000 C 
ATOM      9  N   UNL     1       0.971   8.168  20.952  0.00  0.00    +0.000 N 
ATOM     10  H   UNL     1       0.574   7.997  21.864  0.00  0.00    +0.000 HD
BRANCH   8  11
ATOM     11  C   UNL     1      -0.206  10.303  21.069  0.00  0.00    +0.000 A 
ATOM     12  C   UNL     1      -0.448  10.011  22.419  0.00  0.00    +0.000 A 
ATOM     13  C   UNL     1      -1.265  10.839  23.187  0.00  0.00    +0.000 A 
ATOM     14  C   UNL     1      -1.864  11.970  22.613  0.00  0.00    +0.000 A 
ATOM     15  C   UNL     1      -1.607  12.264  21.262  0.00  0.00    +0.000 A 
ATOM     16  C   UNL     1      -0.782  11.437  20.490  0.00  0.00    +0.000 A 
BRANCH  14  17
ATOM     17  C   UNL     1      -2.794  12.844  23.423  0.00  0.00    +0.000 C 
ATOM     18  F   UNL     1      -2.151  13.803  24.145  0.00  0.00    +0.000 F 
ATOM     19  F   UNL     1      -3.695  13.503  22.644  0.00  0.00    +0.000 F 
ATOM     20  F   UNL     1      -3.527  12.129  24.321  0.00  0.00    +0.000 F 
ENDBRANCH  14  17
ENDBRANCH   8  11
ENDBRANCH   1   9
BRANCH   4  21
ATOM     21  S   UNL     1       3.719   3.519  18.362  0.00  0.00    +0.000 S 
ATOM     22  O   UNL     1       3.720   2.413  19.301  0.00  0.00    +0.000 OA
ATOM     23  O   UNL     1       3.032   3.389  17.095  0.00  0.00    +0.000 OA
BRANCH  21  24
ATOM     24  N   UNL     1       5.330   3.915  18.135  0.00  0.00    +0.000 N 
ATOM     25  C   UNL     1       5.616   4.346  16.843  0.00  0.00    +0.000 A 
ATOM     26  N   UNL     1       5.418   5.637  16.569  0.00  0.00    +0.000 NA
ATOM     27  C   UNL     1       5.613   5.983  15.284  0.00  0.00    +0.000 A 
ATOM     28  C   UNL     1       5.947   5.083  14.298  0.00  0.00    +0.000 A 
ATOM     29  C   UNL     1       6.111   3.780  14.711  0.00  0.00    +0.000 A 
ATOM     30  N   UNL     1       5.979   3.386  15.990  0.00  0.00    +0.000 NA
ATOM     31  H   UNL     1       5.902   3.118  18.394  0.00  0.00    +0.000 HD
ENDBRANCH  21  24
ENDBRANCH   4  21
TORSDOF 5
ENDMDL
MODEL 6
REMARK VINA RESULT:      -8.2      6.168     10.167
REMARK  Name = 
REMARK  5 active torsions:
REMARK  status: ('A' for Active; 'I' for Inactive)
REMARK    1  A    between atoms: C_2  and  C_20
REMARK    2  A    between atoms: N_3  and  C_4
REMARK    3  A    between atoms: C_7  and  S_8
REMARK    4  A    between atoms: S_8  and  N_11
REMARK    5  A    between atoms: C_23  and  C_24
REMARK                            x       y       z     vdW  Elec       q    Type
REMARK                         _______ _______ _______ _____ _____    ______ ____
ROOT
ATOM      1  C   UNL     1       2.274   7.651  18.159  0.00  0.00    +0.000 A 
ATOM      2  C   UNL     1       3.247   7.677  17.154  0.00  0.00    +0.000 A 
ATOM      3  C   UNL     1       4.407   6.907  17.257  0.00  0.00    +0.000 A 
ATOM      4  C   UNL     1       4.620   6.125  18.390  0.00  0.00    +0.000 A 
ATOM      5  C   UNL     1       3.675   6.109  19.419  0.00  0.00    +0.000 A 
ATOM      6  C   UNL     1       2.510   6.883  19.308  0.00  0.00    +0.000 A 
ENDROOT
BRANCH   1   9
ATOM      7  O   UNL     1       1.757  10.495  18.662  0.00  0.00    +0.000 OA
ATOM      8  C   UNL     1       0.881   9.700  18.337  0.00  0.00    +0.000 C 
ATOM      9  N   UNL     1       1.047   8.351  18.062  0.00  0.00    +0.000 N 
ATOM     10  H   UNL     1       0.284   7.868  17.609  0.00  0.00    +0.000 HD
BRANCH   8  11
ATOM     11  C   UNL     1      -0.487  10.248  18.160  0.00  0.00    +0.000 A 
ATOM     12  C   UNL     1      -0.895  11.267  19.031  0.00  0.00    +0.000 A 
ATOM     13  C   UNL     1      -2.202  11.751  18.993  0.00  0.00    +0.000 A 
ATOM     14  C   UNL     1      -3.128  11.215  18.087  0.00  0.00    +0.000 A 
ATOM     15  C   UNL     1      -2.709  10.201  17.206  0.00  0.00    +0.000 A 
ATOM     16  C   UNL     1      -1.395   9.717  17.239  0.00  0.00    +0.000 A 
BRANCH  14  17
ATOM     17  C   UNL     1      -4.561  11.695  18.074  0.00  0.00    +0.000 C 
ATOM     18  F   UNL     1      -4.845  12.594  19.056  0.00  0.00    +0.000 F 
ATOM     19  F   UNL     1      -4.893  12.303  16.902  0.00  0.00    +0.000 F 
ATOM     20  F   UNL     1      -5.450  10.676  18.233  0.00  0.00    +0.000 F 
ENDBRANCH  14  17
ENDBRANCH   8  11
ENDBRANCH   1   9
BRANCH   4  21
ATOM     21  S   UNL     1       6.011   5.020  18.423  0.00  0.00    +0.000 S 
ATOM     22  O   UNL     1       7.040   5.620  17.595  0.00  0.00    +0.000 OA
ATOM     23  O   UNL     1       6.294   4.694  19.804  0.00  0.00    +0.000 OA
BRANCH  21  24
ATOM     24  N   UNL     1       5.491   3.670  17.581  0.00  0.00    +0.000 N 
ATOM     25  C   UNL     1       4.175   3.314  17.865  0.00  0.00    +0.000 A 
ATOM     26  N   UNL     1       3.211   3.928  17.176  0.00  0.00    +0.000 NA
ATOM     27  C   UNL     1       1.957   3.624  17.556  0.00  0.00    +0.000 A 
ATOM     28  C   UNL     1       1.665   2.783  18.605  0.00  0.00    +0.000 A 
ATOM     29  C   UNL     1       2.750   2.223  19.240  0.00  0.00    +0.000 A 
ATOM     30  N   UNL     1       4.024   2.451  18.871  0.00  0.00    +0.000 NA
ATOM     31  H   UNL     1       6.128   2.903  17.766  0.00  0.00    +0.000 HD
ENDBRANCH  21  24
ENDBRANCH   4  21
TORSDOF 5
ENDMDL
MODEL 7
REMARK VINA RESULT:      -8.1      6.123     11.414
REMARK  Name = 
REMARK  5 active torsions:
REMARK  status: ('A' for Active; 'I' for Inactive)
REMARK    1  A    between atoms: C_2  and  C_20
REMARK    2  A    between atoms: N_3  and  C_4
REMARK    3  A    between atoms: C_7  and  S_8
REMARK    4  A    between atoms: S_8  and  N_11
REMARK    5  A    between atoms: C_23  and  C_24
REMARK                            x       y       z     vdW  Elec       q    Type
REMARK                         _______ _______ _______ _____ _____    ______ ____
ROOT
ATOM      1  C   UNL     1       0.714   9.066  20.092  0.00  0.00    +0.000 A 
ATOM      2  C   UNL     1       1.279   9.217  18.821  0.00  0.00    +0.000 A 
ATOM      3  C   UNL     1       2.219   8.304  18.340  0.00  0.00    +0.000 A 
ATOM      4  C   UNL     1       2.630   7.244  19.146  0.00  0.00    +0.000 A 
ATOM      5  C   UNL     1       2.101   7.094  20.431  0.00  0.00    +0.000 A 
ATOM      6  C   UNL     1       1.154   8.014  20.906  0.00  0.00    +0.000 A 
ENDROOT
BRANCH   1   9
ATOM      7  O   UNL     1       1.015  11.560  21.608  0.00  0.00    +0.000 OA
ATOM      8  C   UNL     1      -0.074  11.078  21.318  0.00  0.00    +0.000 C 
ATOM      9  N   UNL     1      -0.301   9.920  20.590  0.00  0.00    +0.000 N 
ATOM     10  H   UNL     1      -1.238   9.755  20.252  0.00  0.00    +0.000 HD
BRANCH   8  11
ATOM     11  C   UNL     1      -1.277  11.841  21.737  0.00  0.00    +0.000 A 
ATOM     12  C   UNL     1      -1.746  11.646  23.043  0.00  0.00    +0.000 A 
ATOM     13  C   UNL     1      -2.931  12.246  23.468  0.00  0.00    +0.000 A 
ATOM     14  C   UNL     1      -3.673  13.044  22.587  0.00  0.00    +0.000 A 
ATOM     15  C   UNL     1      -3.190  13.247  21.281  0.00  0.00    +0.000 A 
ATOM     16  C   UNL     1      -1.997  12.650  20.854  0.00  0.00    +0.000 A 
BRANCH  14  17
ATOM     17  C   UNL     1      -4.986  13.656  23.020  0.00  0.00    +0.000 C 
ATOM     18  F   UNL     1      -4.877  14.469  24.107  0.00  0.00    +0.000 F 
ATOM     19  F   UNL     1      -5.552  14.414  22.042  0.00  0.00    +0.000 F 
ATOM     20  F   UNL     1      -5.912  12.714  23.350  0.00  0.00    +0.000 F 
ENDBRANCH  14  17
ENDBRANCH   8  11
ENDBRANCH   1   9
BRANCH   4  21
ATOM     21  S   UNL     1       3.689   5.997  18.454  0.00  0.00    +0.000 S 
ATOM     22  O   UNL     1       4.409   5.399  19.563  0.00  0.00    +0.000 OA
ATOM     23  O   UNL     1       2.893   5.166  17.577  0.00  0.00    +0.000 OA
BRANCH  21  24
ATOM     24  N   UNL     1       4.837   6.858  17.589  0.00  0.00    +0.000 N 
ATOM     25  C   UNL     1       5.581   6.066  16.720  0.00  0.00    +0.000 A 
ATOM     26  N   UNL     1       5.068   5.830  15.511  0.00  0.00    +0.000 NA
ATOM     27  C   UNL     1       5.775   4.980  14.746  0.00  0.00    +0.000 A 
ATOM     28  C   UNL     1       6.922   4.350  15.173  0.00  0.00    +0.000 A 
ATOM     29  C   UNL     1       7.340   4.672  16.445  0.00  0.00    +0.000 A 
ATOM     30  N   UNL     1       6.700   5.553  17.235  0.00  0.00    +0.000 NA
ATOM     31  H   UNL     1       5.435   7.353  18.242  0.00  0.00    +0.000 HD
ENDBRANCH  21  24
ENDBRANCH   4  21
TORSDOF 5
ENDMDL
MODEL 8
REMARK VINA RESULT:      -8.1      2.243      3.122
REMARK  Name = 
REMARK  5 active torsions:
REMARK  status: ('A' for Active; 'I' for Inactive)
REMARK    1  A    between atoms: C_2  and  C_20
REMARK    2  A    between atoms: N_3  and  C_4
REMARK    3  A    between atoms: C_7  and  S_8
REMARK    4  A    between atoms: S_8  and  N_11
REMARK    5  A    between atoms: C_23  and  C_24
REMARK                            x       y       z     vdW  Elec       q    Type
REMARK                         _______ _______ _______ _____ _____    ______ ____
ROOT
ATOM      1  C   UNL     1       0.422   9.282  21.704  0.00  0.00    +0.000 A 
ATOM      2  C   UNL     1      -0.393   9.352  22.839  0.00  0.00    +0.000 A 
ATOM      3  C   UNL     1      -1.022  10.544  23.199  0.00  0.00    +0.000 A 
ATOM      4  C   UNL     1      -0.812  11.695  22.441  0.00  0.00    +0.000 A 
ATOM      5  C   UNL     1       0.023  11.654  21.322  0.00  0.00    +0.000 A 
ATOM      6  C   UNL     1       0.650  10.451  20.963  0.00  0.00    +0.000 A 
ENDROOT
BRANCH   1   9
ATOM      7  O   UNL     1       1.805   8.770  19.167  0.00  0.00    +0.000 OA
ATOM      8  C   UNL     1       1.637   7.911  20.026  0.00  0.00    +0.000 C 
ATOM      9  N   UNL     1       1.016   8.077  21.254  0.00  0.00    +0.000 N 
ATOM     10  H   UNL     1       1.130   7.345  21.940  0.00  0.00    +0.000 HD
BRANCH   8  11
ATOM     11  C   UNL     1       2.209   6.569  19.751  0.00  0.00    +0.000 A 
ATOM     12  C   UNL     1       2.944   6.408  18.568  0.00  0.00    +0.000 A 
ATOM     13  C   UNL     1       3.416   5.151  18.193  0.00  0.00    +0.000 A 
ATOM     14  C   UNL     1       3.152   4.030  18.992  0.00  0.00    +0.000 A 
ATOM     15  C   UNL     1       2.426   4.200  20.185  0.00  0.00    +0.000 A 
ATOM     16  C   UNL     1       1.955   5.463  20.567  0.00  0.00    +0.000 A 
BRANCH  14  17
ATOM     17  C   UNL     1       3.613   2.654  18.569  0.00  0.00    +0.000 C 
ATOM     18  F   UNL     1       4.203   2.630  17.341  0.00  0.00    +0.000 F 
ATOM     19  F   UNL     1       4.523   2.124  19.431  0.00  0.00    +0.000 F 
ATOM     20  F   UNL     1       2.588   1.760  18.507  0.00  0.00    +0.000 F 
ENDBRANCH  14  17
ENDBRANCH   8  11
ENDBRANCH   1   9
BRANCH   4  21
ATOM     21  S   UNL     1      -1.757  13.153  22.810  0.00  0.00    +0.000 S 
ATOM     22  O   UNL     1      -0.955  13.951  23.717  0.00  0.00    +0.000 OA
ATOM     23  O   UNL     1      -2.215  13.721  21.561  0.00  0.00    +0.000 OA
BRANCH  21  24
ATOM     24  N   UNL     1      -3.044  12.595  23.725  0.00  0.00    +0.000 N 
ATOM     25  C   UNL     1      -4.274  13.097  23.311  0.00  0.00    +0.000 A 
ATOM     26  N   UNL     1      -4.898  12.456  22.321  0.00  0.00    +0.000 NA
ATOM     27  C   UNL     1      -6.032  13.036  21.890  0.00  0.00    +0.000 A 
ATOM     28  C   UNL     1      -6.510  14.228  22.386  0.00  0.00    +0.000 A 
ATOM     29  C   UNL     1      -5.768  14.793  23.399  0.00  0.00    +0.000 A 
ATOM     30  N   UNL     1      -4.654  14.231  23.903  0.00  0.00    +0.000 NA
ATOM     31  H   UNL     1      -2.868  12.807  24.701  0.00  0.00    +0.000 HD
ENDBRANCH  21  24
ENDBRANCH   4  21
TORSDOF 5
ENDMDL
MODEL 9
REMARK VINA RESULT:      -8.1      1.500      1.896
REMARK  Name = 
REMARK  5 active torsions:
REMARK  status: ('A' for Active; 'I' for Inactive)
REMARK    1  A    between atoms: C_2  and  C_20
REMARK    2  A    between atoms: N_3  and  C_4
REMARK    3  A    between atoms: C_7  and  S_8
REMARK    4  A    between atoms: S_8  and  N_11
REMARK    5  A    between atoms: C_23  and  C_24
REMARK                            x       y       z     vdW  Elec       q    Type
REMARK                         _______ _______ _______ _____ _____    ______ ____
ROOT
ATOM      1  C   UNL     1       0.641   9.351  20.441  0.00  0.00    +0.000 A 
ATOM      2  C   UNL     1      -0.132  10.257  19.706  0.00  0.00    +0.000 A 
ATOM      3  C   UNL     1      -0.838  11.279  20.343  0.00  0.00    +0.000 A 
ATOM      4  C   UNL     1      -0.804  11.384  21.732  0.00  0.00    +0.000 A 
ATOM      5  C   UNL     1      -0.062  10.471  22.486  0.00  0.00    +0.000 A 
ATOM      6  C   UNL     1       0.647   9.447  21.839  0.00  0.00    +0.000 A 
ENDROOT
BRANCH   1   9
ATOM      7  O   UNL     1       2.081   9.469  17.887  0.00  0.00    +0.000 OA
ATOM      8  C   UNL     1       2.073   8.477  18.608  0.00  0.00    +0.000 C 
ATOM      9  N   UNL     1       1.438   8.349  19.834  0.00  0.00    +0.000 N 
ATOM     10  H   UNL     1       1.684   7.557  20.409  0.00  0.00    +0.000 HD
BRANCH   8  11
ATOM     11  C   UNL     1       2.873   7.313  18.153  0.00  0.00    +0.000 A 
ATOM     12  C   UNL     1       3.962   7.565  17.307  0.00  0.00    +0.000 A 
ATOM     13  C   UNL     1       4.689   6.511  16.756  0.00  0.00    +0.000 A 
ATOM     14  C   UNL     1       4.332   5.184  17.033  0.00  0.00    +0.000 A 
ATOM     15  C   UNL     1       3.247   4.938  17.894  0.00  0.00    +0.000 A 
ATOM     16  C   UNL     1       2.518   5.995  18.454  0.00  0.00    +0.000 A 
BRANCH  14  17
ATOM     17  C   UNL     1       5.081   4.035  16.399  0.00  0.00    +0.000 C 
ATOM     18  F   UNL     1       6.407   4.011  16.706  0.00  0.00    +0.000 F 
ATOM     19  F   UNL     1       4.587   2.824  16.775  0.00  0.00    +0.000 F 
ATOM     20  F   UNL     1       5.014   4.062  15.038  0.00  0.00    +0.000 F 
ENDBRANCH  14  17
ENDBRANCH   8  11
ENDBRANCH   1   9
BRANCH   4  21
ATOM     21  S   UNL     1      -1.560  12.792  22.507  0.00  0.00    +0.000 S 
ATOM     22  O   UNL     1      -0.602  13.304  23.468  0.00  0.00    +0.000 OA
ATOM     23  O   UNL     1      -2.073  13.657  21.468  0.00  0.00    +0.000 OA
BRANCH  21  24
ATOM     24  N   UNL     1      -2.807  12.145  23.421  0.00  0.00    +0.000 N 
ATOM     25  C   UNL     1      -4.024  12.791  23.229  0.00  0.00    +0.000 A 
ATOM     26  N   UNL     1      -4.775  12.393  22.200  0.00  0.00    +0.000 NA
ATOM     27  C   UNL     1      -5.893  13.112  21.997  0.00  0.00    +0.000 A 
ATOM     28  C   UNL     1      -6.235  14.211  22.752  0.00  0.00    +0.000 A 
ATOM     29  C   UNL     1      -5.370  14.523  23.777  0.00  0.00    +0.000 A 
ATOM     30  N   UNL     1      -4.265  13.809  24.057  0.00  0.00    +0.000 NA
ATOM     31  H   UNL     1      -2.534  12.153  24.397  0.00  0.00    +0.000 HD
ENDBRANCH  21  24
ENDBRANCH   4  21
TORSDOF 5
ENDMDL
