MODEL 1
REMARK VINA RESULT:      -8.7      0.000      0.000
REMARK  Name = 
REMARK  4 active torsions:
REMARK  status: ('A' for Active; 'I' for Inactive)
REMARK    1  A    between atoms: C_2  and  C_15
REMARK    2  A    between atoms: N_3  and  C_4
REMARK    3  A    between atoms: C_8  and  C_9
REMARK    4  A    between atoms: N_18  and  C_19
REMARK                            x       y       z     vdW  Elec       q    Type
REMARK                         _______ _______ _______ _____ _____    ______ ____
ROOT
ATOM      1  O   UNL     1       2.779   5.557  18.146  0.00  0.00    +0.000 OA
ATOM      2  C   UNL     1       3.229   6.702  18.196  0.00  0.00    +0.000 C 
ATOM      3  N   UNL     1       4.544   7.062  17.959  0.00  0.00    +0.000 N 
ATOM      4  H   UNL     1       4.768   8.032  18.165  0.00  0.00    +0.000 HD
ENDROOT
BRANCH   3   5
ATOM      5  C   UNL     1       5.577   6.189  17.550  0.00  0.00    +0.000 A 
ATOM      6  C   UNL     1       6.453   5.586  18.460  0.00  0.00    +0.000 A 
ATOM      7  C   UNL     1       7.468   4.735  18.030  0.00  0.00    +0.000 A 
ATOM      8  C   UNL     1       7.605   4.453  16.677  0.00  0.00    +0.000 A 
ATOM      9  C   UNL     1       6.718   5.009  15.744  0.00  0.00    +0.000 A 
ATOM     10  C   UNL     1       5.715   5.893  16.188  0.00  0.00    +0.000 A 
BRANCH   9  11
ATOM     11  C   UNL     1       6.815   4.641  14.337  0.00  0.00    +0.000 A 
ATOM     12  N   UNL     1       7.482   5.247  13.374  0.00  0.00    +0.000 NA
ATOM     13  N   UNL     1       7.253   4.568  12.195  0.00  0.00    +0.000 NA
ATOM     14  C   UNL     1       6.436   3.580  12.457  0.00  0.00    +0.000 A 
ATOM     15  N   UNL     1       6.140   3.581  13.783  0.00  0.00    +0.000 N 
ATOM     16  H   UNL     1       5.511   2.959  14.266  0.00  0.00    +0.000 HD
ENDBRANCH   9  11
ENDBRANCH   3   5
BRANCH   2  17
ATOM     17  C   UNL     1       2.339   7.810  18.570  0.00  0.00    +0.000 A 
ATOM     18  C   UNL     1       1.948   8.841  17.685  0.00  0.00    +0.000 A 
ATOM     19  C   UNL     1       1.141   9.661  18.423  0.00  0.00    +0.000 A 
ATOM     20  N   UNL     1       1.095   9.147  19.699  0.00  0.00    +0.000 N 
ATOM     21  N   UNL     1       1.799   7.977  19.793  0.00  0.00    +0.000 NA
BRANCH  20  22
ATOM     22  C   UNL     1       0.417   9.710  20.817  0.00  0.00    +0.000 A 
ATOM     23  C   UNL     1      -0.261  10.935  20.698  0.00  0.00    +0.000 A 
ATOM     24  C   UNL     1      -0.943  11.472  21.790  0.00  0.00    +0.000 A 
ATOM     25  C   UNL     1      -0.948  10.798  23.008  0.00  0.00    +0.000 A 
ATOM     26  C   UNL     1      -0.265   9.590  23.139  0.00  0.00    +0.000 A 
ATOM     27  C   UNL     1       0.419   9.044  22.049  0.00  0.00    +0.000 A 
ENDBRANCH  20  22
ENDBRANCH   2  17
TORSDOF 4
ENDMDL
MODEL 2
REMARK VINA RESULT:      -8.5      0.363      1.030
REMARK  Name = 
REMARK  4 active torsions:
REMARK  status: ('A' for Active; 'I' for Inactive)
REMARK    1  A    between atoms: C_2  and  C_15
REMARK    2  A    between atoms: N_3  and  C_4
REMARK    3  A    between atoms: C_8  and  C_9
REMARK    4  A    between atoms: N_18  and  C_19
REMARK                            x       y       z     vdW  Elec       q    Type
REMARK                         _______ _______ _______ _____ _____    ______ ____
ROOT
ATOM      1  O   UNL     1       3.231   5.674  19.312  0.00  0.00    +0.000 OA
ATOM      2  C   UNL     1       3.357   6.730  18.691  0.00  0.00    +0.000 C 
ATOM      3  N   UNL     1       4.391   7.036  17.824  0.00  0.00    +0.000 N 
ATOM      4  H   UNL     1       4.404   7.998  17.494  0.00  0.00    +0.000 HD
ENDROOT
BRANCH   3   5
ATOM      5  C   UNL     1       5.437   6.165  17.448  0.00  0.00    +0.000 A 
ATOM      6  C   UNL     1       6.277   5.553  18.387  0.00  0.00    +0.000 A 
ATOM      7  C   UNL     1       7.307   4.703  17.990  0.00  0.00    +0.000 A 
ATOM      8  C   UNL     1       7.495   4.432  16.641  0.00  0.00    +0.000 A 
ATOM      9  C   UNL     1       6.646   4.997  15.679  0.00  0.00    +0.000 A 
ATOM     10  C   UNL     1       5.628   5.879  16.090  0.00  0.00    +0.000 A 
BRANCH   9  11
ATOM     11  C   UNL     1       6.797   4.640  14.273  0.00  0.00    +0.000 A 
ATOM     12  N   UNL     1       7.461   5.280  13.331  0.00  0.00    +0.000 NA
ATOM     13  N   UNL     1       7.295   4.597  12.143  0.00  0.00    +0.000 NA
ATOM     14  C   UNL     1       6.516   3.572  12.380  0.00  0.00    +0.000 A 
ATOM     15  N   UNL     1       6.185   3.553  13.698  0.00  0.00    +0.000 N 
ATOM     16  H   UNL     1       5.572   2.902  14.161  0.00  0.00    +0.000 HD
ENDBRANCH   9  11
ENDBRANCH   3   5
BRANCH   2  17
ATOM     17  C   UNL     1       2.369   7.800  18.882  0.00  0.00    +0.000 A 
ATOM     18  C   UNL     1       1.909   8.645  17.846  0.00  0.00    +0.000 A 
ATOM     19  C   UNL     1       1.020   9.495  18.442  0.00  0.00    +0.000 A 
ATOM     20  N   UNL     1       0.992   9.181  19.781  0.00  0.00    +0.000 N 
ATOM     21  N   UNL     1       1.791   8.106  20.061  0.00  0.00    +0.000 NA
BRANCH  20  22
ATOM     22  C   UNL     1       0.245   9.848  20.793  0.00  0.00    +0.000 A 
ATOM     23  C   UNL     1       0.150   9.304  22.085  0.00  0.00    +0.000 A 
ATOM     24  C   UNL     1      -0.565   9.971  23.080  0.00  0.00    +0.000 A 
ATOM     25  C   UNL     1      -1.197  11.179  22.794  0.00  0.00    +0.000 A 
ATOM     26  C   UNL     1      -1.121  11.717  21.509  0.00  0.00    +0.000 A 
ATOM     27  C   UNL     1      -0.405  11.056  20.508  0.00  0.00    +0.000 A 
ENDBRANCH  20  22
ENDBRANCH   2  17
TORSDOF 4
ENDMDL
MODEL 3
REMARK VINA RESULT:      -7.8      2.984      9.553
REMARK  Name = 
REMARK  4 active torsions:
REMARK  status: ('A' for Active; 'I' for Inactive)
REMARK    1  A    between atoms: C_2  and  C_15
REMARK    2  A    between atoms: N_3  and  C_4
REMARK    3  A    between atoms: C_8  and  C_9
REMARK    4  A    between atoms: N_18  and  C_19
REMARK                            x       y       z     vdW  Elec       q    Type
REMARK                         _______ _______ _______ _____ _____    ______ ____
ROOT
ATOM      1  O   UNL     1       1.950   9.778  17.456  0.00  0.00    +0.000 OA
ATOM      2  C   UNL     1       1.805   9.023  18.417  0.00  0.00    +0.000 C 
ATOM      3  N   UNL     1       0.970   9.245  19.498  0.00  0.00    +0.000 N 
ATOM      4  H   UNL     1       1.067   8.579  20.260  0.00  0.00    +0.000 HD
ENDROOT
BRANCH   3   5
ATOM      5  C   UNL     1       0.090  10.340  19.648  0.00  0.00    +0.000 A 
ATOM      6  C   UNL     1       0.357  11.403  20.519  0.00  0.00    +0.000 A 
ATOM      7  C   UNL     1      -0.531  12.467  20.654  0.00  0.00    +0.000 A 
ATOM      8  C   UNL     1      -1.694  12.495  19.896  0.00  0.00    +0.000 A 
ATOM      9  C   UNL     1      -1.972  11.466  18.986  0.00  0.00    +0.000 A 
ATOM     10  C   UNL     1      -1.081  10.379  18.880  0.00  0.00    +0.000 A 
BRANCH   9  11
ATOM     11  C   UNL     1      -3.152  11.544  18.133  0.00  0.00    +0.000 A 
ATOM     12  N   UNL     1      -4.409  11.732  18.486  0.00  0.00    +0.000 NA
ATOM     13  N   UNL     1      -5.188  11.696  17.347  0.00  0.00    +0.000 NA
ATOM     14  C   UNL     1      -4.397  11.463  16.331  0.00  0.00    +0.000 A 
ATOM     15  N   UNL     1      -3.115  11.367  16.771  0.00  0.00    +0.000 N 
ATOM     16  H   UNL     1      -2.297  11.160  16.221  0.00  0.00    +0.000 HD
ENDBRANCH   9  11
ENDBRANCH   3   5
BRANCH   2  17
ATOM     17  C   UNL     1       2.591   7.784  18.484  0.00  0.00    +0.000 A 
ATOM     18  C   UNL     1       2.450   6.813  19.503  0.00  0.00    +0.000 A 
ATOM     19  C   UNL     1       3.361   5.840  19.201  0.00  0.00    +0.000 A 
ATOM     20  N   UNL     1       4.034   6.247  18.072  0.00  0.00    +0.000 N 
ATOM     21  N   UNL     1       3.538   7.430  17.593  0.00  0.00    +0.000 NA
BRANCH  20  22
ATOM     22  C   UNL     1       5.109   5.568  17.434  0.00  0.00    +0.000 A 
ATOM     23  C   UNL     1       4.948   5.026  16.147  0.00  0.00    +0.000 A 
ATOM     24  C   UNL     1       6.012   4.380  15.516  0.00  0.00    +0.000 A 
ATOM     25  C   UNL     1       7.239   4.262  16.164  0.00  0.00    +0.000 A 
ATOM     26  C   UNL     1       7.402   4.783  17.448  0.00  0.00    +0.000 A 
ATOM     27  C   UNL     1       6.342   5.434  18.086  0.00  0.00    +0.000 A 
ENDBRANCH  20  22
ENDBRANCH   2  17
TORSDOF 4
ENDMDL
MODEL 4
REMARK VINA RESULT:      -7.8      3.152      9.308
REMARK  Name = 
REMARK  4 active torsions:
REMARK  status: ('A' for Active; 'I' for Inactive)
REMARK    1  A    between atoms: C_2  and  C_15
REMARK    2  A    between atoms: N_3  and  C_4
REMARK    3  A    between atoms: C_8  and  C_9
REMARK    4  A    between atoms: N_18  and  C_19
REMARK                            x       y       z     vdW  Elec       q    Type
REMARK                         _______ _______ _______ _____ _____    ______ ____
ROOT
ATOM      1  O   UNL     1       1.301   8.494  20.766  0.00  0.00    +0.000 OA
ATOM      2  C   UNL     1       1.703   8.275  19.624  0.00  0.00    +0.000 C 
ATOM      3  N   UNL     1       1.460   9.070  18.517  0.00  0.00    +0.000 N 
ATOM      4  H   UNL     1       1.762   8.677  17.630  0.00  0.00    +0.000 HD
ENDROOT
BRANCH   3   5
ATOM      5  C   UNL     1       0.770  10.304  18.524  0.00  0.00    +0.000 A 
ATOM      6  C   UNL     1       1.411  11.520  18.793  0.00  0.00    +0.000 A 
ATOM      7  C   UNL     1       0.706  12.721  18.801  0.00  0.00    +0.000 A 
ATOM      8  C   UNL     1      -0.652  12.725  18.515  0.00  0.00    +0.000 A 
ATOM      9  C   UNL     1      -1.315  11.530  18.202  0.00  0.00    +0.000 A 
ATOM     10  C   UNL     1      -0.598  10.317  18.227  0.00  0.00    +0.000 A 
BRANCH   9  11
ATOM     11  C   UNL     1      -2.722  11.554  17.820  0.00  0.00    +0.000 A 
ATOM     12  N   UNL     1      -3.784  11.620  18.599  0.00  0.00    +0.000 NA
ATOM     13  N   UNL     1      -4.909  11.576  17.802  0.00  0.00    +0.000 NA
ATOM     14  C   UNL     1      -4.513  11.461  16.559  0.00  0.00    +0.000 A 
ATOM     15  N   UNL     1      -3.155  11.449  16.520  0.00  0.00    +0.000 N 
ATOM     16  H   UNL     1      -2.571  11.337  15.707  0.00  0.00    +0.000 HD
ENDBRANCH   9  11
ENDBRANCH   3   5
BRANCH   2  17
ATOM     17  C   UNL     1       2.483   7.060  19.354  0.00  0.00    +0.000 A 
ATOM     18  C   UNL     1       2.341   5.854  20.078  0.00  0.00    +0.000 A 
ATOM     19  C   UNL     1       3.246   4.992  19.524  0.00  0.00    +0.000 A 
ATOM     20  N   UNL     1       3.916   5.683  18.540  0.00  0.00    +0.000 N 
ATOM     21  N   UNL     1       3.425   6.952  18.396  0.00  0.00    +0.000 NA
BRANCH  20  22
ATOM     22  C   UNL     1       4.986   5.194  17.738  0.00  0.00    +0.000 A 
ATOM     23  C   UNL     1       4.748   4.745  16.428  0.00  0.00    +0.000 A 
ATOM     24  C   UNL     1       5.803   4.287  15.638  0.00  0.00    +0.000 A 
ATOM     25  C   UNL     1       7.099   4.265  16.149  0.00  0.00    +0.000 A 
ATOM     26  C   UNL     1       7.340   4.694  17.454  0.00  0.00    +0.000 A 
ATOM     27  C   UNL     1       6.289   5.157  18.251  0.00  0.00    +0.000 A 
ENDBRANCH  20  22
ENDBRANCH   2  17
TORSDOF 4
ENDMDL
MODEL 5
REMARK VINA RESULT:      -7.8      3.858      9.165
REMARK  Name = 
REMARK  4 active torsions:
REMARK  status: ('A' for Active; 'I' for Inactive)
REMARK    1  A    between atoms: C_2  and  C_15
REMARK    2  A    between atoms: N_3  and  C_4
REMARK    3  A    between atoms: C_8  and  C_9
REMARK    4  A    between atoms: N_18  and  C_19
REMARK                            x       y       z     vdW  Elec       q    Type
REMARK                         _______ _______ _______ _____ _____    ______ ____
ROOT
ATOM      1  O   UNL     1       2.136   9.900  17.466  0.00  0.00    +0.000 OA
ATOM      2  C   UNL     1       1.819   9.132  18.373  0.00  0.00    +0.000 C 
ATOM      3  N   UNL     1       0.877   9.387  19.355  0.00  0.00    +0.000 N 
ATOM      4  H   UNL     1       0.831   8.694  20.097  0.00  0.00    +0.000 HD
ENDROOT
BRANCH   3   5
ATOM      5  C   UNL     1       0.068  10.543  19.440  0.00  0.00    +0.000 A 
ATOM      6  C   UNL     1       0.495  11.711  20.082  0.00  0.00    +0.000 A 
ATOM      7  C   UNL     1      -0.324  12.834  20.159  0.00  0.00    +0.000 A 
ATOM      8  C   UNL     1      -1.581  12.812  19.568  0.00  0.00    +0.000 A 
ATOM      9  C   UNL     1      -2.022  11.672  18.883  0.00  0.00    +0.000 A 
ATOM     10  C   UNL     1      -1.196  10.531  18.838  0.00  0.00    +0.000 A 
BRANCH   9  11
ATOM     11  C   UNL     1      -3.306  11.687  18.193  0.00  0.00    +0.000 A 
ATOM     12  N   UNL     1      -3.607  11.194  17.007  0.00  0.00    +0.000 NA
ATOM     13  N   UNL     1      -4.933  11.474  16.745  0.00  0.00    +0.000 NA
ATOM     14  C   UNL     1      -5.406  12.148  17.762  0.00  0.00    +0.000 A 
ATOM     15  N   UNL     1      -4.429  12.300  18.695  0.00  0.00    +0.000 N 
ATOM     16  H   UNL     1      -4.492  12.804  19.564  0.00  0.00    +0.000 HD
ENDBRANCH   9  11
ENDBRANCH   3   5
BRANCH   2  17
ATOM     17  C   UNL     1       2.498   7.834  18.487  0.00  0.00    +0.000 A 
ATOM     18  C   UNL     1       3.500   7.385  17.597  0.00  0.00    +0.000 A 
ATOM     19  C   UNL     1       3.851   6.143  18.046  0.00  0.00    +0.000 A 
ATOM     20  N   UNL     1       3.057   5.864  19.134  0.00  0.00    +0.000 N 
ATOM     21  N   UNL     1       2.243   6.919  19.444  0.00  0.00    +0.000 NA
BRANCH  20  22
ATOM     22  C   UNL     1       3.042   4.655  19.886  0.00  0.00    +0.000 A 
ATOM     23  C   UNL     1       2.111   4.471  20.922  0.00  0.00    +0.000 A 
ATOM     24  C   UNL     1       2.084   3.275  21.642  0.00  0.00    +0.000 A 
ATOM     25  C   UNL     1       2.989   2.260  21.340  0.00  0.00    +0.000 A 
ATOM     26  C   UNL     1       3.926   2.442  20.324  0.00  0.00    +0.000 A 
ATOM     27  C   UNL     1       3.957   3.635  19.596  0.00  0.00    +0.000 A 
ENDBRANCH  20  22
ENDBRANCH   2  17
TORSDOF 4
ENDMDL
MODEL 6
REMARK VINA RESULT:      -7.8      2.534      4.121
REMARK  Name = 
REMARK  4 active torsions:
REMARK  status: ('A' for Active; 'I' for Inactive)
REMARK    1  A    between atoms: C_2  and  C_15
REMARK    2  A    between atoms: N_3  and  C_4
REMARK    3  A    between atoms: C_8  and  C_9
REMARK    4  A    between atoms: N_18  and  C_19
REMARK                            x       y       z     vdW  Elec       q    Type
REMARK                         _______ _______ _______ _____ _____    ______ ____
ROOT
ATOM      1  O   UNL     1       2.114   8.122  19.016  0.00  0.00    +0.000 OA
ATOM      2  C   UNL     1       1.686   7.803  20.125  0.00  0.00    +0.000 C 
ATOM      3  N   UNL     1       1.736   6.534  20.674  0.00  0.00    +0.000 N 
ATOM      4  H   UNL     1       1.226   6.422  21.546  0.00  0.00    +0.000 HD
ENDROOT
BRANCH   3   5
ATOM      5  C   UNL     1       2.349   5.405  20.085  0.00  0.00    +0.000 A 
ATOM      6  C   UNL     1       1.650   4.217  19.835  0.00  0.00    +0.000 A 
ATOM      7  C   UNL     1       2.280   3.116  19.261  0.00  0.00    +0.000 A 
ATOM      8  C   UNL     1       3.619   3.197  18.903  0.00  0.00    +0.000 A 
ATOM      9  C   UNL     1       4.336   4.384  19.103  0.00  0.00    +0.000 A 
ATOM     10  C   UNL     1       3.697   5.481  19.714  0.00  0.00    +0.000 A 
BRANCH   9  11
ATOM     11  C   UNL     1       5.717   4.489  18.647  0.00  0.00    +0.000 A 
ATOM     12  N   UNL     1       6.788   4.818  19.343  0.00  0.00    +0.000 NA
ATOM     13  N   UNL     1       7.873   4.825  18.489  0.00  0.00    +0.000 NA
ATOM     14  C   UNL     1       7.439   4.524  17.292  0.00  0.00    +0.000 A 
ATOM     15  N   UNL     1       6.100   4.299  17.341  0.00  0.00    +0.000 N 
ATOM     16  H   UNL     1       5.490   4.083  16.569  0.00  0.00    +0.000 HD
ENDBRANCH   9  11
ENDBRANCH   3   5
BRANCH   2  17
ATOM     17  C   UNL     1       1.026   8.815  20.962  0.00  0.00    +0.000 A 
ATOM     18  C   UNL     1       1.162   8.890  22.367  0.00  0.00    +0.000 A 
ATOM     19  C   UNL     1       0.389   9.950  22.748  0.00  0.00    +0.000 A 
ATOM     20  N   UNL     1      -0.206  10.450  21.612  0.00  0.00    +0.000 N 
ATOM     21  N   UNL     1       0.213   9.782  20.493  0.00  0.00    +0.000 NA
BRANCH  20  22
ATOM     22  C   UNL     1      -1.139  11.523  21.544  0.00  0.00    +0.000 A 
ATOM     23  C   UNL     1      -1.662  11.936  20.307  0.00  0.00    +0.000 A 
ATOM     24  C   UNL     1      -2.593  12.973  20.247  0.00  0.00    +0.000 A 
ATOM     25  C   UNL     1      -3.002  13.611  21.416  0.00  0.00    +0.000 A 
ATOM     26  C   UNL     1      -2.475  13.218  22.646  0.00  0.00    +0.000 A 
ATOM     27  C   UNL     1      -1.544  12.177  22.714  0.00  0.00    +0.000 A 
ENDBRANCH  20  22
ENDBRANCH   2  17
TORSDOF 4
ENDMDL
MODEL 7
REMARK VINA RESULT:      -7.8      3.822      9.120
REMARK  Name = 
REMARK  4 active torsions:
REMARK  status: ('A' for Active; 'I' for Inactive)
REMARK    1  A    between atoms: C_2  and  C_15
REMARK    2  A    between atoms: N_3  and  C_4
REMARK    3  A    between atoms: C_8  and  C_9
REMARK    4  A    between atoms: N_18  and  C_19
REMARK                            x       y       z     vdW  Elec       q    Type
REMARK                         _______ _______ _______ _____ _____    ______ ____
ROOT
ATOM      1  O   UNL     1       1.972   9.691  17.313  0.00  0.00    +0.000 OA
ATOM      2  C   UNL     1       1.832   9.030  18.342  0.00  0.00    +0.000 C 
ATOM      3  N   UNL     1       1.087   9.405  19.446  0.00  0.00    +0.000 N 
ATOM      4  H   UNL     1       1.181   8.796  20.255  0.00  0.00    +0.000 HD
ENDROOT
BRANCH   3   5
ATOM      5  C   UNL     1       0.305  10.576  19.554  0.00  0.00    +0.000 A 
ATOM      6  C   UNL     1       0.773  11.735  20.185  0.00  0.00    +0.000 A 
ATOM      7  C   UNL     1      -0.021  12.875  20.284  0.00  0.00    +0.000 A 
ATOM      8  C   UNL     1      -1.293  12.879  19.728  0.00  0.00    +0.000 A 
ATOM      9  C   UNL     1      -1.776  11.749  19.054  0.00  0.00    +0.000 A 
ATOM     10  C   UNL     1      -0.975  10.592  18.987  0.00  0.00    +0.000 A 
BRANCH   9  11
ATOM     11  C   UNL     1      -3.078  11.791  18.399  0.00  0.00    +0.000 A 
ATOM     12  N   UNL     1      -4.270  11.921  18.948  0.00  0.00    +0.000 NA
ATOM     13  N   UNL     1      -5.216  11.868  17.946  0.00  0.00    +0.000 NA
ATOM     14  C   UNL     1      -4.587  11.685  16.813  0.00  0.00    +0.000 A 
ATOM     15  N   UNL     1      -3.249  11.636  17.044  0.00  0.00    +0.000 N 
ATOM     16  H   UNL     1      -2.521  11.472  16.368  0.00  0.00    +0.000 HD
ENDBRANCH   9  11
ENDBRANCH   3   5
BRANCH   2  17
ATOM     17  C   UNL     1       2.523   7.739  18.468  0.00  0.00    +0.000 A 
ATOM     18  C   UNL     1       3.559   7.310  17.608  0.00  0.00    +0.000 A 
ATOM     19  C   UNL     1       3.912   6.070  18.059  0.00  0.00    +0.000 A 
ATOM     20  N   UNL     1       3.087   5.772  19.119  0.00  0.00    +0.000 N 
ATOM     21  N   UNL     1       2.249   6.815  19.410  0.00  0.00    +0.000 NA
BRANCH  20  22
ATOM     22  C   UNL     1       3.063   4.557  19.861  0.00  0.00    +0.000 A 
ATOM     23  C   UNL     1       3.954   3.515  19.553  0.00  0.00    +0.000 A 
ATOM     24  C   UNL     1       3.942   2.335  20.297  0.00  0.00    +0.000 A 
ATOM     25  C   UNL     1       3.038   2.180  21.345  0.00  0.00    +0.000 A 
ATOM     26  C   UNL     1       2.139   3.203  21.646  0.00  0.00    +0.000 A 
ATOM     27  C   UNL     1       2.147   4.390  20.907  0.00  0.00    +0.000 A 
ENDBRANCH  20  22
ENDBRANCH   2  17
TORSDOF 4
ENDMDL
MODEL 8
REMARK VINA RESULT:      -7.7      3.093      9.389
REMARK  Name = 
REMARK  4 active torsions:
REMARK  status: ('A' for Active; 'I' for Inactive)
REMARK    1  A    between atoms: C_2  and  C_15
REMARK    2  A    between atoms: N_3  and  C_4
REMARK    3  A    between atoms: C_8  and  C_9
REMARK    4  A    between atoms: N_18  and  C_19
REMARK                            x       y       z     vdW  Elec       q    Type
REMARK                         _______ _______ _______ _____ _____    ______ ____
ROOT
ATOM      1  O   UNL     1       1.278   8.453  20.664  0.00  0.00    +0.000 OA
ATOM      2  C   UNL     1       1.688   8.315  19.512  0.00  0.00    +0.000 C 
ATOM      3  N   UNL     1       1.408   9.156  18.449  0.00  0.00    +0.000 N 
ATOM      4  H   UNL     1       1.727   8.824  17.543  0.00  0.00    +0.000 HD
ENDROOT
BRANCH   3   5
ATOM      5  C   UNL     1       0.663  10.354  18.521  0.00  0.00    +0.000 A 
ATOM      6  C   UNL     1       1.234  11.570  18.913  0.00  0.00    +0.000 A 
ATOM      7  C   UNL     1       0.476  12.736  18.983  0.00  0.00    +0.000 A 
ATOM      8  C   UNL     1      -0.868  12.706  18.635  0.00  0.00    +0.000 A 
ATOM      9  C   UNL     1      -1.461  11.513  18.199  0.00  0.00    +0.000 A 
ATOM     10  C   UNL     1      -0.691  10.333  18.162  0.00  0.00    +0.000 A 
BRANCH   9  11
ATOM     11  C   UNL     1      -2.849  11.507  17.754  0.00  0.00    +0.000 A 
ATOM     12  N   UNL     1      -3.348  11.043  16.625  0.00  0.00    +0.000 NA
ATOM     13  N   UNL     1      -4.706  11.287  16.619  0.00  0.00    +0.000 NA
ATOM     14  C   UNL     1      -5.003  11.914  17.729  0.00  0.00    +0.000 A 
ATOM     15  N   UNL     1      -3.877  12.069  18.473  0.00  0.00    +0.000 N 
ATOM     16  H   UNL     1      -3.794  12.543  19.358  0.00  0.00    +0.000 HD
ENDBRANCH   9  11
ENDBRANCH   3   5
BRANCH   2  17
ATOM     17  C   UNL     1       2.523   7.152  19.180  0.00  0.00    +0.000 A 
ATOM     18  C   UNL     1       2.580   5.973  19.958  0.00  0.00    +0.000 A 
ATOM     19  C   UNL     1       3.470   5.160  19.314  0.00  0.00    +0.000 A 
ATOM     20  N   UNL     1       3.942   5.855  18.224  0.00  0.00    +0.000 N 
ATOM     21  N   UNL     1       3.333   7.074  18.105  0.00  0.00    +0.000 NA
BRANCH  20  22
ATOM     22  C   UNL     1       4.931   5.414  17.300  0.00  0.00    +0.000 A 
ATOM     23  C   UNL     1       6.131   6.129  17.144  0.00  0.00    +0.000 A 
ATOM     24  C   UNL     1       7.107   5.681  16.253  0.00  0.00    +0.000 A 
ATOM     25  C   UNL     1       6.892   4.526  15.506  0.00  0.00    +0.000 A 
ATOM     26  C   UNL     1       5.697   3.820  15.643  0.00  0.00    +0.000 A 
ATOM     27  C   UNL     1       4.715   4.260  16.536  0.00  0.00    +0.000 A 
ENDBRANCH  20  22
ENDBRANCH   2  17
TORSDOF 4
ENDMDL
MODEL 9
REMARK VINA RESULT:      -7.7      2.041      3.020
REMARK  Name = 
REMARK  4 active torsions:
REMARK  status: ('A' for Active; 'I' for Inactive)
REMARK    1  A    between atoms: C_2  and  C_15
REMARK    2  A    between atoms: N_3  and  C_4
REMARK    3  A    between atoms: C_8  and  C_9
REMARK    4  A    between atoms: N_18  and  C_19
REMARK                            x       y       z     vdW  Elec       q    Type
REMARK                         _______ _______ _______ _____ _____    ______ ____
ROOT
ATOM      1  O   UNL     1       2.224   5.896  20.707  0.00  0.00    +0.000 OA
ATOM      2  C   UNL     1       2.160   6.811  19.886  0.00  0.00    +0.000 C 
ATOM      3  N   UNL     1       2.623   6.759  18.583  0.00  0.00    +0.000 N 
ATOM      4  H   UNL     1       2.602   7.644  18.083  0.00  0.00    +0.000 HD
ENDROOT
BRANCH   3   5
ATOM      5  C   UNL     1       3.181   5.625  17.952  0.00  0.00    +0.000 A 
ATOM      6  C   UNL     1       2.644   4.341  18.105  0.00  0.00    +0.000 A 
ATOM      7  C   UNL     1       3.217   3.238  17.477  0.00  0.00    +0.000 A 
ATOM      8  C   UNL     1       4.329   3.409  16.663  0.00  0.00    +0.000 A 
ATOM      9  C   UNL     1       4.867   4.687  16.457  0.00  0.00    +0.000 A 
ATOM     10  C   UNL     1       4.296   5.791  17.121  0.00  0.00    +0.000 A 
BRANCH   9  11
ATOM     11  C   UNL     1       5.980   4.870  15.534  0.00  0.00    +0.000 A 
ATOM     12  N   UNL     1       7.076   5.585  15.700  0.00  0.00    +0.000 NA
ATOM     13  N   UNL     1       7.830   5.497  14.548  0.00  0.00    +0.000 NA
ATOM     14  C   UNL     1       7.171   4.752  13.697  0.00  0.00    +0.000 A 
ATOM     15  N   UNL     1       6.012   4.332  14.270  0.00  0.00    +0.000 N 
ATOM     16  H   UNL     1       5.290   3.775  13.843  0.00  0.00    +0.000 HD
ENDBRANCH   9  11
ENDBRANCH   3   5
BRANCH   2  17
ATOM     17  C   UNL     1       1.584   8.101  20.289  0.00  0.00    +0.000 A 
ATOM     18  C   UNL     1       1.090   8.376  21.585  0.00  0.00    +0.000 A 
ATOM     19  C   UNL     1       0.640   9.665  21.533  0.00  0.00    +0.000 A 
ATOM     20  N   UNL     1       0.830  10.112  20.245  0.00  0.00    +0.000 N 
ATOM     21  N   UNL     1       1.452   9.167  19.474  0.00  0.00    +0.000 NA
BRANCH  20  22
ATOM     22  C   UNL     1       0.455  11.382  19.723  0.00  0.00    +0.000 A 
ATOM     23  C   UNL     1       1.371  12.147  18.981  0.00  0.00    +0.000 A 
ATOM     24  C   UNL     1       0.992  13.381  18.452  0.00  0.00    +0.000 A 
ATOM     25  C   UNL     1      -0.296  13.866  18.666  0.00  0.00    +0.000 A 
ATOM     26  C   UNL     1      -1.205  13.120  19.415  0.00  0.00    +0.000 A 
ATOM     27  C   UNL     1      -0.835  11.881  19.946  0.00  0.00    +0.000 A 
ENDBRANCH  20  22
ENDBRANCH   2  17
TORSDOF 4
ENDMDL
