MODEL 1
REMARK VINA RESULT:      -8.1      0.000      0.000
REMARK  Name = 
REMARK  4 active torsions:
REMARK  status: ('A' for Active; 'I' for Inactive)
REMARK    1  A    between atoms: C_2  and  C_13
REMARK    2  A    between atoms: N_3  and  C_4
REMARK    3  A    between atoms: C_16  and  C_17
REMARK    4  A    between atoms: C_17  and  N_18
REMARK                            x       y       z     vdW  Elec       q    Type
REMARK                         _______ _______ _______ _____ _____    ______ ____
ROOT
ATOM      1  O   UNL     1       7.695   9.771  17.245  0.00  0.00    +0.000 OA
ATOM      2  C   UNL     1       8.018   8.920  18.066  0.00  0.00    +0.000 C 
ATOM      3  N   UNL     1       8.879   9.095  19.140  0.00  0.00    +0.000 N 
ATOM      4  H   UNL     1       9.201   8.264  19.620  0.00  0.00    +0.000 HD
ENDROOT
BRANCH   3   5
ATOM      5  C   UNL     1       9.528  10.312  19.471  0.00  0.00    +0.000 A 
ATOM      6  C   UNL     1       9.369  10.943  20.718  0.00  0.00    +0.000 A 
ATOM      7  C   UNL     1       9.954  12.183  20.992  0.00  0.00    +0.000 A 
ATOM      8  C   UNL     1      10.714  12.780  20.009  0.00  0.00    +0.000 A 
ATOM      9  C   UNL     1      10.913  12.152  18.776  0.00  0.00    +0.000 A 
ATOM     10  C   UNL     1      10.339  10.916  18.497  0.00  0.00    +0.000 A 
ATOM     11  C   UNL     1      11.707  13.038  17.865  0.00  0.00    +0.000 C 
ATOM     12  C   UNL     1      12.333  14.022  18.867  0.00  0.00    +0.000 C 
ATOM     13  C   UNL     1      11.356  14.130  20.044  0.00  0.00    +0.000 C 
ENDBRANCH   3   5
BRANCH   2  14
ATOM     14  C   UNL     1       7.488   7.546  17.851  0.00  0.00    +0.000 A 
ATOM     15  C   UNL     1       6.477   7.385  16.893  0.00  0.00    +0.000 A 
ATOM     16  C   UNL     1       5.871   6.142  16.702  0.00  0.00    +0.000 A 
ATOM     17  C   UNL     1       6.257   5.043  17.478  0.00  0.00    +0.000 A 
ATOM     18  C   UNL     1       7.285   5.208  18.424  0.00  0.00    +0.000 A 
ATOM     19  C   UNL     1       7.897   6.453  18.616  0.00  0.00    +0.000 A 
BRANCH  17  20
ATOM     20  C   UNL     1       5.558   3.709  17.329  0.00  0.00    +0.000 C 
BRANCH  20  21
ATOM     21  N   UNL     1       4.321   3.624  18.078  0.00  0.00    +0.000 N 
ATOM     22  C   UNL     1       3.032   3.925  17.507  0.00  0.00    +0.000 C 
ATOM     23  C   UNL     1       2.121   3.948  18.720  0.00  0.00    +0.000 C 
ATOM     24  C   UNL     1       2.752   2.929  19.662  0.00  0.00    +0.000 C 
ATOM     25  C   UNL     1       4.219   3.027  19.325  0.00  0.00    +0.000 C 
ATOM     26  O   UNL     1       5.134   2.605  20.011  0.00  0.00    +0.000 OA
ENDBRANCH  20  21
ENDBRANCH  17  20
ENDBRANCH   2  14
TORSDOF 4
ENDMDL
MODEL 2
REMARK VINA RESULT:      -7.9      1.031      1.236
REMARK  Name = 
REMARK  4 active torsions:
REMARK  status: ('A' for Active; 'I' for Inactive)
REMARK    1  A    between atoms: C_2  and  C_13
REMARK    2  A    between atoms: N_3  and  C_4
REMARK    3  A    between atoms: C_16  and  C_17
REMARK    4  A    between atoms: C_17  and  N_18
REMARK                            x       y       z     vdW  Elec       q    Type
REMARK                         _______ _______ _______ _____ _____    ______ ____
ROOT
ATOM      1  O   UNL     1       7.549   9.662  17.133  0.00  0.00    +0.000 OA
ATOM      2  C   UNL     1       7.892   8.838  17.973  0.00  0.00    +0.000 C 
ATOM      3  N   UNL     1       8.835   9.026  18.974  0.00  0.00    +0.000 N 
ATOM      4  H   UNL     1       9.154   8.207  19.474  0.00  0.00    +0.000 HD
ENDROOT
BRANCH   3   5
ATOM      5  C   UNL     1       9.557  10.226  19.196  0.00  0.00    +0.000 A 
ATOM      6  C   UNL     1       9.604  10.866  20.449  0.00  0.00    +0.000 A 
ATOM      7  C   UNL     1      10.255  12.090  20.623  0.00  0.00    +0.000 A 
ATOM      8  C   UNL     1      10.874  12.664  19.532  0.00  0.00    +0.000 A 
ATOM      9  C   UNL     1      10.868  12.028  18.288  0.00  0.00    +0.000 A 
ATOM     10  C   UNL     1      10.227  10.807  18.107  0.00  0.00    +0.000 A 
ATOM     11  C   UNL     1      11.538  12.890  17.261  0.00  0.00    +0.000 C 
ATOM     12  C   UNL     1      12.333  13.860  18.150  0.00  0.00    +0.000 C 
ATOM     13  C   UNL     1      11.548  13.997  19.461  0.00  0.00    +0.000 C 
ENDBRANCH   3   5
BRANCH   2  14
ATOM     14  C   UNL     1       7.290   7.482  17.868  0.00  0.00    +0.000 A 
ATOM     15  C   UNL     1       6.154   7.340  17.059  0.00  0.00    +0.000 A 
ATOM     16  C   UNL     1       5.484   6.117  16.984  0.00  0.00    +0.000 A 
ATOM     17  C   UNL     1       5.932   5.021  17.730  0.00  0.00    +0.000 A 
ATOM     18  C   UNL     1       7.085   5.166  18.524  0.00  0.00    +0.000 A 
ATOM     19  C   UNL     1       7.760   6.391  18.600  0.00  0.00    +0.000 A 
BRANCH  17  20
ATOM     20  C   UNL     1       5.173   3.712  17.712  0.00  0.00    +0.000 C 
BRANCH  20  21
ATOM     21  N   UNL     1       3.898   3.780  18.396  0.00  0.00    +0.000 N 
ATOM     22  C   UNL     1       3.741   4.331  19.719  0.00  0.00    +0.000 C 
ATOM     23  C   UNL     1       2.321   3.941  20.083  0.00  0.00    +0.000 C 
ATOM     24  C   UNL     1       1.594   3.942  18.744  0.00  0.00    +0.000 C 
ATOM     25  C   UNL     1       2.681   3.549  17.774  0.00  0.00    +0.000 C 
ATOM     26  O   UNL     1       2.505   3.154  16.634  0.00  0.00    +0.000 OA
ENDBRANCH  20  21
ENDBRANCH  17  20
ENDBRANCH   2  14
TORSDOF 4
ENDMDL
MODEL 3
REMARK VINA RESULT:      -7.9      6.761      8.344
REMARK  Name = 
REMARK  4 active torsions:
REMARK  status: ('A' for Active; 'I' for Inactive)
REMARK    1  A    between atoms: C_2  and  C_13
REMARK    2  A    between atoms: N_3  and  C_4
REMARK    3  A    between atoms: C_16  and  C_17
REMARK    4  A    between atoms: C_17  and  N_18
REMARK                            x       y       z     vdW  Elec       q    Type
REMARK                         _______ _______ _______ _____ _____    ______ ____
ROOT
ATOM      1  O   UNL     1       0.547  10.464  18.458  0.00  0.00    +0.000 OA
ATOM      2  C   UNL     1       1.016   9.792  19.370  0.00  0.00    +0.000 C 
ATOM      3  N   UNL     1       0.927  10.068  20.727  0.00  0.00    +0.000 N 
ATOM      4  H   UNL     1       1.518   9.535  21.352  0.00  0.00    +0.000 HD
ENDROOT
BRANCH   3   5
ATOM      5  C   UNL     1       0.257  11.186  21.288  0.00  0.00    +0.000 A 
ATOM      6  C   UNL     1       0.754  12.498  21.187  0.00  0.00    +0.000 A 
ATOM      7  C   UNL     1       0.119  13.572  21.817  0.00  0.00    +0.000 A 
ATOM      8  C   UNL     1      -1.030  13.323  22.539  0.00  0.00    +0.000 A 
ATOM      9  C   UNL     1      -1.557  12.031  22.622  0.00  0.00    +0.000 A 
ATOM     10  C   UNL     1      -0.935  10.958  21.994  0.00  0.00    +0.000 A 
ATOM     11  C   UNL     1      -2.755  12.018  23.522  0.00  0.00    +0.000 C 
ATOM     12  C   UNL     1      -3.125  13.510  23.559  0.00  0.00    +0.000 C 
ATOM     13  C   UNL     1      -1.820  14.290  23.361  0.00  0.00    +0.000 C 
ENDBRANCH   3   5
BRANCH   2  14
ATOM     14  C   UNL     1       1.819   8.602  18.982  0.00  0.00    +0.000 A 
ATOM     15  C   UNL     1       1.925   7.561  19.915  0.00  0.00    +0.000 A 
ATOM     16  C   UNL     1       2.734   6.453  19.655  0.00  0.00    +0.000 A 
ATOM     17  C   UNL     1       3.464   6.377  18.463  0.00  0.00    +0.000 A 
ATOM     18  C   UNL     1       3.338   7.418  17.523  0.00  0.00    +0.000 A 
ATOM     19  C   UNL     1       2.525   8.529  17.780  0.00  0.00    +0.000 A 
BRANCH  17  20
ATOM     20  C   UNL     1       4.399   5.217  18.202  0.00  0.00    +0.000 C 
BRANCH  20  21
ATOM     21  N   UNL     1       3.739   3.929  18.242  0.00  0.00    +0.000 N 
ATOM     22  C   UNL     1       2.716   3.538  17.305  0.00  0.00    +0.000 C 
ATOM     23  C   UNL     1       2.173   2.256  17.911  0.00  0.00    +0.000 C 
ATOM     24  C   UNL     1       3.383   1.650  18.611  0.00  0.00    +0.000 C 
ATOM     25  C   UNL     1       4.178   2.867  19.017  0.00  0.00    +0.000 C 
ATOM     26  O   UNL     1       5.077   2.883  19.841  0.00  0.00    +0.000 OA
ENDBRANCH  20  21
ENDBRANCH  17  20
ENDBRANCH   2  14
TORSDOF 4
ENDMDL
MODEL 4
REMARK VINA RESULT:      -7.8      7.163      8.901
REMARK  Name = 
REMARK  4 active torsions:
REMARK  status: ('A' for Active; 'I' for Inactive)
REMARK    1  A    between atoms: C_2  and  C_13
REMARK    2  A    between atoms: N_3  and  C_4
REMARK    3  A    between atoms: C_16  and  C_17
REMARK    4  A    between atoms: C_17  and  N_18
REMARK                            x       y       z     vdW  Elec       q    Type
REMARK                         _______ _______ _______ _____ _____    ______ ____
ROOT
ATOM      1  O   UNL     1      -0.496  10.126  19.091  0.00  0.00    +0.000 OA
ATOM      2  C   UNL     1       0.468   9.894  19.811  0.00  0.00    +0.000 C 
ATOM      3  N   UNL     1       0.788  10.544  20.995  0.00  0.00    +0.000 N 
ATOM      4  H   UNL     1       1.707  10.380  21.384  0.00  0.00    +0.000 HD
ENDROOT
BRANCH   3   5
ATOM      5  C   UNL     1       0.031  11.593  21.577  0.00  0.00    +0.000 A 
ATOM      6  C   UNL     1       0.438  12.939  21.532  0.00  0.00    +0.000 A 
ATOM      7  C   UNL     1      -0.282  13.945  22.183  0.00  0.00    +0.000 A 
ATOM      8  C   UNL     1      -1.426  13.593  22.868  0.00  0.00    +0.000 A 
ATOM      9  C   UNL     1      -1.866  12.266  22.895  0.00  0.00    +0.000 A 
ATOM     10  C   UNL     1      -1.158  11.260  22.245  0.00  0.00    +0.000 A 
ATOM     11  C   UNL     1      -3.080  12.140  23.764  0.00  0.00    +0.000 C 
ATOM     12  C   UNL     1      -3.552  13.601  23.842  0.00  0.00    +0.000 C 
ATOM     13  C   UNL     1      -2.299  14.474  23.703  0.00  0.00    +0.000 C 
ENDBRANCH   3   5
BRANCH   2  14
ATOM     14  C   UNL     1       1.428   8.861  19.336  0.00  0.00    +0.000 A 
ATOM     15  C   UNL     1       1.903   8.975  18.022  0.00  0.00    +0.000 A 
ATOM     16  C   UNL     1       2.735   7.995  17.479  0.00  0.00    +0.000 A 
ATOM     17  C   UNL     1       3.093   6.875  18.239  0.00  0.00    +0.000 A 
ATOM     18  C   UNL     1       2.627   6.776  19.563  0.00  0.00    +0.000 A 
ATOM     19  C   UNL     1       1.794   7.760  20.111  0.00  0.00    +0.000 A 
BRANCH  17  20
ATOM     20  C   UNL     1       3.935   5.771  17.638  0.00  0.00    +0.000 C 
BRANCH  20  21
ATOM     21  N   UNL     1       5.355   5.950  17.857  0.00  0.00    +0.000 N 
ATOM     22  C   UNL     1       6.099   7.068  17.335  0.00  0.00    +0.000 C 
ATOM     23  C   UNL     1       7.539   6.672  17.599  0.00  0.00    +0.000 C 
ATOM     24  C   UNL     1       7.455   5.843  18.875  0.00  0.00    +0.000 C 
ATOM     25  C   UNL     1       6.088   5.210  18.772  0.00  0.00    +0.000 C 
ATOM     26  O   UNL     1       5.699   4.256  19.422  0.00  0.00    +0.000 OA
ENDBRANCH  20  21
ENDBRANCH  17  20
ENDBRANCH   2  14
TORSDOF 4
ENDMDL
MODEL 5
REMARK VINA RESULT:      -7.8      7.626      9.216
REMARK  Name = 
REMARK  4 active torsions:
REMARK  status: ('A' for Active; 'I' for Inactive)
REMARK    1  A    between atoms: C_2  and  C_13
REMARK    2  A    between atoms: N_3  and  C_4
REMARK    3  A    between atoms: C_16  and  C_17
REMARK    4  A    between atoms: C_17  and  N_18
REMARK                            x       y       z     vdW  Elec       q    Type
REMARK                         _______ _______ _______ _____ _____    ______ ____
ROOT
ATOM      1  O   UNL     1      -0.223  11.035  19.177  0.00  0.00    +0.000 OA
ATOM      2  C   UNL     1       0.272  10.389  20.093  0.00  0.00    +0.000 C 
ATOM      3  N   UNL     1       0.174  10.672  21.448  0.00  0.00    +0.000 N 
ATOM      4  H   UNL     1       0.786  10.167  22.076  0.00  0.00    +0.000 HD
ENDROOT
BRANCH   3   5
ATOM      5  C   UNL     1      -0.535  11.769  22.000  0.00  0.00    +0.000 A 
ATOM      6  C   UNL     1      -0.052  13.090  21.951  0.00  0.00    +0.000 A 
ATOM      7  C   UNL     1      -0.730  14.142  22.573  0.00  0.00    +0.000 A 
ATOM      8  C   UNL     1      -1.907  13.863  23.235  0.00  0.00    +0.000 A 
ATOM      9  C   UNL     1      -2.421  12.563  23.266  0.00  0.00    +0.000 A 
ATOM     10  C   UNL     1      -1.756  11.511  22.645  0.00  0.00    +0.000 A 
ATOM     11  C   UNL     1      -3.659  12.515  24.108  0.00  0.00    +0.000 C 
ATOM     12  C   UNL     1      -4.050  14.001  24.160  0.00  0.00    +0.000 C 
ATOM     13  C   UNL     1      -2.748  14.802  24.040  0.00  0.00    +0.000 C 
ENDBRANCH   3   5
BRANCH   2  14
ATOM     14  C   UNL     1       1.118   9.226  19.714  0.00  0.00    +0.000 A 
ATOM     15  C   UNL     1       1.540   9.141  18.379  0.00  0.00    +0.000 A 
ATOM     16  C   UNL     1       2.261   8.033  17.930  0.00  0.00    +0.000 A 
ATOM     17  C   UNL     1       2.558   6.983  18.807  0.00  0.00    +0.000 A 
ATOM     18  C   UNL     1       2.147   7.084  20.150  0.00  0.00    +0.000 A 
ATOM     19  C   UNL     1       1.426   8.196  20.603  0.00  0.00    +0.000 A 
BRANCH  17  20
ATOM     20  C   UNL     1       3.276   5.746  18.316  0.00  0.00    +0.000 C 
BRANCH  20  21
ATOM     21  N   UNL     1       2.668   4.512  18.770  0.00  0.00    +0.000 N 
ATOM     22  C   UNL     1       3.015   3.873  20.015  0.00  0.00    +0.000 C 
ATOM     23  C   UNL     1       2.325   2.526  19.909  0.00  0.00    +0.000 C 
ATOM     24  C   UNL     1       1.083   2.823  19.077  0.00  0.00    +0.000 C 
ATOM     25  C   UNL     1       1.541   3.954  18.188  0.00  0.00    +0.000 C 
ATOM     26  O   UNL     1       0.978   4.329  17.174  0.00  0.00    +0.000 OA
ENDBRANCH  20  21
ENDBRANCH  17  20
ENDBRANCH   2  14
TORSDOF 4
ENDMDL
MODEL 6
REMARK VINA RESULT:      -7.7      1.645      1.942
REMARK  Name = 
REMARK  4 active torsions:
REMARK  status: ('A' for Active; 'I' for Inactive)
REMARK    1  A    between atoms: C_2  and  C_13
REMARK    2  A    between atoms: N_3  and  C_4
REMARK    3  A    between atoms: C_16  and  C_17
REMARK    4  A    between atoms: C_17  and  N_18
REMARK                            x       y       z     vdW  Elec       q    Type
REMARK                         _______ _______ _______ _____ _____    ______ ____
ROOT
ATOM      1  O   UNL     1       8.751   7.019  19.185  0.00  0.00    +0.000 OA
ATOM      2  C   UNL     1       8.016   7.502  18.332  0.00  0.00    +0.000 C 
ATOM      3  N   UNL     1       7.988   8.828  17.923  0.00  0.00    +0.000 N 
ATOM      4  H   UNL     1       7.207   9.123  17.352  0.00  0.00    +0.000 HD
ENDROOT
BRANCH   3   5
ATOM      5  C   UNL     1       8.829   9.853  18.428  0.00  0.00    +0.000 A 
ATOM      6  C   UNL     1       8.997  10.087  19.805  0.00  0.00    +0.000 A 
ATOM      7  C   UNL     1       9.767  11.154  20.278  0.00  0.00    +0.000 A 
ATOM      8  C   UNL     1      10.380  11.979  19.358  0.00  0.00    +0.000 A 
ATOM      9  C   UNL     1      10.252  11.741  17.986  0.00  0.00    +0.000 A 
ATOM     10  C   UNL     1       9.493  10.678  17.507  0.00  0.00    +0.000 A 
ATOM     11  C   UNL     1      10.945  12.817  17.207  0.00  0.00    +0.000 C 
ATOM     12  C   UNL     1      11.870  13.420  18.277  0.00  0.00    +0.000 C 
ATOM     13  C   UNL     1      11.169  13.220  19.626  0.00  0.00    +0.000 C 
ENDBRANCH   3   5
BRANCH   2  14
ATOM     14  C   UNL     1       7.006   6.594  17.724  0.00  0.00    +0.000 A 
ATOM     15  C   UNL     1       5.700   7.083  17.581  0.00  0.00    +0.000 A 
ATOM     16  C   UNL     1       4.681   6.257  17.102  0.00  0.00    +0.000 A 
ATOM     17  C   UNL     1       4.950   4.924  16.772  0.00  0.00    +0.000 A 
ATOM     18  C   UNL     1       6.268   4.446  16.901  0.00  0.00    +0.000 A 
ATOM     19  C   UNL     1       7.293   5.273  17.379  0.00  0.00    +0.000 A 
BRANCH  17  20
ATOM     20  C   UNL     1       3.841   4.001  16.320  0.00  0.00    +0.000 C 
BRANCH  20  21
ATOM     21  N   UNL     1       3.126   3.384  17.418  0.00  0.00    +0.000 N 
ATOM     22  C   UNL     1       3.756   2.517  18.382  0.00  0.00    +0.000 C 
ATOM     23  C   UNL     1       2.576   1.936  19.139  0.00  0.00    +0.000 C 
ATOM     24  C   UNL     1       1.541   3.054  19.103  0.00  0.00    +0.000 C 
ATOM     25  C   UNL     1       1.841   3.743  17.794  0.00  0.00    +0.000 C 
ATOM     26  O   UNL     1       1.097   4.515  17.214  0.00  0.00    +0.000 OA
ENDBRANCH  20  21
ENDBRANCH  17  20
ENDBRANCH   2  14
TORSDOF 4
ENDMDL
MODEL 7
REMARK VINA RESULT:      -7.7      5.586      8.224
REMARK  Name = 
REMARK  4 active torsions:
REMARK  status: ('A' for Active; 'I' for Inactive)
REMARK    1  A    between atoms: C_2  and  C_13
REMARK    2  A    between atoms: N_3  and  C_4
REMARK    3  A    between atoms: C_16  and  C_17
REMARK    4  A    between atoms: C_17  and  N_18
REMARK                            x       y       z     vdW  Elec       q    Type
REMARK                         _______ _______ _______ _____ _____    ______ ____
ROOT
ATOM      1  O   UNL     1       1.987   7.075  19.254  0.00  0.00    +0.000 OA
ATOM      2  C   UNL     1       2.658   7.533  18.336  0.00  0.00    +0.000 C 
ATOM      3  N   UNL     1       2.440   8.733  17.675  0.00  0.00    +0.000 N 
ATOM      4  H   UNL     1       2.954   8.894  16.818  0.00  0.00    +0.000 HD
ENDROOT
BRANCH   3   5
ATOM      5  C   UNL     1       1.393   9.644  17.967  0.00  0.00    +0.000 A 
ATOM      6  C   UNL     1       1.607  10.853  18.654  0.00  0.00    +0.000 A 
ATOM      7  C   UNL     1       0.548  11.696  19.003  0.00  0.00    +0.000 A 
ATOM      8  C   UNL     1      -0.731  11.324  18.644  0.00  0.00    +0.000 A 
ATOM      9  C   UNL     1      -0.960  10.144  17.932  0.00  0.00    +0.000 A 
ATOM     10  C   UNL     1       0.089   9.302  17.576  0.00  0.00    +0.000 A 
ATOM     11  C   UNL     1      -2.431   9.934  17.735  0.00  0.00    +0.000 C 
ATOM     12  C   UNL     1      -2.977  11.347  17.996  0.00  0.00    +0.000 C 
ATOM     13  C   UNL     1      -2.013  12.015  18.984  0.00  0.00    +0.000 C 
ENDBRANCH   3   5
BRANCH   2  14
ATOM     14  C   UNL     1       3.774   6.687  17.834  0.00  0.00    +0.000 A 
ATOM     15  C   UNL     1       4.821   7.332  17.161  0.00  0.00    +0.000 A 
ATOM     16  C   UNL     1       5.857   6.593  16.585  0.00  0.00    +0.000 A 
ATOM     17  C   UNL     1       5.854   5.195  16.662  0.00  0.00    +0.000 A 
ATOM     18  C   UNL     1       4.809   4.557  17.356  0.00  0.00    +0.000 A 
ATOM     19  C   UNL     1       3.770   5.295  17.936  0.00  0.00    +0.000 A 
BRANCH  17  20
ATOM     20  C   UNL     1       6.932   4.382  15.981  0.00  0.00    +0.000 C 
BRANCH  20  21
ATOM     21  N   UNL     1       6.738   4.256  14.552  0.00  0.00    +0.000 N 
ATOM     22  C   UNL     1       5.601   3.593  13.965  0.00  0.00    +0.000 C 
ATOM     23  C   UNL     1       5.983   3.496  12.500  0.00  0.00    +0.000 C 
ATOM     24  C   UNL     1       6.836   4.737  12.268  0.00  0.00    +0.000 C 
ATOM     25  C   UNL     1       7.484   4.952  13.613  0.00  0.00    +0.000 C 
ATOM     26  O   UNL     1       8.456   5.658  13.827  0.00  0.00    +0.000 OA
ENDBRANCH  20  21
ENDBRANCH  17  20
ENDBRANCH   2  14
TORSDOF 4
ENDMDL
MODEL 8
REMARK VINA RESULT:      -7.6      1.346      2.000
REMARK  Name = 
REMARK  4 active torsions:
REMARK  status: ('A' for Active; 'I' for Inactive)
REMARK    1  A    between atoms: C_2  and  C_13
REMARK    2  A    between atoms: N_3  and  C_4
REMARK    3  A    between atoms: C_16  and  C_17
REMARK    4  A    between atoms: C_17  and  N_18
REMARK                            x       y       z     vdW  Elec       q    Type
REMARK                         _______ _______ _______ _____ _____    ______ ____
ROOT
ATOM      1  O   UNL     1       8.611   7.915  16.615  0.00  0.00    +0.000 OA
ATOM      2  C   UNL     1       7.724   8.088  17.443  0.00  0.00    +0.000 C 
ATOM      3  N   UNL     1       7.570   9.194  18.267  0.00  0.00    +0.000 N 
ATOM      4  H   UNL     1       6.909   9.120  19.029  0.00  0.00    +0.000 HD
ENDROOT
BRANCH   3   5
ATOM      5  C   UNL     1       8.424  10.327  18.275  0.00  0.00    +0.000 A 
ATOM      6  C   UNL     1       8.149  11.491  17.534  0.00  0.00    +0.000 A 
ATOM      7  C   UNL     1       9.046  12.563  17.494  0.00  0.00    +0.000 A 
ATOM      8  C   UNL     1      10.217  12.465  18.215  0.00  0.00    +0.000 A 
ATOM      9  C   UNL     1      10.492  11.330  18.984  0.00  0.00    +0.000 A 
ATOM     10  C   UNL     1       9.603  10.262  19.034  0.00  0.00    +0.000 A 
ATOM     11  C   UNL     1      11.853  11.440  19.602  0.00  0.00    +0.000 C 
ATOM     12  C   UNL     1      12.118  12.950  19.487  0.00  0.00    +0.000 C 
ATOM     13  C   UNL     1      11.353  13.437  18.250  0.00  0.00    +0.000 C 
ENDBRANCH   3   5
BRANCH   2  14
ATOM     14  C   UNL     1       6.757   6.973  17.634  0.00  0.00    +0.000 A 
ATOM     15  C   UNL     1       7.196   5.853  18.353  0.00  0.00    +0.000 A 
ATOM     16  C   UNL     1       6.374   4.733  18.495  0.00  0.00    +0.000 A 
ATOM     17  C   UNL     1       5.105   4.711  17.906  0.00  0.00    +0.000 A 
ATOM     18  C   UNL     1       4.664   5.847  17.201  0.00  0.00    +0.000 A 
ATOM     19  C   UNL     1       5.486   6.973  17.059  0.00  0.00    +0.000 A 
BRANCH  17  20
ATOM     20  C   UNL     1       4.234   3.477  17.992  0.00  0.00    +0.000 C 
BRANCH  20  21
ATOM     21  N   UNL     1       3.424   3.429  19.191  0.00  0.00    +0.000 N 
ATOM     22  C   UNL     1       2.088   3.965  19.262  0.00  0.00    +0.000 C 
ATOM     23  C   UNL     1       1.779   3.915  20.746  0.00  0.00    +0.000 C 
ATOM     24  C   UNL     1       2.557   2.697  21.233  0.00  0.00    +0.000 C 
ATOM     25  C   UNL     1       3.746   2.668  20.303  0.00  0.00    +0.000 C 
ATOM     26  O   UNL     1       4.774   2.040  20.488  0.00  0.00    +0.000 OA
ENDBRANCH  20  21
ENDBRANCH  17  20
ENDBRANCH   2  14
TORSDOF 4
ENDMDL
MODEL 9
REMARK VINA RESULT:      -7.6      7.048     10.028
REMARK  Name = 
REMARK  4 active torsions:
REMARK  status: ('A' for Active; 'I' for Inactive)
REMARK    1  A    between atoms: C_2  and  C_13
REMARK    2  A    between atoms: N_3  and  C_4
REMARK    3  A    between atoms: C_16  and  C_17
REMARK    4  A    between atoms: C_17  and  N_18
REMARK                            x       y       z     vdW  Elec       q    Type
REMARK                         _______ _______ _______ _____ _____    ______ ____
ROOT
ATOM      1  O   UNL     1       1.539   8.915  17.792  0.00  0.00    +0.000 OA
ATOM      2  C   UNL     1       1.626   8.473  18.932  0.00  0.00    +0.000 C 
ATOM      3  N   UNL     1       2.257   7.297  19.314  0.00  0.00    +0.000 N 
ATOM      4  H   UNL     1       2.089   6.961  20.254  0.00  0.00    +0.000 HD
ENDROOT
BRANCH   3   5
ATOM      5  C   UNL     1       2.922   6.408  18.432  0.00  0.00    +0.000 A 
ATOM      6  C   UNL     1       2.603   5.040  18.348  0.00  0.00    +0.000 A 
ATOM      7  C   UNL     1       3.328   4.167  17.531  0.00  0.00    +0.000 A 
ATOM      8  C   UNL     1       4.368   4.680  16.785  0.00  0.00    +0.000 A 
ATOM      9  C   UNL     1       4.678   6.042  16.829  0.00  0.00    +0.000 A 
ATOM     10  C   UNL     1       3.959   6.918  17.635  0.00  0.00    +0.000 A 
ATOM     11  C   UNL     1       5.889   6.326  15.992  0.00  0.00    +0.000 C 
ATOM     12  C   UNL     1       5.945   5.072  15.104  0.00  0.00    +0.000 C 
ATOM     13  C   UNL     1       5.328   3.929  15.918  0.00  0.00    +0.000 C 
ENDBRANCH   3   5
BRANCH   2  14
ATOM     14  C   UNL     1       0.929   9.235  20.003  0.00  0.00    +0.000 A 
ATOM     15  C   UNL     1       0.945   8.695  21.296  0.00  0.00    +0.000 A 
ATOM     16  C   UNL     1       0.237   9.308  22.331  0.00  0.00    +0.000 A 
ATOM     17  C   UNL     1      -0.512  10.465  22.085  0.00  0.00    +0.000 A 
ATOM     18  C   UNL     1      -0.508  11.011  20.788  0.00  0.00    +0.000 A 
ATOM     19  C   UNL     1       0.204  10.399  19.748  0.00  0.00    +0.000 A 
BRANCH  17  20
ATOM     20  C   UNL     1      -1.340  11.097  23.181  0.00  0.00    +0.000 C 
BRANCH  20  21
ATOM     21  N   UNL     1      -1.953  12.349  22.787  0.00  0.00    +0.000 N 
ATOM     22  C   UNL     1      -3.341  12.466  22.418  0.00  0.00    +0.000 C 
ATOM     23  C   UNL     1      -3.424  13.870  21.849  0.00  0.00    +0.000 C 
ATOM     24  C   UNL     1      -2.377  14.642  22.644  0.00  0.00    +0.000 C 
ATOM     25  C   UNL     1      -1.345  13.584  22.949  0.00  0.00    +0.000 C 
ATOM     26  O   UNL     1      -0.203  13.795  23.322  0.00  0.00    +0.000 OA
ENDBRANCH  20  21
ENDBRANCH  17  20
ENDBRANCH   2  14
TORSDOF 4
ENDMDL
