MODEL 1
REMARK VINA RESULT:      -9.7      0.000      0.000
REMARK  Name = 
REMARK  4 active torsions:
REMARK  status: ('A' for Active; 'I' for Inactive)
REMARK    1  A    between atoms: C_2  and  C_12
REMARK    2  A    between atoms: N_3  and  C_4
REMARK    3  A    between atoms: C_15  and  S_16
REMARK    4  A    between atoms: S_16  and  N_19
REMARK                            x       y       z     vdW  Elec       q    Type
REMARK                         _______ _______ _______ _____ _____    ______ ____
ROOT
ATOM      1  C   UNL     1       8.455   8.594  18.505  0.00  0.00    +0.000 A 
ATOM      2  C   UNL     1       7.608   8.572  17.387  0.00  0.00    +0.000 A 
ATOM      3  C   UNL     1       6.919   7.405  17.047  0.00  0.00    +0.000 A 
ATOM      4  C   UNL     1       7.057   6.265  17.845  0.00  0.00    +0.000 A 
ATOM      5  C   UNL     1       7.865   6.291  18.985  0.00  0.00    +0.000 A 
ATOM      6  C   UNL     1       8.575   7.452  19.309  0.00  0.00    +0.000 A 
ENDROOT
BRANCH   1   8
ATOM      7  O   UNL     1       9.237  10.177  20.028  0.00  0.00    +0.000 OA
ATOM      8  C   UNL     1       9.145   9.870  18.847  0.00  0.00    +0.000 C 
ATOM      9  N   UNL     1       9.577  10.625  17.772  0.00  0.00    +0.000 N 
ATOM     10  H   UNL     1       9.242  10.372  16.848  0.00  0.00    +0.000 HD
BRANCH   9  11
ATOM     11  C   UNL     1      10.294  11.845  17.837  0.00  0.00    +0.000 A 
ATOM     12  C   UNL     1      11.671  11.930  18.060  0.00  0.00    +0.000 A 
ATOM     13  C   UNL     1      12.301  13.179  18.118  0.00  0.00    +0.000 A 
ATOM     14  C   UNL     1      11.555  14.342  17.956  0.00  0.00    +0.000 A 
ATOM     15  F   UNL     1      12.163  15.532  18.020  0.00  0.00    +0.000 F 
ATOM     16  C   UNL     1      10.189  14.283  17.721  0.00  0.00    +0.000 A 
ATOM     17  C   UNL     1       9.573  13.036  17.653  0.00  0.00    +0.000 A 
ATOM     18  F   UNL     1       8.251  12.977  17.422  0.00  0.00    +0.000 F 
ENDBRANCH   9  11
ENDBRANCH   1   8
BRANCH   4  19
ATOM     19  S   UNL     1       6.194   4.771  17.384  0.00  0.00    +0.000 S 
ATOM     20  O   UNL     1       6.764   4.349  16.122  0.00  0.00    +0.000 OA
ATOM     21  O   UNL     1       6.241   3.887  18.537  0.00  0.00    +0.000 OA
BRANCH  19  22
ATOM     22  N   UNL     1       4.584   5.287  17.144  0.00  0.00    +0.000 N 
ATOM     23  C   UNL     1       4.343   6.728  16.947  0.00  0.00    +0.000 C 
ATOM     24  C   UNL     1       3.328   7.355  17.888  0.00  0.00    +0.000 C 
ATOM     25  C   UNL     1       2.423   6.430  18.685  0.00  0.00    +0.000 C 
ATOM     26  C   UNL     1       2.473   4.978  18.331  0.00  0.00    +0.000 A 
ATOM     27  C   UNL     1       1.484   4.132  18.863  0.00  0.00    +0.000 A 
ATOM     28  C   UNL     1       1.477   2.772  18.570  0.00  0.00    +0.000 A 
ATOM     29  C   UNL     1       2.445   2.252  17.722  0.00  0.00    +0.000 A 
ATOM     30  C   UNL     1       3.446   3.082  17.208  0.00  0.00    +0.000 A 
ATOM     31  C   UNL     1       3.495   4.440  17.543  0.00  0.00    +0.000 A 
ENDBRANCH  19  22
ENDBRANCH   4  19
TORSDOF 4
ENDMDL
MODEL 2
REMARK VINA RESULT:      -9.5      0.824      1.492
REMARK  Name = 
REMARK  4 active torsions:
REMARK  status: ('A' for Active; 'I' for Inactive)
REMARK    1  A    between atoms: C_2  and  C_12
REMARK    2  A    between atoms: N_3  and  C_4
REMARK    3  A    between atoms: C_15  and  S_16
REMARK    4  A    between atoms: S_16  and  N_19
REMARK                            x       y       z     vdW  Elec       q    Type
REMARK                         _______ _______ _______ _____ _____    ______ ____
ROOT
ATOM      1  C   UNL     1       8.392   8.821  18.483  0.00  0.00    +0.000 A 
ATOM      2  C   UNL     1       8.624   7.683  19.270  0.00  0.00    +0.000 A 
ATOM      3  C   UNL     1       7.999   6.473  18.960  0.00  0.00    +0.000 A 
ATOM      4  C   UNL     1       7.162   6.394  17.843  0.00  0.00    +0.000 A 
ATOM      5  C   UNL     1       6.960   7.512  17.028  0.00  0.00    +0.000 A 
ATOM      6  C   UNL     1       7.565   8.731  17.355  0.00  0.00    +0.000 A 
ENDROOT
BRANCH   1   8
ATOM      7  O   UNL     1       9.410  10.265  20.005  0.00  0.00    +0.000 OA
ATOM      8  C   UNL     1       9.104  10.083  18.834  0.00  0.00    +0.000 C 
ATOM      9  N   UNL     1       9.308  10.967  17.790  0.00  0.00    +0.000 N 
ATOM     10  H   UNL     1       8.810  10.799  16.922  0.00  0.00    +0.000 HD
BRANCH   9  11
ATOM     11  C   UNL     1       9.995  12.204  17.860  0.00  0.00    +0.000 A 
ATOM     12  C   UNL     1       9.360  13.448  17.904  0.00  0.00    +0.000 A 
ATOM     13  C   UNL     1      10.117  14.625  17.965  0.00  0.00    +0.000 A 
ATOM     14  C   UNL     1      11.506  14.557  17.980  0.00  0.00    +0.000 A 
ATOM     15  F   UNL     1      12.222  15.687  18.031  0.00  0.00    +0.000 F 
ATOM     16  C   UNL     1      12.159  13.334  17.950  0.00  0.00    +0.000 A 
ATOM     17  C   UNL     1      11.399  12.169  17.901  0.00  0.00    +0.000 A 
ATOM     18  F   UNL     1      12.029  10.983  17.875  0.00  0.00    +0.000 F 
ENDBRANCH   9  11
ENDBRANCH   1   8
BRANCH   4  19
ATOM     19  S   UNL     1       6.347   4.849  17.474  0.00  0.00    +0.000 S 
ATOM     20  O   UNL     1       6.964   4.346  16.264  0.00  0.00    +0.000 OA
ATOM     21  O   UNL     1       6.378   4.056  18.693  0.00  0.00    +0.000 OA
BRANCH  19  22
ATOM     22  N   UNL     1       4.734   5.306  17.150  0.00  0.00    +0.000 N 
ATOM     23  C   UNL     1       4.456   6.733  16.904  0.00  0.00    +0.000 C 
ATOM     24  C   UNL     1       3.382   7.350  17.783  0.00  0.00    +0.000 C 
ATOM     25  C   UNL     1       2.471   6.416  18.564  0.00  0.00    +0.000 C 
ATOM     26  C   UNL     1       2.583   4.959  18.252  0.00  0.00    +0.000 A 
ATOM     27  C   UNL     1       1.598   4.094  18.763  0.00  0.00    +0.000 A 
ATOM     28  C   UNL     1       1.647   2.728  18.507  0.00  0.00    +0.000 A 
ATOM     29  C   UNL     1       2.667   2.218  17.716  0.00  0.00    +0.000 A 
ATOM     30  C   UNL     1       3.664   3.067  17.224  0.00  0.00    +0.000 A 
ATOM     31  C   UNL     1       3.655   4.434  17.525  0.00  0.00    +0.000 A 
ENDBRANCH  19  22
ENDBRANCH   4  19
TORSDOF 4
ENDMDL
MODEL 3
REMARK VINA RESULT:      -9.5      5.549      7.994
REMARK  Name = 
REMARK  4 active torsions:
REMARK  status: ('A' for Active; 'I' for Inactive)
REMARK    1  A    between atoms: C_2  and  C_12
REMARK    2  A    between atoms: N_3  and  C_4
REMARK    3  A    between atoms: C_15  and  S_16
REMARK    4  A    between atoms: S_16  and  N_19
REMARK                            x       y       z     vdW  Elec       q    Type
REMARK                         _______ _______ _______ _____ _____    ______ ____
ROOT
ATOM      1  C   UNL     1       2.072   7.865  19.235  0.00  0.00    +0.000 A 
ATOM      2  C   UNL     1       2.018   6.818  20.168  0.00  0.00    +0.000 A 
ATOM      3  C   UNL     1       2.651   5.603  19.900  0.00  0.00    +0.000 A 
ATOM      4  C   UNL     1       3.365   5.443  18.710  0.00  0.00    +0.000 A 
ATOM      5  C   UNL     1       3.462   6.495  17.794  0.00  0.00    +0.000 A 
ATOM      6  C   UNL     1       2.803   7.703  18.050  0.00  0.00    +0.000 A 
ENDROOT
BRANCH   1   8
ATOM      7  O   UNL     1       1.273   9.986  18.687  0.00  0.00    +0.000 OA
ATOM      8  C   UNL     1       1.407   9.154  19.576  0.00  0.00    +0.000 C 
ATOM      9  N   UNL     1       1.046   9.311  20.902  0.00  0.00    +0.000 N 
ATOM     10  H   UNL     1       1.414   8.648  21.575  0.00  0.00    +0.000 HD
BRANCH   9  11
ATOM     11  C   UNL     1       0.365  10.421  21.460  0.00  0.00    +0.000 A 
ATOM     12  C   UNL     1       0.584  11.746  21.074  0.00  0.00    +0.000 A 
ATOM     13  C   UNL     1      -0.128  12.786  21.684  0.00  0.00    +0.000 A 
ATOM     14  C   UNL     1      -1.057  12.501  22.679  0.00  0.00    +0.000 A 
ATOM     15  F   UNL     1      -1.729  13.501  23.262  0.00  0.00    +0.000 F 
ATOM     16  C   UNL     1      -1.302  11.193  23.070  0.00  0.00    +0.000 A 
ATOM     17  C   UNL     1      -0.597  10.164  22.450  0.00  0.00    +0.000 A 
ATOM     18  F   UNL     1      -0.836   8.897  22.825  0.00  0.00    +0.000 F 
ENDBRANCH   9  11
ENDBRANCH   1   8
BRANCH   4  19
ATOM     19  S   UNL     1       4.147   3.875  18.367  0.00  0.00    +0.000 S 
ATOM     20  O   UNL     1       4.113   3.128  19.607  0.00  0.00    +0.000 OA
ATOM     21  O   UNL     1       3.509   3.339  17.176  0.00  0.00    +0.000 OA
BRANCH  19  22
ATOM     22  N   UNL     1       5.759   4.295  17.992  0.00  0.00    +0.000 N 
ATOM     23  C   UNL     1       6.568   4.935  19.045  0.00  0.00    +0.000 C 
ATOM     24  C   UNL     1       7.208   6.259  18.663  0.00  0.00    +0.000 C 
ATOM     25  C   UNL     1       7.258   6.632  17.190  0.00  0.00    +0.000 C 
ATOM     26  C   UNL     1       6.846   5.573  16.219  0.00  0.00    +0.000 A 
ATOM     27  C   UNL     1       7.111   5.787  14.854  0.00  0.00    +0.000 A 
ATOM     28  C   UNL     1       6.752   4.839  13.902  0.00  0.00    +0.000 A 
ATOM     29  C   UNL     1       6.148   3.657  14.309  0.00  0.00    +0.000 A 
ATOM     30  C   UNL     1       5.859   3.447  15.661  0.00  0.00    +0.000 A 
ATOM     31  C   UNL     1       6.164   4.421  16.620  0.00  0.00    +0.000 A 
ENDBRANCH  19  22
ENDBRANCH   4  19
TORSDOF 4
ENDMDL
MODEL 4
REMARK VINA RESULT:      -9.4      5.432      7.957
REMARK  Name = 
REMARK  4 active torsions:
REMARK  status: ('A' for Active; 'I' for Inactive)
REMARK    1  A    between atoms: C_2  and  C_12
REMARK    2  A    between atoms: N_3  and  C_4
REMARK    3  A    between atoms: C_15  and  S_16
REMARK    4  A    between atoms: S_16  and  N_19
REMARK                            x       y       z     vdW  Elec       q    Type
REMARK                         _______ _______ _______ _____ _____    ______ ____
ROOT
ATOM      1  C   UNL     1       2.201   8.168  18.674  0.00  0.00    +0.000 A 
ATOM      2  C   UNL     1       2.056   7.279  19.750  0.00  0.00    +0.000 A 
ATOM      3  C   UNL     1       2.668   6.024  19.714  0.00  0.00    +0.000 A 
ATOM      4  C   UNL     1       3.450   5.668  18.612  0.00  0.00    +0.000 A 
ATOM      5  C   UNL     1       3.636   6.565  17.555  0.00  0.00    +0.000 A 
ATOM      6  C   UNL     1       3.000   7.811  17.580  0.00  0.00    +0.000 A 
ENDROOT
BRANCH   1   8
ATOM      7  O   UNL     1       2.001  10.413  18.076  0.00  0.00    +0.000 OA
ATOM      8  C   UNL     1       1.555   9.508  18.770  0.00  0.00    +0.000 C 
ATOM      9  N   UNL     1       0.528   9.615  19.689  0.00  0.00    +0.000 N 
ATOM     10  H   UNL     1       0.406   8.859  20.355  0.00  0.00    +0.000 HD
BRANCH   9  11
ATOM     11  C   UNL     1      -0.266  10.763  19.930  0.00  0.00    +0.000 A 
ATOM     12  C   UNL     1       0.011  11.709  20.921  0.00  0.00    +0.000 A 
ATOM     13  C   UNL     1      -0.832  12.813  21.098  0.00  0.00    +0.000 A 
ATOM     14  C   UNL     1      -1.951  12.970  20.286  0.00  0.00    +0.000 A 
ATOM     15  F   UNL     1      -2.755  14.025  20.466  0.00  0.00    +0.000 F 
ATOM     16  C   UNL     1      -2.239  12.052  19.287  0.00  0.00    +0.000 A 
ATOM     17  C   UNL     1      -1.390  10.963  19.112  0.00  0.00    +0.000 A 
ATOM     18  F   UNL     1      -1.666  10.075  18.143  0.00  0.00    +0.000 F 
ENDBRANCH   9  11
ENDBRANCH   1   8
BRANCH   4  19
ATOM     19  S   UNL     1       4.204   4.050  18.565  0.00  0.00    +0.000 S 
ATOM     20  O   UNL     1       4.151   3.541  19.920  0.00  0.00    +0.000 OA
ATOM     21  O   UNL     1       3.561   3.318  17.486  0.00  0.00    +0.000 OA
BRANCH  19  22
ATOM     22  N   UNL     1       5.825   4.367  18.133  0.00  0.00    +0.000 N 
ATOM     23  C   UNL     1       6.707   4.966  19.152  0.00  0.00    +0.000 C 
ATOM     24  C   UNL     1       7.413   6.245  18.734  0.00  0.00    +0.000 C 
ATOM     25  C   UNL     1       7.437   6.600  17.256  0.00  0.00    +0.000 C 
ATOM     26  C   UNL     1       6.928   5.559  16.311  0.00  0.00    +0.000 A 
ATOM     27  C   UNL     1       7.160   5.744  14.936  0.00  0.00    +0.000 A 
ATOM     28  C   UNL     1       6.713   4.810  14.007  0.00  0.00    +0.000 A 
ATOM     29  C   UNL     1       6.052   3.672  14.447  0.00  0.00    +0.000 A 
ATOM     30  C   UNL     1       5.796   3.493  15.810  0.00  0.00    +0.000 A 
ATOM     31  C   UNL     1       6.192   4.455  16.747  0.00  0.00    +0.000 A 
ENDBRANCH  19  22
ENDBRANCH   4  19
TORSDOF 4
ENDMDL
MODEL 5
REMARK VINA RESULT:      -9.3      5.295      7.291
REMARK  Name = 
REMARK  4 active torsions:
REMARK  status: ('A' for Active; 'I' for Inactive)
REMARK    1  A    between atoms: C_2  and  C_12
REMARK    2  A    between atoms: N_3  and  C_4
REMARK    3  A    between atoms: C_15  and  S_16
REMARK    4  A    between atoms: S_16  and  N_19
REMARK                            x       y       z     vdW  Elec       q    Type
REMARK                         _______ _______ _______ _____ _____    ______ ____
ROOT
ATOM      1  C   UNL     1       2.072   7.929  19.224  0.00  0.00    +0.000 A 
ATOM      2  C   UNL     1       1.993   6.883  20.155  0.00  0.00    +0.000 A 
ATOM      3  C   UNL     1       2.588   5.649  19.882  0.00  0.00    +0.000 A 
ATOM      4  C   UNL     1       3.289   5.471  18.686  0.00  0.00    +0.000 A 
ATOM      5  C   UNL     1       3.411   6.521  17.772  0.00  0.00    +0.000 A 
ATOM      6  C   UNL     1       2.790   7.748  18.034  0.00  0.00    +0.000 A 
ENDROOT
BRANCH   1   8
ATOM      7  O   UNL     1       0.956   9.362  20.685  0.00  0.00    +0.000 OA
ATOM      8  C   UNL     1       1.448   9.237  19.571  0.00  0.00    +0.000 C 
ATOM      9  N   UNL     1       1.436  10.184  18.563  0.00  0.00    +0.000 N 
ATOM     10  H   UNL     1       1.670   9.879  17.624  0.00  0.00    +0.000 HD
BRANCH   9  11
ATOM     11  C   UNL     1       0.944  11.508  18.661  0.00  0.00    +0.000 A 
ATOM     12  C   UNL     1       1.760  12.638  18.766  0.00  0.00    +0.000 A 
ATOM     13  C   UNL     1       1.190  13.913  18.867  0.00  0.00    +0.000 A 
ATOM     14  C   UNL     1      -0.193  14.058  18.865  0.00  0.00    +0.000 A 
ATOM     15  F   UNL     1      -0.730  15.279  18.969  0.00  0.00    +0.000 F 
ATOM     16  C   UNL     1      -1.024  12.953  18.749  0.00  0.00    +0.000 A 
ATOM     17  C   UNL     1      -0.448  11.690  18.638  0.00  0.00    +0.000 A 
ATOM     18  F   UNL     1      -1.250  10.619  18.522  0.00  0.00    +0.000 F 
ENDBRANCH   9  11
ENDBRANCH   1   8
BRANCH   4  19
ATOM     19  S   UNL     1       4.022   3.881  18.336  0.00  0.00    +0.000 S 
ATOM     20  O   UNL     1       3.935   3.117  19.563  0.00  0.00    +0.000 OA
ATOM     21  O   UNL     1       3.391   3.385  17.123  0.00  0.00    +0.000 OA
BRANCH  19  22
ATOM     22  N   UNL     1       5.656   4.248  18.001  0.00  0.00    +0.000 N 
ATOM     23  C   UNL     1       6.465   4.841  19.081  0.00  0.00    +0.000 C 
ATOM     24  C   UNL     1       7.160   6.147  18.735  0.00  0.00    +0.000 C 
ATOM     25  C   UNL     1       7.254   6.542  17.270  0.00  0.00    +0.000 C 
ATOM     26  C   UNL     1       6.824   5.515  16.272  0.00  0.00    +0.000 A 
ATOM     27  C   UNL     1       7.126   5.742  14.917  0.00  0.00    +0.000 A 
ATOM     28  C   UNL     1       6.754   4.823  13.942  0.00  0.00    +0.000 A 
ATOM     29  C   UNL     1       6.099   3.658  14.316  0.00  0.00    +0.000 A 
ATOM     30  C   UNL     1       5.774   3.436  15.658  0.00  0.00    +0.000 A 
ATOM     31  C   UNL     1       6.094   4.382  16.640  0.00  0.00    +0.000 A 
ENDBRANCH  19  22
ENDBRANCH   4  19
TORSDOF 4
ENDMDL
MODEL 6
REMARK VINA RESULT:      -9.3      4.967      7.230
REMARK  Name = 
REMARK  4 active torsions:
REMARK  status: ('A' for Active; 'I' for Inactive)
REMARK    1  A    between atoms: C_2  and  C_12
REMARK    2  A    between atoms: N_3  and  C_4
REMARK    3  A    between atoms: C_15  and  S_16
REMARK    4  A    between atoms: S_16  and  N_19
REMARK                            x       y       z     vdW  Elec       q    Type
REMARK                         _______ _______ _______ _____ _____    ______ ____
ROOT
ATOM      1  C   UNL     1       1.960   7.827  19.495  0.00  0.00    +0.000 A 
ATOM      2  C   UNL     1       2.577   7.672  18.245  0.00  0.00    +0.000 A 
ATOM      3  C   UNL     1       3.111   6.437  17.870  0.00  0.00    +0.000 A 
ATOM      4  C   UNL     1       3.002   5.347  18.738  0.00  0.00    +0.000 A 
ATOM      5  C   UNL     1       2.351   5.480  19.968  0.00  0.00    +0.000 A 
ATOM      6  C   UNL     1       1.842   6.725  20.353  0.00  0.00    +0.000 A 
ENDROOT
BRANCH   1   8
ATOM      7  O   UNL     1       1.151   9.396  21.018  0.00  0.00    +0.000 OA
ATOM      8  C   UNL     1       1.378   9.155  19.840  0.00  0.00    +0.000 C 
ATOM      9  N   UNL     1       1.097   9.983  18.768  0.00  0.00    +0.000 N 
ATOM     10  H   UNL     1       1.122   9.580  17.838  0.00  0.00    +0.000 HD
BRANCH   9  11
ATOM     11  C   UNL     1       0.585  11.302  18.839  0.00  0.00    +0.000 A 
ATOM     12  C   UNL     1      -0.739  11.610  19.165  0.00  0.00    +0.000 A 
ATOM     13  C   UNL     1      -1.164  12.943  19.205  0.00  0.00    +0.000 A 
ATOM     14  C   UNL     1      -0.268  13.967  18.917  0.00  0.00    +0.000 A 
ATOM     15  F   UNL     1      -0.685  15.238  18.951  0.00  0.00    +0.000 F 
ATOM     16  C   UNL     1       1.054  13.688  18.604  0.00  0.00    +0.000 A 
ATOM     17  C   UNL     1       1.471  12.360  18.577  0.00  0.00    +0.000 A 
ATOM     18  F   UNL     1       2.752  12.088  18.277  0.00  0.00    +0.000 F 
ENDBRANCH   9  11
ENDBRANCH   1   8
BRANCH   4  19
ATOM     19  S   UNL     1       3.714   3.780  18.260  0.00  0.00    +0.000 S 
ATOM     20  O   UNL     1       3.535   2.893  19.390  0.00  0.00    +0.000 OA
ATOM     21  O   UNL     1       3.144   3.437  16.967  0.00  0.00    +0.000 OA
BRANCH  19  22
ATOM     22  N   UNL     1       5.374   4.130  18.060  0.00  0.00    +0.000 N 
ATOM     23  C   UNL     1       6.113   4.657  19.221  0.00  0.00    +0.000 C 
ATOM     24  C   UNL     1       6.853   5.963  18.987  0.00  0.00    +0.000 C 
ATOM     25  C   UNL     1       7.059   6.422  17.552  0.00  0.00    +0.000 C 
ATOM     26  C   UNL     1       6.685   5.450  16.480  0.00  0.00    +0.000 A 
ATOM     27  C   UNL     1       7.087   5.732  15.161  0.00  0.00    +0.000 A 
ATOM     28  C   UNL     1       6.771   4.866  14.120  0.00  0.00    +0.000 A 
ATOM     29  C   UNL     1       6.071   3.698  14.392  0.00  0.00    +0.000 A 
ATOM     30  C   UNL     1       5.647   3.422  15.696  0.00  0.00    +0.000 A 
ATOM     31  C   UNL     1       5.911   4.316  16.741  0.00  0.00    +0.000 A 
ENDBRANCH  19  22
ENDBRANCH   4  19
TORSDOF 4
ENDMDL
MODEL 7
REMARK VINA RESULT:      -9.2      5.489      8.188
REMARK  Name = 
REMARK  4 active torsions:
REMARK  status: ('A' for Active; 'I' for Inactive)
REMARK    1  A    between atoms: C_2  and  C_12
REMARK    2  A    between atoms: N_3  and  C_4
REMARK    3  A    between atoms: C_15  and  S_16
REMARK    4  A    between atoms: S_16  and  N_19
REMARK                            x       y       z     vdW  Elec       q    Type
REMARK                         _______ _______ _______ _____ _____    ______ ____
ROOT
ATOM      1  C   UNL     1       1.969   7.855  19.413  0.00  0.00    +0.000 A 
ATOM      2  C   UNL     1       2.553   7.668  18.151  0.00  0.00    +0.000 A 
ATOM      3  C   UNL     1       3.141   6.445  17.821  0.00  0.00    +0.000 A 
ATOM      4  C   UNL     1       3.119   5.397  18.745  0.00  0.00    +0.000 A 
ATOM      5  C   UNL     1       2.502   5.560  19.988  0.00  0.00    +0.000 A 
ATOM      6  C   UNL     1       1.938   6.795  20.329  0.00  0.00    +0.000 A 
ENDROOT
BRANCH   1   8
ATOM      7  O   UNL     1       1.697  10.146  19.073  0.00  0.00    +0.000 OA
ATOM      8  C   UNL     1       1.328   9.168  19.709  0.00  0.00    +0.000 C 
ATOM      9  N   UNL     1       0.396   9.162  20.731  0.00  0.00    +0.000 N 
ATOM     10  H   UNL     1       0.347   8.341  21.324  0.00  0.00    +0.000 HD
BRANCH   9  11
ATOM     11  C   UNL     1      -0.377  10.266  21.167  0.00  0.00    +0.000 A 
ATOM     12  C   UNL     1      -0.991  11.179  20.305  0.00  0.00    +0.000 A 
ATOM     13  C   UNL     1      -1.733  12.248  20.820  0.00  0.00    +0.000 A 
ATOM     14  C   UNL     1      -1.859  12.407  22.197  0.00  0.00    +0.000 A 
ATOM     15  F   UNL     1      -2.563  13.436  22.681  0.00  0.00    +0.000 F 
ATOM     16  C   UNL     1      -1.270  11.507  23.073  0.00  0.00    +0.000 A 
ATOM     17  C   UNL     1      -0.544  10.440  22.551  0.00  0.00    +0.000 A 
ATOM     18  F   UNL     1       0.025   9.566  23.398  0.00  0.00    +0.000 F 
ENDBRANCH   9  11
ENDBRANCH   1   8
BRANCH   4  19
ATOM     19  S   UNL     1       3.899   3.847  18.322  0.00  0.00    +0.000 S 
ATOM     20  O   UNL     1       3.811   3.015  19.504  0.00  0.00    +0.000 OA
ATOM     21  O   UNL     1       3.302   3.404  17.072  0.00  0.00    +0.000 OA
BRANCH  19  22
ATOM     22  N   UNL     1       5.528   4.274  18.039  0.00  0.00    +0.000 N 
ATOM     23  C   UNL     1       6.276   4.913  19.137  0.00  0.00    +0.000 C 
ATOM     24  C   UNL     1       6.931   6.240  18.795  0.00  0.00    +0.000 C 
ATOM     25  C   UNL     1       7.062   6.618  17.328  0.00  0.00    +0.000 C 
ATOM     26  C   UNL     1       6.707   5.561  16.332  0.00  0.00    +0.000 A 
ATOM     27  C   UNL     1       7.047   5.780  14.985  0.00  0.00    +0.000 A 
ATOM     28  C   UNL     1       6.745   4.834  14.011  0.00  0.00    +0.000 A 
ATOM     29  C   UNL     1       6.123   3.649  14.380  0.00  0.00    +0.000 A 
ATOM     30  C   UNL     1       5.760   3.434  15.714  0.00  0.00    +0.000 A 
ATOM     31  C   UNL     1       6.009   4.405  16.691  0.00  0.00    +0.000 A 
ENDBRANCH  19  22
ENDBRANCH   4  19
TORSDOF 4
ENDMDL
MODEL 8
REMARK VINA RESULT:      -9.2      5.043      7.843
REMARK  Name = 
REMARK  4 active torsions:
REMARK  status: ('A' for Active; 'I' for Inactive)
REMARK    1  A    between atoms: C_2  and  C_12
REMARK    2  A    between atoms: N_3  and  C_4
REMARK    3  A    between atoms: C_15  and  S_16
REMARK    4  A    between atoms: S_16  and  N_19
REMARK                            x       y       z     vdW  Elec       q    Type
REMARK                         _______ _______ _______ _____ _____    ______ ____
ROOT
ATOM      1  C   UNL     1       2.213   8.215  18.582  0.00  0.00    +0.000 A 
ATOM      2  C   UNL     1       2.033   7.339  19.663  0.00  0.00    +0.000 A 
ATOM      3  C   UNL     1       2.649   6.085  19.663  0.00  0.00    +0.000 A 
ATOM      4  C   UNL     1       3.470   5.718  18.593  0.00  0.00    +0.000 A 
ATOM      5  C   UNL     1       3.690   6.602  17.533  0.00  0.00    +0.000 A 
ATOM      6  C   UNL     1       3.050   7.847  17.520  0.00  0.00    +0.000 A 
ENDROOT
BRANCH   1   8
ATOM      7  O   UNL     1       2.041  10.457  17.966  0.00  0.00    +0.000 OA
ATOM      8  C   UNL     1       1.561   9.554  18.639  0.00  0.00    +0.000 C 
ATOM      9  N   UNL     1       0.488   9.663  19.504  0.00  0.00    +0.000 N 
ATOM     10  H   UNL     1       0.334   8.910  20.166  0.00  0.00    +0.000 HD
BRANCH   9  11
ATOM     11  C   UNL     1      -0.319  10.811  19.700  0.00  0.00    +0.000 A 
ATOM     12  C   UNL     1      -1.533  11.032  19.044  0.00  0.00    +0.000 A 
ATOM     13  C   UNL     1      -2.266  12.200  19.290  0.00  0.00    +0.000 A 
ATOM     14  C   UNL     1      -1.784  13.146  20.189  0.00  0.00    +0.000 A 
ATOM     15  F   UNL     1      -2.486  14.262  20.413  0.00  0.00    +0.000 F 
ATOM     16  C   UNL     1      -0.588  12.943  20.862  0.00  0.00    +0.000 A 
ATOM     17  C   UNL     1       0.128  11.774  20.619  0.00  0.00    +0.000 A 
ATOM     18  F   UNL     1       1.285  11.574  21.272  0.00  0.00    +0.000 F 
ENDBRANCH   9  11
ENDBRANCH   1   8
BRANCH   4  19
ATOM     19  S   UNL     1       4.228   4.102  18.593  0.00  0.00    +0.000 S 
ATOM     20  O   UNL     1       4.180   3.632  19.962  0.00  0.00    +0.000 OA
ATOM     21  O   UNL     1       3.586   3.337  17.536  0.00  0.00    +0.000 OA
BRANCH  19  22
ATOM     22  N   UNL     1       5.848   4.411  18.149  0.00  0.00    +0.000 N 
ATOM     23  C   UNL     1       6.734   5.027  19.153  0.00  0.00    +0.000 C 
ATOM     24  C   UNL     1       7.439   6.298  18.710  0.00  0.00    +0.000 C 
ATOM     25  C   UNL     1       7.456   6.628  17.226  0.00  0.00    +0.000 C 
ATOM     26  C   UNL     1       6.943   5.572  16.301  0.00  0.00    +0.000 A 
ATOM     27  C   UNL     1       7.170   5.732  14.922  0.00  0.00    +0.000 A 
ATOM     28  C   UNL     1       6.718   4.783  14.011  0.00  0.00    +0.000 A 
ATOM     29  C   UNL     1       6.059   3.653  14.473  0.00  0.00    +0.000 A 
ATOM     30  C   UNL     1       5.809   3.497  15.841  0.00  0.00    +0.000 A 
ATOM     31  C   UNL     1       6.208   4.475  16.759  0.00  0.00    +0.000 A 
ENDBRANCH  19  22
ENDBRANCH   4  19
TORSDOF 4
ENDMDL
MODEL 9
REMARK VINA RESULT:      -9.1      5.535      8.226
REMARK  Name = 
REMARK  4 active torsions:
REMARK  status: ('A' for Active; 'I' for Inactive)
REMARK    1  A    between atoms: C_2  and  C_12
REMARK    2  A    between atoms: N_3  and  C_4
REMARK    3  A    between atoms: C_15  and  S_16
REMARK    4  A    between atoms: S_16  and  N_19
REMARK                            x       y       z     vdW  Elec       q    Type
REMARK                         _______ _______ _______ _____ _____    ______ ____
ROOT
ATOM      1  C   UNL     1       1.716   7.482  20.357  0.00  0.00    +0.000 A 
ATOM      2  C   UNL     1       1.599   6.197  20.909  0.00  0.00    +0.000 A 
ATOM      3  C   UNL     1       2.064   5.083  20.207  0.00  0.00    +0.000 A 
ATOM      4  C   UNL     1       2.673   5.258  18.961  0.00  0.00    +0.000 A 
ATOM      5  C   UNL     1       2.833   6.538  18.423  0.00  0.00    +0.000 A 
ATOM      6  C   UNL     1       2.342   7.650  19.115  0.00  0.00    +0.000 A 
ENDROOT
BRANCH   1   8
ATOM      7  O   UNL     1       1.853   8.944  22.167  0.00  0.00    +0.000 OA
ATOM      8  C   UNL     1       1.233   8.644  21.156  0.00  0.00    +0.000 C 
ATOM      9  N   UNL     1       0.077   9.249  20.697  0.00  0.00    +0.000 N 
ATOM     10  H   UNL     1      -0.460   8.767  19.983  0.00  0.00    +0.000 HD
BRANCH   9  11
ATOM     11  C   UNL     1      -0.550  10.391  21.253  0.00  0.00    +0.000 A 
ATOM     12  C   UNL     1      -0.868  10.525  22.607  0.00  0.00    +0.000 A 
ATOM     13  C   UNL     1      -1.495  11.686  23.074  0.00  0.00    +0.000 A 
ATOM     14  C   UNL     1      -1.807  12.711  22.187  0.00  0.00    +0.000 A 
ATOM     15  F   UNL     1      -2.413  13.815  22.639  0.00  0.00    +0.000 F 
ATOM     16  C   UNL     1      -1.490  12.608  20.840  0.00  0.00    +0.000 A 
ATOM     17  C   UNL     1      -0.856  11.454  20.388  0.00  0.00    +0.000 A 
ATOM     18  F   UNL     1      -0.544  11.353  19.085  0.00  0.00    +0.000 F 
ENDBRANCH   9  11
ENDBRANCH   1   8
BRANCH   4  19
ATOM     19  S   UNL     1       3.238   3.823  18.061  0.00  0.00    +0.000 S 
ATOM     20  O   UNL     1       2.859   2.673  18.854  0.00  0.00    +0.000 OA
ATOM     21  O   UNL     1       2.749   3.962  16.699  0.00  0.00    +0.000 OA
BRANCH  19  22
ATOM     22  N   UNL     1       4.938   3.985  18.060  0.00  0.00    +0.000 N 
ATOM     23  C   UNL     1       5.602   4.311  19.335  0.00  0.00    +0.000 C 
ATOM     24  C   UNL     1       6.504   5.533  19.309  0.00  0.00    +0.000 C 
ATOM     25  C   UNL     1       6.914   6.091  17.956  0.00  0.00    +0.000 C 
ATOM     26  C   UNL     1       6.553   5.273  16.758  0.00  0.00    +0.000 A 
ATOM     27  C   UNL     1       7.124   5.622  15.521  0.00  0.00    +0.000 A 
ATOM     28  C   UNL     1       6.828   4.898  14.370  0.00  0.00    +0.000 A 
ATOM     29  C   UNL     1       5.977   3.804  14.452  0.00  0.00    +0.000 A 
ATOM     30  C   UNL     1       5.386   3.466  15.674  0.00  0.00    +0.000 A 
ATOM     31  C   UNL     1       5.633   4.223  16.825  0.00  0.00    +0.000 A 
ENDBRANCH  19  22
ENDBRANCH   4  19
TORSDOF 4
ENDMDL
