MODEL 1
REMARK VINA RESULT:      -9.0      0.000      0.000
REMARK  Name = 
REMARK  5 active torsions:
REMARK  status: ('A' for Active; 'I' for Inactive)
REMARK    1  A    between atoms: C_1  and  C_2
REMARK    2  A    between atoms: C_5  and  N_6
REMARK    3  A    between atoms: N_9  and  C_10
REMARK    4  A    between atoms: C_14  and  C_15
REMARK    5  A    between atoms: C_15  and  N_16
REMARK                            x       y       z     vdW  Elec       q    Type
REMARK                         _______ _______ _______ _____ _____    ______ ____
ROOT
ATOM      1  C   UNL     1       7.612   7.931  17.789  0.00  0.00    +0.000 A 
ATOM      2  C   UNL     1       8.226   7.086  18.718  0.00  0.00    +0.000 A 
ATOM      3  C   UNL     1       7.877   5.746  18.811  0.00  0.00    +0.000 A 
ATOM      4  C   UNL     1       6.861   5.242  18.012  0.00  0.00    +0.000 A 
ATOM      5  C   UNL     1       6.135   6.094  17.160  0.00  0.00    +0.000 A 
ATOM      6  C   UNL     1       6.540   7.438  17.033  0.00  0.00    +0.000 A 
ENDROOT
BRANCH   1  10
ATOM      7  N   UNL     1       9.170  11.216  18.122  0.00  0.00    +0.000 N 
ATOM      8  C   UNL     1       8.848   9.936  18.495  0.00  0.00    +0.000 C 
ATOM      9  O   UNL     1       9.283   9.490  19.556  0.00  0.00    +0.000 OA
ATOM     10  N   UNL     1       8.076   9.257  17.584  0.00  0.00    +0.000 N 
ATOM     11  H   UNL     1       8.654  11.640  17.366  0.00  0.00    +0.000 HD
ATOM     12  H   UNL     1       8.090   9.594  16.631  0.00  0.00    +0.000 HD
BRANCH   7  17
ATOM     13  C   UNL     1       8.498  15.956  17.777  0.00  0.00    +0.000 C 
ATOM     14  C   UNL     1       9.323  14.898  18.509  0.00  0.00    +0.000 C 
ATOM     15  C   UNL     1       8.406  13.981  19.328  0.00  0.00    +0.000 C 
ATOM     16  C   UNL     1       9.196  12.866  20.009  0.00  0.00    +0.000 C 
ATOM     17  C   UNL     1      10.006  12.038  18.999  0.00  0.00    +0.000 C 
ATOM     18  C   UNL     1      10.928  12.949  18.190  0.00  0.00    +0.000 C 
ATOM     19  C   UNL     1      10.177  14.096  17.518  0.00  0.00    +0.000 C 
ENDBRANCH   7  17
ENDBRANCH   1  10
BRANCH   5  20
ATOM     20  C   UNL     1       4.916   5.576  16.436  0.00  0.00    +0.000 C 
BRANCH  20  21
ATOM     21  N   UNL     1       3.919   4.991  17.297  0.00  0.00    +0.000 N 
ATOM     22  N   UNL     1       3.657   3.631  17.348  0.00  0.00    +0.000 NA
ATOM     23  C   UNL     1       2.783   3.528  18.303  0.00  0.00    +0.000 A 
ATOM     24  C   UNL     1       2.113   2.300  18.789  0.00  0.00    +0.000 A 
ATOM     25  C   UNL     1       1.269   2.417  19.831  0.00  0.00    +0.000 A 
ATOM     26  C   UNL     1       1.027   3.701  20.466  0.00  0.00    +0.000 A 
ATOM     27  C   UNL     1       1.614   4.805  19.985  0.00  0.00    +0.000 A 
ATOM     28  N   UNL     1       2.452   4.694  18.913  0.00  0.00    +0.000 N 
ATOM     29  C   UNL     1       3.163   5.674  18.264  0.00  0.00    +0.000 A 
ATOM     30  O   UNL     1       3.151   6.880  18.478  0.00  0.00    +0.000 OA
ENDBRANCH  20  21
ENDBRANCH   5  20
TORSDOF 4
ENDMDL
MODEL 2
REMARK VINA RESULT:      -8.9      1.175      1.630
REMARK  Name = 
REMARK  5 active torsions:
REMARK  status: ('A' for Active; 'I' for Inactive)
REMARK    1  A    between atoms: C_1  and  C_2
REMARK    2  A    between atoms: C_5  and  N_6
REMARK    3  A    between atoms: N_9  and  C_10
REMARK    4  A    between atoms: C_14  and  C_15
REMARK    5  A    between atoms: C_15  and  N_16
REMARK                            x       y       z     vdW  Elec       q    Type
REMARK                         _______ _______ _______ _____ _____    ______ ____
ROOT
ATOM      1  C   UNL     1       7.874   8.390  17.916  0.00  0.00    +0.000 A 
ATOM      2  C   UNL     1       8.446   7.408  18.729  0.00  0.00    +0.000 A 
ATOM      3  C   UNL     1       7.882   6.145  18.836  0.00  0.00    +0.000 A 
ATOM      4  C   UNL     1       6.696   5.863  18.172  0.00  0.00    +0.000 A 
ATOM      5  C   UNL     1       6.026   6.868  17.451  0.00  0.00    +0.000 A 
ATOM      6  C   UNL     1       6.642   8.126  17.304  0.00  0.00    +0.000 A 
ENDROOT
BRANCH   1  10
ATOM      7  N   UNL     1       9.684  11.544  18.252  0.00  0.00    +0.000 N 
ATOM      8  C   UNL     1       9.123  10.367  18.679  0.00  0.00    +0.000 C 
ATOM      9  O   UNL     1       9.212  10.052  19.864  0.00  0.00    +0.000 OA
ATOM     10  N   UNL     1       8.534   9.626  17.683  0.00  0.00    +0.000 N 
ATOM     11  H   UNL     1       9.436  11.891  17.337  0.00  0.00    +0.000 HD
ATOM     12  H   UNL     1       8.834   9.812  16.736  0.00  0.00    +0.000 HD
BRANCH   7  17
ATOM     13  C   UNL     1      10.915  15.882  16.610  0.00  0.00    +0.000 C 
ATOM     14  C   UNL     1      10.972  14.996  17.853  0.00  0.00    +0.000 C 
ATOM     15  C   UNL     1       9.554  14.651  18.327  0.00  0.00    +0.000 C 
ATOM     16  C   UNL     1       9.579  13.702  19.522  0.00  0.00    +0.000 C 
ATOM     17  C   UNL     1      10.360  12.415  19.215  0.00  0.00    +0.000 C 
ATOM     18  C   UNL     1      11.776  12.755  18.753  0.00  0.00    +0.000 C 
ATOM     19  C   UNL     1      11.793  13.729  17.576  0.00  0.00    +0.000 C 
ENDBRANCH   7  17
ENDBRANCH   1  10
BRANCH   5  20
ATOM     20  C   UNL     1       4.650   6.603  16.890  0.00  0.00    +0.000 C 
BRANCH  20  21
ATOM     21  N   UNL     1       3.841   5.722  17.694  0.00  0.00    +0.000 N 
ATOM     22  N   UNL     1       3.143   6.138  18.817  0.00  0.00    +0.000 NA
ATOM     23  C   UNL     1       2.483   5.078  19.172  0.00  0.00    +0.000 A 
ATOM     24  C   UNL     1       1.579   4.920  20.335  0.00  0.00    +0.000 A 
ATOM     25  C   UNL     1       0.956   3.737  20.489  0.00  0.00    +0.000 A 
ATOM     26  C   UNL     1       1.154   2.651  19.544  0.00  0.00    +0.000 A 
ATOM     27  C   UNL     1       2.005   2.802  18.521  0.00  0.00    +0.000 A 
ATOM     28  N   UNL     1       2.657   3.994  18.376  0.00  0.00    +0.000 N 
ATOM     29  C   UNL     1       3.558   4.376  17.410  0.00  0.00    +0.000 A 
ATOM     30  O   UNL     1       4.014   3.700  16.496  0.00  0.00    +0.000 OA
ENDBRANCH  20  21
ENDBRANCH   5  20
TORSDOF 4
ENDMDL
MODEL 3
REMARK VINA RESULT:      -8.7      4.986      7.386
REMARK  Name = 
REMARK  5 active torsions:
REMARK  status: ('A' for Active; 'I' for Inactive)
REMARK    1  A    between atoms: C_1  and  C_2
REMARK    2  A    between atoms: C_5  and  N_6
REMARK    3  A    between atoms: N_9  and  C_10
REMARK    4  A    between atoms: C_14  and  C_15
REMARK    5  A    between atoms: C_15  and  N_16
REMARK                            x       y       z     vdW  Elec       q    Type
REMARK                         _______ _______ _______ _____ _____    ______ ____
ROOT
ATOM      1  C   UNL     1       2.640   6.180  18.700  0.00  0.00    +0.000 A 
ATOM      2  C   UNL     1       1.729   5.223  18.245  0.00  0.00    +0.000 A 
ATOM      3  C   UNL     1       2.154   3.978  17.800  0.00  0.00    +0.000 A 
ATOM      4  C   UNL     1       3.511   3.695  17.748  0.00  0.00    +0.000 A 
ATOM      5  C   UNL     1       4.460   4.681  18.075  0.00  0.00    +0.000 A 
ATOM      6  C   UNL     1       4.011   5.917  18.580  0.00  0.00    +0.000 A 
ENDROOT
BRANCH   1  10
ATOM      7  N   UNL     1       1.487   9.583  19.349  0.00  0.00    +0.000 N 
ATOM      8  C   UNL     1       1.866   8.511  18.582  0.00  0.00    +0.000 C 
ATOM      9  O   UNL     1       1.850   8.612  17.356  0.00  0.00    +0.000 OA
ATOM     10  N   UNL     1       2.197   7.388  19.301  0.00  0.00    +0.000 N 
ATOM     11  H   UNL     1       1.693   9.563  20.337  0.00  0.00    +0.000 HD
ATOM     12  H   UNL     1       1.835   7.324  20.242  0.00  0.00    +0.000 HD
BRANCH   7  17
ATOM     13  C   UNL     1      -1.038  12.618  22.078  0.00  0.00    +0.000 C 
ATOM     14  C   UNL     1      -0.451  12.449  20.678  0.00  0.00    +0.000 C 
ATOM     15  C   UNL     1       1.077  12.330  20.752  0.00  0.00    +0.000 C 
ATOM     16  C   UNL     1       1.686  12.081  19.375  0.00  0.00    +0.000 C 
ATOM     17  C   UNL     1       1.091  10.834  18.702  0.00  0.00    +0.000 C 
ATOM     18  C   UNL     1      -0.429  10.956  18.617  0.00  0.00    +0.000 C 
ATOM     19  C   UNL     1      -1.073  11.236  19.973  0.00  0.00    +0.000 C 
ENDBRANCH   7  17
ENDBRANCH   1  10
BRANCH   5  20
ATOM     20  C   UNL     1       5.928   4.423  17.838  0.00  0.00    +0.000 C 
BRANCH  20  21
ATOM     21  N   UNL     1       6.307   4.386  16.448  0.00  0.00    +0.000 N 
ATOM     22  N   UNL     1       5.796   3.470  15.541  0.00  0.00    +0.000 NA
ATOM     23  C   UNL     1       6.313   3.845  14.410  0.00  0.00    +0.000 A 
ATOM     24  C   UNL     1       6.140   3.214  13.081  0.00  0.00    +0.000 A 
ATOM     25  C   UNL     1       6.734   3.801  12.026  0.00  0.00    +0.000 A 
ATOM     26  C   UNL     1       7.512   5.020  12.179  0.00  0.00    +0.000 A 
ATOM     27  C   UNL     1       7.687   5.552  13.396  0.00  0.00    +0.000 A 
ATOM     28  N   UNL     1       7.105   4.944  14.472  0.00  0.00    +0.000 N 
ATOM     29  C   UNL     1       7.139   5.311  15.796  0.00  0.00    +0.000 A 
ATOM     30  O   UNL     1       7.753   6.241  16.304  0.00  0.00    +0.000 OA
ENDBRANCH  20  21
ENDBRANCH   5  20
TORSDOF 4
ENDMDL
MODEL 4
REMARK VINA RESULT:      -8.7      6.273      9.823
REMARK  Name = 
REMARK  5 active torsions:
REMARK  status: ('A' for Active; 'I' for Inactive)
REMARK    1  A    between atoms: C_1  and  C_2
REMARK    2  A    between atoms: C_5  and  N_6
REMARK    3  A    between atoms: N_9  and  C_10
REMARK    4  A    between atoms: C_14  and  C_15
REMARK    5  A    between atoms: C_15  and  N_16
REMARK                            x       y       z     vdW  Elec       q    Type
REMARK                         _______ _______ _______ _____ _____    ______ ____
ROOT
ATOM      1  C   UNL     1       0.960   9.042  21.744  0.00  0.00    +0.000 A 
ATOM      2  C   UNL     1       0.416   9.101  23.030  0.00  0.00    +0.000 A 
ATOM      3  C   UNL     1      -0.484  10.095  23.385  0.00  0.00    +0.000 A 
ATOM      4  C   UNL     1      -0.810  11.086  22.470  0.00  0.00    +0.000 A 
ATOM      5  C   UNL     1      -0.181  11.131  21.213  0.00  0.00    +0.000 A 
ATOM      6  C   UNL     1       0.685  10.082  20.847  0.00  0.00    +0.000 A 
ENDROOT
BRANCH   1  10
ATOM      7  N   UNL     1       2.802   6.538  19.827  0.00  0.00    +0.000 N 
ATOM      8  C   UNL     1       2.041   7.663  20.018  0.00  0.00    +0.000 C 
ATOM      9  O   UNL     1       1.709   8.338  19.044  0.00  0.00    +0.000 OA
ATOM     10  N   UNL     1       1.756   7.940  21.333  0.00  0.00    +0.000 N 
ATOM     11  H   UNL     1       2.898   5.888  20.593  0.00  0.00    +0.000 HD
ATOM     12  H   UNL     1       2.365   7.531  22.028  0.00  0.00    +0.000 HD
BRANCH   7  17
ATOM     13  C   UNL     1       3.814   1.885  19.227  0.00  0.00    +0.000 C 
ATOM     14  C   UNL     1       3.744   3.217  18.481  0.00  0.00    +0.000 C 
ATOM     15  C   UNL     1       2.312   3.766  18.504  0.00  0.00    +0.000 C 
ATOM     16  C   UNL     1       2.227   5.134  17.833  0.00  0.00    +0.000 C 
ATOM     17  C   UNL     1       3.190   6.147  18.472  0.00  0.00    +0.000 C 
ATOM     18  C   UNL     1       4.619   5.607  18.440  0.00  0.00    +0.000 C 
ATOM     19  C   UNL     1       4.739   4.223  19.076  0.00  0.00    +0.000 C 
ENDBRANCH   7  17
ENDBRANCH   1  10
BRANCH   5  20
ATOM     20  C   UNL     1      -0.403  12.313  20.300  0.00  0.00    +0.000 C 
BRANCH  20  21
ATOM     21  N   UNL     1      -1.411  12.102  19.292  0.00  0.00    +0.000 N 
ATOM     22  N   UNL     1      -1.135  11.599  18.030  0.00  0.00    +0.000 NA
ATOM     23  C   UNL     1      -2.310  11.476  17.490  0.00  0.00    +0.000 A 
ATOM     24  C   UNL     1      -2.635  11.006  16.124  0.00  0.00    +0.000 A 
ATOM     25  C   UNL     1      -3.935  10.911  15.786  0.00  0.00    +0.000 A 
ATOM     26  C   UNL     1      -4.987  11.250  16.730  0.00  0.00    +0.000 A 
ATOM     27  C   UNL     1      -4.669  11.710  17.948  0.00  0.00    +0.000 A 
ATOM     28  N   UNL     1      -3.351  11.830  18.285  0.00  0.00    +0.000 N 
ATOM     29  C   UNL     1      -2.795  12.264  19.464  0.00  0.00    +0.000 A 
ATOM     30  O   UNL     1      -3.372  12.694  20.455  0.00  0.00    +0.000 OA
ENDBRANCH  20  21
ENDBRANCH   5  20
TORSDOF 4
ENDMDL
MODEL 5
REMARK VINA RESULT:      -8.6      2.396      3.255
REMARK  Name = 
REMARK  5 active torsions:
REMARK  status: ('A' for Active; 'I' for Inactive)
REMARK    1  A    between atoms: C_1  and  C_2
REMARK    2  A    between atoms: C_5  and  N_6
REMARK    3  A    between atoms: N_9  and  C_10
REMARK    4  A    between atoms: C_14  and  C_15
REMARK    5  A    between atoms: C_15  and  N_16
REMARK                            x       y       z     vdW  Elec       q    Type
REMARK                         _______ _______ _______ _____ _____    ______ ____
ROOT
ATOM      1  C   UNL     1       6.615   7.095  17.144  0.00  0.00    +0.000 A 
ATOM      2  C   UNL     1       7.336   5.963  16.756  0.00  0.00    +0.000 A 
ATOM      3  C   UNL     1       6.705   4.746  16.542  0.00  0.00    +0.000 A 
ATOM      4  C   UNL     1       5.342   4.628  16.773  0.00  0.00    +0.000 A 
ATOM      5  C   UNL     1       4.610   5.713  17.290  0.00  0.00    +0.000 A 
ATOM      6  C   UNL     1       5.253   6.957  17.445  0.00  0.00    +0.000 A 
ENDROOT
BRANCH   1  10
ATOM      7  N   UNL     1       8.661   9.985  18.035  0.00  0.00    +0.000 N 
ATOM      8  C   UNL     1       8.214   8.691  18.116  0.00  0.00    +0.000 C 
ATOM      9  O   UNL     1       8.724   7.928  18.934  0.00  0.00    +0.000 OA
ATOM     10  N   UNL     1       7.231   8.373  17.210  0.00  0.00    +0.000 N 
ATOM     11  H   UNL     1       8.111  10.652  17.513  0.00  0.00    +0.000 HD
ATOM     12  H   UNL     1       7.161   8.957  16.388  0.00  0.00    +0.000 HD
BRANCH   7  17
ATOM     13  C   UNL     1       9.468  14.716  18.042  0.00  0.00    +0.000 C 
ATOM     14  C   UNL     1       9.940  13.405  18.668  0.00  0.00    +0.000 C 
ATOM     15  C   UNL     1       8.798  12.750  19.456  0.00  0.00    +0.000 C 
ATOM     16  C   UNL     1       9.219  11.398  20.028  0.00  0.00    +0.000 C 
ATOM     17  C   UNL     1       9.721  10.443  18.934  0.00  0.00    +0.000 C 
ATOM     18  C   UNL     1      10.866  11.090  18.155  0.00  0.00    +0.000 C 
ATOM     19  C   UNL     1      10.493  12.460  17.592  0.00  0.00    +0.000 C 
ENDBRANCH   7  17
ENDBRANCH   1  10
BRANCH   5  20
ATOM     20  C   UNL     1       3.173   5.521  17.711  0.00  0.00    +0.000 C 
BRANCH  20  21
ATOM     21  N   UNL     1       2.633   6.607  18.489  0.00  0.00    +0.000 N 
ATOM     22  N   UNL     1       2.270   7.829  17.946  0.00  0.00    +0.000 NA
ATOM     23  C   UNL     1       1.750   8.465  18.953  0.00  0.00    +0.000 A 
ATOM     24  C   UNL     1       1.208   9.843  18.973  0.00  0.00    +0.000 A 
ATOM     25  C   UNL     1       0.670  10.288  20.123  0.00  0.00    +0.000 A 
ATOM     26  C   UNL     1       0.611   9.445  21.306  0.00  0.00    +0.000 A 
ATOM     27  C   UNL     1       1.141   8.216  21.276  0.00  0.00    +0.000 A 
ATOM     28  N   UNL     1       1.710   7.770  20.117  0.00  0.00    +0.000 N 
ATOM     29  C   UNL     1       2.300   6.557  19.853  0.00  0.00    +0.000 A 
ATOM     30  O   UNL     1       2.493   5.629  20.629  0.00  0.00    +0.000 OA
ENDBRANCH  20  21
ENDBRANCH   5  20
TORSDOF 4
ENDMDL
MODEL 6
REMARK VINA RESULT:      -8.4      6.778     10.246
REMARK  Name = 
REMARK  5 active torsions:
REMARK  status: ('A' for Active; 'I' for Inactive)
REMARK    1  A    between atoms: C_1  and  C_2
REMARK    2  A    between atoms: C_5  and  N_6
REMARK    3  A    between atoms: N_9  and  C_10
REMARK    4  A    between atoms: C_14  and  C_15
REMARK    5  A    between atoms: C_15  and  N_16
REMARK                            x       y       z     vdW  Elec       q    Type
REMARK                         _______ _______ _______ _____ _____    ______ ____
ROOT
ATOM      1  C   UNL     1       0.687   9.091  21.620  0.00  0.00    +0.000 A 
ATOM      2  C   UNL     1       0.301   9.317  22.944  0.00  0.00    +0.000 A 
ATOM      3  C   UNL     1      -0.604  10.318  23.268  0.00  0.00    +0.000 A 
ATOM      4  C   UNL     1      -1.094  11.151  22.272  0.00  0.00    +0.000 A 
ATOM      5  C   UNL     1      -0.626  11.035  20.951  0.00  0.00    +0.000 A 
ATOM      6  C   UNL     1       0.247   9.977  20.628  0.00  0.00    +0.000 A 
ENDROOT
BRANCH   1  10
ATOM      7  N   UNL     1       2.675   6.587  19.855  0.00  0.00    +0.000 N 
ATOM      8  C   UNL     1       1.939   7.736  19.993  0.00  0.00    +0.000 C 
ATOM      9  O   UNL     1       1.771   8.465  19.016  0.00  0.00    +0.000 OA
ATOM     10  N   UNL     1       1.487   7.971  21.269  0.00  0.00    +0.000 N 
ATOM     11  H   UNL     1       2.638   5.902  20.596  0.00  0.00    +0.000 HD
ATOM     12  H   UNL     1       1.978   7.507  22.021  0.00  0.00    +0.000 HD
BRANCH   7  17
ATOM     13  C   UNL     1       3.756   1.950  19.250  0.00  0.00    +0.000 C 
ATOM     14  C   UNL     1       3.780   3.303  18.541  0.00  0.00    +0.000 C 
ATOM     15  C   UNL     1       2.355   3.855  18.400  0.00  0.00    +0.000 C 
ATOM     16  C   UNL     1       2.354   5.243  17.764  0.00  0.00    +0.000 C 
ATOM     17  C   UNL     1       3.229   6.234  18.548  0.00  0.00    +0.000 C 
ATOM     18  C   UNL     1       4.652   5.690  18.680  0.00  0.00    +0.000 C 
ATOM     19  C   UNL     1       4.691   4.288  19.285  0.00  0.00    +0.000 C 
ENDBRANCH   7  17
ENDBRANCH   1  10
BRANCH   5  20
ATOM     20  C   UNL     1      -1.023  12.060  19.917  0.00  0.00    +0.000 C 
BRANCH  20  21
ATOM     21  N   UNL     1      -2.412  12.010  19.535  0.00  0.00    +0.000 N 
ATOM     22  N   UNL     1      -3.426  12.612  20.262  0.00  0.00    +0.000 NA
ATOM     23  C   UNL     1      -4.481  12.414  19.530  0.00  0.00    +0.000 A 
ATOM     24  C   UNL     1      -5.876  12.818  19.822  0.00  0.00    +0.000 A 
ATOM     25  C   UNL     1      -6.813  12.550  18.894  0.00  0.00    +0.000 A 
ATOM     26  C   UNL     1      -6.472  11.895  17.642  0.00  0.00    +0.000 A 
ATOM     27  C   UNL     1      -5.211  11.503  17.416  0.00  0.00    +0.000 A 
ATOM     28  N   UNL     1      -4.261  11.752  18.366  0.00  0.00    +0.000 N 
ATOM     29  C   UNL     1      -2.920  11.455  18.349  0.00  0.00    +0.000 A 
ATOM     30  O   UNL     1      -2.295  10.845  17.490  0.00  0.00    +0.000 OA
ENDBRANCH  20  21
ENDBRANCH   5  20
TORSDOF 4
ENDMDL
MODEL 7
REMARK VINA RESULT:      -8.4      5.044      7.262
REMARK  Name = 
REMARK  5 active torsions:
REMARK  status: ('A' for Active; 'I' for Inactive)
REMARK    1  A    between atoms: C_1  and  C_2
REMARK    2  A    between atoms: C_5  and  N_6
REMARK    3  A    between atoms: N_9  and  C_10
REMARK    4  A    between atoms: C_14  and  C_15
REMARK    5  A    between atoms: C_15  and  N_16
REMARK                            x       y       z     vdW  Elec       q    Type
REMARK                         _______ _______ _______ _____ _____    ______ ____
ROOT
ATOM      1  C   UNL     1       2.617   6.461  18.113  0.00  0.00    +0.000 A 
ATOM      2  C   UNL     1       1.709   5.399  18.154  0.00  0.00    +0.000 A 
ATOM      3  C   UNL     1       2.145   4.083  18.219  0.00  0.00    +0.000 A 
ATOM      4  C   UNL     1       3.504   3.806  18.184  0.00  0.00    +0.000 A 
ATOM      5  C   UNL     1       4.439   4.843  18.011  0.00  0.00    +0.000 A 
ATOM      6  C   UNL     1       3.984   6.176  18.007  0.00  0.00    +0.000 A 
ENDROOT
BRANCH   1  10
ATOM      7  N   UNL     1       1.259   9.662  19.230  0.00  0.00    +0.000 N 
ATOM      8  C   UNL     1       1.652   8.353  19.353  0.00  0.00    +0.000 C 
ATOM      9  O   UNL     1       1.546   7.792  20.443  0.00  0.00    +0.000 OA
ATOM     10  N   UNL     1       2.176   7.807  18.206  0.00  0.00    +0.000 N 
ATOM     11  H   UNL     1       1.159  10.048  18.303  0.00  0.00    +0.000 HD
ATOM     12  H   UNL     1       2.529   8.453  17.513  0.00  0.00    +0.000 HD
BRANCH   7  17
ATOM     13  C   UNL     1      -0.262  14.137  18.403  0.00  0.00    +0.000 C 
ATOM     14  C   UNL     1      -0.123  13.088  19.505  0.00  0.00    +0.000 C 
ATOM     15  C   UNL     1      -0.956  11.845  19.165  0.00  0.00    +0.000 C 
ATOM     16  C   UNL     1      -0.775  10.748  20.211  0.00  0.00    +0.000 C 
ATOM     17  C   UNL     1       0.703  10.363  20.388  0.00  0.00    +0.000 C 
ATOM     18  C   UNL     1       1.531  11.598  20.737  0.00  0.00    +0.000 C 
ATOM     19  C   UNL     1       1.352  12.730  19.728  0.00  0.00    +0.000 C 
ENDBRANCH   7  17
ENDBRANCH   1  10
BRANCH   5  20
ATOM     20  C   UNL     1       5.895   4.515  17.789  0.00  0.00    +0.000 C 
BRANCH  20  21
ATOM     21  N   UNL     1       6.282   4.444  16.402  0.00  0.00    +0.000 N 
ATOM     22  N   UNL     1       5.748   3.532  15.506  0.00  0.00    +0.000 NA
ATOM     23  C   UNL     1       6.284   3.872  14.373  0.00  0.00    +0.000 A 
ATOM     24  C   UNL     1       6.100   3.226  13.053  0.00  0.00    +0.000 A 
ATOM     25  C   UNL     1       6.720   3.778  11.993  0.00  0.00    +0.000 A 
ATOM     26  C   UNL     1       7.536   4.973  12.133  0.00  0.00    +0.000 A 
ATOM     27  C   UNL     1       7.720   5.518  13.343  0.00  0.00    +0.000 A 
ATOM     28  N   UNL     1       7.112   4.946  14.424  0.00  0.00    +0.000 N 
ATOM     29  C   UNL     1       7.149   5.331  15.742  0.00  0.00    +0.000 A 
ATOM     30  O   UNL     1       7.790   6.249  16.241  0.00  0.00    +0.000 OA
ENDBRANCH  20  21
ENDBRANCH   5  20
TORSDOF 4
ENDMDL
MODEL 8
REMARK VINA RESULT:      -8.3      5.365      6.558
REMARK  Name = 
REMARK  5 active torsions:
REMARK  status: ('A' for Active; 'I' for Inactive)
REMARK    1  A    between atoms: C_1  and  C_2
REMARK    2  A    between atoms: C_5  and  N_6
REMARK    3  A    between atoms: N_9  and  C_10
REMARK    4  A    between atoms: C_14  and  C_15
REMARK    5  A    between atoms: C_15  and  N_16
REMARK                            x       y       z     vdW  Elec       q    Type
REMARK                         _______ _______ _______ _____ _____    ______ ____
ROOT
ATOM      1  C   UNL     1       1.101  10.703  18.838  0.00  0.00    +0.000 A 
ATOM      2  C   UNL     1       0.543  10.175  20.005  0.00  0.00    +0.000 A 
ATOM      3  C   UNL     1       0.895   8.913  20.464  0.00  0.00    +0.000 A 
ATOM      4  C   UNL     1       1.772   8.133  19.725  0.00  0.00    +0.000 A 
ATOM      5  C   UNL     1       2.250   8.582  18.480  0.00  0.00    +0.000 A 
ATOM      6  C   UNL     1       1.930   9.887  18.058  0.00  0.00    +0.000 A 
ENDROOT
BRANCH   1  10
ATOM      7  N   UNL     1       0.775  14.339  18.734  0.00  0.00    +0.000 N 
ATOM      8  C   UNL     1       1.094  13.122  19.282  0.00  0.00    +0.000 C 
ATOM      9  O   UNL     1       1.577  13.078  20.412  0.00  0.00    +0.000 OA
ATOM     10  N   UNL     1       0.863  12.049  18.455  0.00  0.00    +0.000 N 
ATOM     11  H   UNL     1       0.200  14.356  17.904  0.00  0.00    +0.000 HD
ATOM     12  H   UNL     1       0.809  12.240  17.464  0.00  0.00    +0.000 HD
BRANCH   7  17
ATOM     13  C   UNL     1       0.722  18.421  16.211  0.00  0.00    +0.000 C 
ATOM     14  C   UNL     1       0.900  17.872  17.626  0.00  0.00    +0.000 C 
ATOM     15  C   UNL     1      -0.376  17.155  18.084  0.00  0.00    +0.000 C 
ATOM     16  C   UNL     1      -0.200  16.528  19.465  0.00  0.00    +0.000 C 
ATOM     17  C   UNL     1       0.993  15.561  19.508  0.00  0.00    +0.000 C 
ATOM     18  C   UNL     1       2.268  16.277  19.062  0.00  0.00    +0.000 C 
ATOM     19  C   UNL     1       2.120  16.944  17.696  0.00  0.00    +0.000 C 
ENDBRANCH   7  17
ENDBRANCH   1  10
BRANCH   5  20
ATOM     20  C   UNL     1       3.052   7.653  17.601  0.00  0.00    +0.000 C 
BRANCH  20  21
ATOM     21  N   UNL     1       2.998   6.268  17.998  0.00  0.00    +0.000 N 
ATOM     22  N   UNL     1       1.875   5.472  17.839  0.00  0.00    +0.000 NA
ATOM     23  C   UNL     1       2.281   4.298  18.223  0.00  0.00    +0.000 A 
ATOM     24  C   UNL     1       1.492   3.047  18.296  0.00  0.00    +0.000 A 
ATOM     25  C   UNL     1       2.131   1.926  18.680  0.00  0.00    +0.000 A 
ATOM     26  C   UNL     1       3.548   1.937  19.005  0.00  0.00    +0.000 A 
ATOM     27  C   UNL     1       4.232   3.088  18.969  0.00  0.00    +0.000 A 
ATOM     28  N   UNL     1       3.581   4.232  18.603  0.00  0.00    +0.000 N 
ATOM     29  C   UNL     1       4.074   5.509  18.487  0.00  0.00    +0.000 A 
ATOM     30  O   UNL     1       5.203   5.907  18.746  0.00  0.00    +0.000 OA
ENDBRANCH  20  21
ENDBRANCH   5  20
TORSDOF 4
ENDMDL
MODEL 9
REMARK VINA RESULT:      -8.3      6.774     10.254
REMARK  Name = 
REMARK  5 active torsions:
REMARK  status: ('A' for Active; 'I' for Inactive)
REMARK    1  A    between atoms: C_1  and  C_2
REMARK    2  A    between atoms: C_5  and  N_6
REMARK    3  A    between atoms: N_9  and  C_10
REMARK    4  A    between atoms: C_14  and  C_15
REMARK    5  A    between atoms: C_15  and  N_16
REMARK                            x       y       z     vdW  Elec       q    Type
REMARK                         _______ _______ _______ _____ _____    ______ ____
ROOT
ATOM      1  C   UNL     1       0.637   8.952  21.540  0.00  0.00    +0.000 A 
ATOM      2  C   UNL     1       0.258   9.240  22.854  0.00  0.00    +0.000 A 
ATOM      3  C   UNL     1      -0.602  10.291  23.140  0.00  0.00    +0.000 A 
ATOM      4  C   UNL     1      -1.052  11.110  22.114  0.00  0.00    +0.000 A 
ATOM      5  C   UNL     1      -0.586  10.928  20.799  0.00  0.00    +0.000 A 
ATOM      6  C   UNL     1       0.239   9.822  20.517  0.00  0.00    +0.000 A 
ENDROOT
BRANCH   1  10
ATOM      7  N   UNL     1       2.688   6.399  19.924  0.00  0.00    +0.000 N 
ATOM      8  C   UNL     1       2.043   7.604  20.038  0.00  0.00    +0.000 C 
ATOM      9  O   UNL     1       2.121   8.419  19.119  0.00  0.00    +0.000 OA
ATOM     10  N   UNL     1       1.387   7.786  21.232  0.00  0.00    +0.000 N 
ATOM     11  H   UNL     1       2.458   5.667  20.580  0.00  0.00    +0.000 HD
ATOM     12  H   UNL     1       1.691   7.218  22.011  0.00  0.00    +0.000 HD
BRANCH   7  17
ATOM     13  C   UNL     1       2.953   1.748  18.773  0.00  0.00    +0.000 C 
ATOM     14  C   UNL     1       3.396   3.136  18.317  0.00  0.00    +0.000 C 
ATOM     15  C   UNL     1       2.174   4.009  18.001  0.00  0.00    +0.000 C 
ATOM     16  C   UNL     1       2.585   5.428  17.616  0.00  0.00    +0.000 C 
ATOM     17  C   UNL     1       3.440   6.092  18.707  0.00  0.00    +0.000 C 
ATOM     18  C   UNL     1       4.664   5.230  19.015  0.00  0.00    +0.000 C 
ATOM     19  C   UNL     1       4.294   3.793  19.374  0.00  0.00    +0.000 C 
ENDBRANCH   7  17
ENDBRANCH   1  10
BRANCH   5  20
ATOM     20  C   UNL     1      -0.934  11.934  19.730  0.00  0.00    +0.000 C 
BRANCH  20  21
ATOM     21  N   UNL     1      -2.339  11.998  19.411  0.00  0.00    +0.000 N 
ATOM     22  N   UNL     1      -2.955  11.154  18.501  0.00  0.00    +0.000 NA
ATOM     23  C   UNL     1      -4.210  11.478  18.590  0.00  0.00    +0.000 A 
ATOM     24  C   UNL     1      -5.346  10.920  17.822  0.00  0.00    +0.000 A 
ATOM     25  C   UNL     1      -6.580  11.373  18.111  0.00  0.00    +0.000 A 
ATOM     26  C   UNL     1      -6.796  12.369  19.147  0.00  0.00    +0.000 A 
ATOM     27  C   UNL     1      -5.749  12.888  19.802  0.00  0.00    +0.000 A 
ATOM     28  N   UNL     1      -4.493  12.448  19.495  0.00  0.00    +0.000 N 
ATOM     29  C   UNL     1      -3.287  12.825  20.035  0.00  0.00    +0.000 A 
ATOM     30  O   UNL     1      -3.077  13.688  20.879  0.00  0.00    +0.000 OA
ENDBRANCH  20  21
ENDBRANCH   5  20
TORSDOF 4
ENDMDL
