MODEL 1
REMARK VINA RESULT:      -9.5      0.000      0.000
REMARK  Name = 
REMARK  7 active torsions:
REMARK  status: ('A' for Active; 'I' for Inactive)
REMARK    1  A    between atoms: C_1  and  C_2
REMARK    2  A    between atoms: C_4  and  N_5
REMARK    3  A    between atoms: C_12  and  C_13
REMARK    4  A    between atoms: N_15  and  C_16
REMARK    5  A    between atoms: C_18  and  C_19
REMARK    6  A    between atoms: C_21  and  C_22
REMARK    7  A    between atoms: N_24  and  C_25
REMARK                            x       y       z     vdW  Elec       q    Type
REMARK                         _______ _______ _______ _____ _____    ______ ____
ROOT
ATOM      1  C   UNL     1       1.753   8.979  18.439  0.00  0.00    +0.000 C 
ATOM      2  O   UNL     1       2.117   9.334  17.342  0.00  0.00    +0.000 OA
ATOM      3  N   UNL     1       2.202   7.712  18.985  0.00  0.00    +0.000 N 
ATOM      4  H   UNL     1       1.731   7.297  19.780  0.00  0.00    +0.000 HD
ENDROOT
BRANCH   1  11
ATOM      5  C   UNL     1      -1.044   9.920  17.371  0.00  0.00    +0.000 C 
ATOM      6  C   UNL     1      -0.527  10.119  18.781  0.00  0.00    +0.000 A 
ATOM      7  C   UNL     1      -1.388  10.790  19.659  0.00  0.00    +0.000 A 
ATOM      8  C   UNL     1      -1.000  11.104  20.963  0.00  0.00    +0.000 A 
ATOM      9  C   UNL     1       0.273  10.753  21.411  0.00  0.00    +0.000 A 
ATOM     10  C   UNL     1       1.128  10.050  20.565  0.00  0.00    +0.000 A 
ATOM     11  C   UNL     1       0.755   9.717  19.253  0.00  0.00    +0.000 A 
BRANCH   8  12
ATOM     12  N   UNL     1      -1.879  11.809  21.821  0.00  0.00    +0.000 N 
ATOM     13  C   UNL     1      -1.991  11.706  23.183  0.00  0.00    +0.000 A 
ATOM     14  N   UNL     1      -3.013  12.410  23.609  0.00  0.00    +0.000 NA
ATOM     15  C   UNL     1      -3.471  12.987  22.464  0.00  0.00    +0.000 A 
ATOM     16  N   UNL     1      -2.779  12.702  21.358  0.00  0.00    +0.000 NA
ENDBRANCH   8  12
ENDBRANCH   1  11
BRANCH   3  17
ATOM     17  C   UNL     1       3.022   6.856  18.237  0.00  0.00    +0.000 A 
ATOM     18  C   UNL     1       3.869   7.220  17.222  0.00  0.00    +0.000 A 
ATOM     19  C   UNL     1       4.559   6.032  16.883  0.00  0.00    +0.000 A 
ATOM     20  N   UNL     1       4.255   5.022  17.702  0.00  0.00    +0.000 NA
ATOM     21  N   UNL     1       3.239   5.501  18.457  0.00  0.00    +0.000 N 
BRANCH  21  22
ATOM     22  C   UNL     1       2.476   4.650  19.291  0.00  0.00    +0.000 A 
ATOM     23  C   UNL     1       1.436   3.890  18.750  0.00  0.00    +0.000 A 
ATOM     24  C   UNL     1       0.710   3.038  19.582  0.00  0.00    +0.000 A 
ATOM     25  C   UNL     1       0.999   2.968  20.946  0.00  0.00    +0.000 A 
ATOM     26  C   UNL     1       2.018   3.750  21.489  0.00  0.00    +0.000 A 
ATOM     27  C   UNL     1       2.759   4.583  20.663  0.00  0.00    +0.000 A 
ENDBRANCH  21  22
BRANCH  19  28
ATOM     28  C   UNL     1       5.509   5.910  15.696  0.00  0.00    +0.000 C 
ATOM     29  C   UNL     1       5.798   4.547  15.098  0.00  0.00    +0.000 C 
ATOM     30  C   UNL     1       6.893   5.263  15.817  0.00  0.00    +0.000 C 
ATOM     31  C   UNL     1       7.474   4.607  17.026  0.00  0.00    +0.000 C 
ENDBRANCH  19  28
ENDBRANCH   3  17
TORSDOF 5
ENDMDL
MODEL 2
REMARK VINA RESULT:      -9.4      0.639      1.238
REMARK  Name = 
REMARK  7 active torsions:
REMARK  status: ('A' for Active; 'I' for Inactive)
REMARK    1  A    between atoms: C_1  and  C_2
REMARK    2  A    between atoms: C_4  and  N_5
REMARK    3  A    between atoms: C_12  and  C_13
REMARK    4  A    between atoms: N_15  and  C_16
REMARK    5  A    between atoms: C_18  and  C_19
REMARK    6  A    between atoms: C_21  and  C_22
REMARK    7  A    between atoms: N_24  and  C_25
REMARK                            x       y       z     vdW  Elec       q    Type
REMARK                         _______ _______ _______ _____ _____    ______ ____
ROOT
ATOM      1  C   UNL     1       1.834   8.765  18.409  0.00  0.00    +0.000 C 
ATOM      2  O   UNL     1       1.953   8.999  17.228  0.00  0.00    +0.000 OA
ATOM      3  N   UNL     1       2.482   7.606  18.994  0.00  0.00    +0.000 N 
ATOM      4  H   UNL     1       2.207   7.269  19.909  0.00  0.00    +0.000 HD
ENDROOT
BRANCH   1  11
ATOM      5  C   UNL     1       1.057   7.859  21.311  0.00  0.00    +0.000 C 
ATOM      6  C   UNL     1       0.620   9.147  20.644  0.00  0.00    +0.000 A 
ATOM      7  C   UNL     1      -0.206   9.981  21.407  0.00  0.00    +0.000 A 
ATOM      8  C   UNL     1      -0.740  11.159  20.881  0.00  0.00    +0.000 A 
ATOM      9  C   UNL     1      -0.455  11.521  19.564  0.00  0.00    +0.000 A 
ATOM     10  C   UNL     1       0.398  10.724  18.804  0.00  0.00    +0.000 A 
ATOM     11  C   UNL     1       0.951   9.540  19.316  0.00  0.00    +0.000 A 
BRANCH   8  12
ATOM     12  N   UNL     1      -1.597  11.970  21.664  0.00  0.00    +0.000 N 
ATOM     13  C   UNL     1      -1.851  11.878  23.008  0.00  0.00    +0.000 A 
ATOM     14  N   UNL     1      -2.809  12.709  23.347  0.00  0.00    +0.000 NA
ATOM     15  C   UNL     1      -3.077  13.344  22.172  0.00  0.00    +0.000 A 
ATOM     16  N   UNL     1      -2.326  12.974  21.132  0.00  0.00    +0.000 NA
ENDBRANCH   8  12
ENDBRANCH   1  11
BRANCH   3  17
ATOM     17  C   UNL     1       3.214   6.713  18.200  0.00  0.00    +0.000 A 
ATOM     18  C   UNL     1       4.077   7.043  17.187  0.00  0.00    +0.000 A 
ATOM     19  C   UNL     1       4.654   5.813  16.790  0.00  0.00    +0.000 A 
ATOM     20  N   UNL     1       4.271   4.801  17.572  0.00  0.00    +0.000 NA
ATOM     21  N   UNL     1       3.310   5.336  18.361  0.00  0.00    +0.000 N 
BRANCH  21  22
ATOM     22  C   UNL     1       2.484   4.522  19.171  0.00  0.00    +0.000 A 
ATOM     23  C   UNL     1       1.487   3.737  18.587  0.00  0.00    +0.000 A 
ATOM     24  C   UNL     1       0.697   2.922  19.398  0.00  0.00    +0.000 A 
ATOM     25  C   UNL     1       0.881   2.914  20.781  0.00  0.00    +0.000 A 
ATOM     26  C   UNL     1       1.857   3.721  21.366  0.00  0.00    +0.000 A 
ATOM     27  C   UNL     1       2.661   4.517  20.563  0.00  0.00    +0.000 A 
ENDBRANCH  21  22
BRANCH  19  28
ATOM     28  C   UNL     1       5.576   5.657  15.584  0.00  0.00    +0.000 C 
ATOM     29  C   UNL     1       5.924   4.271  15.077  0.00  0.00    +0.000 C 
ATOM     30  C   UNL     1       6.997   5.097  15.706  0.00  0.00    +0.000 C 
ATOM     31  C   UNL     1       7.649   4.564  16.940  0.00  0.00    +0.000 C 
ENDBRANCH  19  28
ENDBRANCH   3  17
TORSDOF 5
ENDMDL
MODEL 3
REMARK VINA RESULT:      -9.3      0.482      1.116
REMARK  Name = 
REMARK  7 active torsions:
REMARK  status: ('A' for Active; 'I' for Inactive)
REMARK    1  A    between atoms: C_1  and  C_2
REMARK    2  A    between atoms: C_4  and  N_5
REMARK    3  A    between atoms: C_12  and  C_13
REMARK    4  A    between atoms: N_15  and  C_16
REMARK    5  A    between atoms: C_18  and  C_19
REMARK    6  A    between atoms: C_21  and  C_22
REMARK    7  A    between atoms: N_24  and  C_25
REMARK                            x       y       z     vdW  Elec       q    Type
REMARK                         _______ _______ _______ _____ _____    ______ ____
ROOT
ATOM      1  C   UNL     1       1.775   8.990  18.414  0.00  0.00    +0.000 C 
ATOM      2  O   UNL     1       2.144   9.342  17.318  0.00  0.00    +0.000 OA
ATOM      3  N   UNL     1       2.211   7.718  18.960  0.00  0.00    +0.000 N 
ATOM      4  H   UNL     1       1.735   7.307  19.754  0.00  0.00    +0.000 HD
ENDROOT
BRANCH   1  11
ATOM      5  C   UNL     1      -1.031   9.914  17.354  0.00  0.00    +0.000 C 
ATOM      6  C   UNL     1      -0.505  10.131  18.758  0.00  0.00    +0.000 A 
ATOM      7  C   UNL     1      -1.361  10.810  19.633  0.00  0.00    +0.000 A 
ATOM      8  C   UNL     1      -0.966  11.140  20.931  0.00  0.00    +0.000 A 
ATOM      9  C   UNL     1       0.311  10.795  21.376  0.00  0.00    +0.000 A 
ATOM     10  C   UNL     1       1.161  10.083  20.532  0.00  0.00    +0.000 A 
ATOM     11  C   UNL     1       0.780   9.736  19.226  0.00  0.00    +0.000 A 
BRANCH   8  12
ATOM     12  N   UNL     1      -1.840  11.853  21.787  0.00  0.00    +0.000 N 
ATOM     13  C   UNL     1      -2.803  12.764  21.442  0.00  0.00    +0.000 A 
ATOM     14  N   UNL     1      -3.309  13.321  22.517  0.00  0.00    +0.000 NA
ATOM     15  C   UNL     1      -2.660  12.667  23.519  0.00  0.00    +0.000 A 
ATOM     16  N   UNL     1      -1.800  11.723  23.131  0.00  0.00    +0.000 NA
ENDBRANCH   8  12
ENDBRANCH   1  11
BRANCH   3  17
ATOM     17  C   UNL     1       3.026   6.856  18.214  0.00  0.00    +0.000 A 
ATOM     18  C   UNL     1       3.872   7.213  17.195  0.00  0.00    +0.000 A 
ATOM     19  C   UNL     1       4.556   6.020  16.860  0.00  0.00    +0.000 A 
ATOM     20  N   UNL     1       4.250   5.015  17.683  0.00  0.00    +0.000 NA
ATOM     21  N   UNL     1       3.237   5.500  18.438  0.00  0.00    +0.000 N 
BRANCH  21  22
ATOM     22  C   UNL     1       2.472   4.656  19.277  0.00  0.00    +0.000 A 
ATOM     23  C   UNL     1       2.738   4.607  20.648  0.00  0.00    +0.000 A 
ATOM     24  C   UNL     1       1.958   3.788  21.464  0.00  0.00    +0.000 A 
ATOM     25  C   UNL     1       0.944   3.003  20.914  0.00  0.00    +0.000 A 
ATOM     26  C   UNL     1       0.700   3.031  19.541  0.00  0.00    +0.000 A 
ATOM     27  C   UNL     1       1.457   3.861  18.726  0.00  0.00    +0.000 A 
ENDBRANCH  21  22
BRANCH  19  28
ATOM     28  C   UNL     1       5.504   5.890  15.671  0.00  0.00    +0.000 C 
ATOM     29  C   UNL     1       5.804   4.521  15.094  0.00  0.00    +0.000 C 
ATOM     30  C   UNL     1       6.894   5.259  15.797  0.00  0.00    +0.000 C 
ATOM     31  C   UNL     1       7.487   4.628  17.014  0.00  0.00    +0.000 C 
ENDBRANCH  19  28
ENDBRANCH   3  17
TORSDOF 5
ENDMDL
MODEL 4
REMARK VINA RESULT:      -9.2      1.527      2.093
REMARK  Name = 
REMARK  7 active torsions:
REMARK  status: ('A' for Active; 'I' for Inactive)
REMARK    1  A    between atoms: C_1  and  C_2
REMARK    2  A    between atoms: C_4  and  N_5
REMARK    3  A    between atoms: C_12  and  C_13
REMARK    4  A    between atoms: N_15  and  C_16
REMARK    5  A    between atoms: C_18  and  C_19
REMARK    6  A    between atoms: C_21  and  C_22
REMARK    7  A    between atoms: N_24  and  C_25
REMARK                            x       y       z     vdW  Elec       q    Type
REMARK                         _______ _______ _______ _____ _____    ______ ____
ROOT
ATOM      1  C   UNL     1       2.357   7.325  18.574  0.00  0.00    +0.000 C 
ATOM      2  O   UNL     1       1.812   6.761  17.654  0.00  0.00    +0.000 OA
ATOM      3  N   UNL     1       3.692   6.931  18.986  0.00  0.00    +0.000 N 
ATOM      4  H   UNL     1       4.061   7.222  19.883  0.00  0.00    +0.000 HD
ENDROOT
BRANCH   1  11
ATOM      5  C   UNL     1       1.832  10.283  17.666  0.00  0.00    +0.000 C 
ATOM      6  C   UNL     1       1.428   9.685  18.999  0.00  0.00    +0.000 A 
ATOM      7  C   UNL     1       0.774  10.551  19.884  0.00  0.00    +0.000 A 
ATOM      8  C   UNL     1       0.419  10.146  21.172  0.00  0.00    +0.000 A 
ATOM      9  C   UNL     1       0.723   8.854  21.601  0.00  0.00    +0.000 A 
ATOM     10  C   UNL     1       1.337   7.966  20.720  0.00  0.00    +0.000 A 
ATOM     11  C   UNL     1       1.695   8.351  19.418  0.00  0.00    +0.000 A 
BRANCH   8  12
ATOM     12  N   UNL     1      -0.216  11.050  22.058  0.00  0.00    +0.000 N 
ATOM     13  C   UNL     1      -1.111  10.766  23.056  0.00  0.00    +0.000 A 
ATOM     14  N   UNL     1      -1.590  11.876  23.566  0.00  0.00    +0.000 NA
ATOM     15  C   UNL     1      -0.904  12.833  22.883  0.00  0.00    +0.000 A 
ATOM     16  N   UNL     1      -0.013  12.384  21.997  0.00  0.00    +0.000 NA
ENDBRANCH   8  12
ENDBRANCH   1  11
BRANCH   3  17
ATOM     17  C   UNL     1       4.353   5.865  18.362  0.00  0.00    +0.000 A 
ATOM     18  C   UNL     1       5.446   5.954  17.539  0.00  0.00    +0.000 A 
ATOM     19  C   UNL     1       5.810   4.611  17.276  0.00  0.00    +0.000 A 
ATOM     20  N   UNL     1       5.074   3.744  17.975  0.00  0.00    +0.000 NA
ATOM     21  N   UNL     1       4.117   4.508  18.552  0.00  0.00    +0.000 N 
BRANCH  21  22
ATOM     22  C   UNL     1       2.996   3.929  19.189  0.00  0.00    +0.000 A 
ATOM     23  C   UNL     1       2.837   4.051  20.572  0.00  0.00    +0.000 A 
ATOM     24  C   UNL     1       1.712   3.495  21.181  0.00  0.00    +0.000 A 
ATOM     25  C   UNL     1       0.772   2.797  20.423  0.00  0.00    +0.000 A 
ATOM     26  C   UNL     1       0.947   2.650  19.047  0.00  0.00    +0.000 A 
ATOM     27  C   UNL     1       2.052   3.220  18.431  0.00  0.00    +0.000 A 
ENDBRANCH  21  22
BRANCH  19  28
ATOM     28  C   UNL     1       6.890   4.203  16.279  0.00  0.00    +0.000 C 
ATOM     29  C   UNL     1       7.373   5.198  15.242  0.00  0.00    +0.000 C 
ATOM     30  C   UNL     1       6.597   4.006  14.788  0.00  0.00    +0.000 C 
ATOM     31  C   UNL     1       5.300   4.248  14.089  0.00  0.00    +0.000 C 
ENDBRANCH  19  28
ENDBRANCH   3  17
TORSDOF 5
ENDMDL
MODEL 5
REMARK VINA RESULT:      -9.2      1.638      2.420
REMARK  Name = 
REMARK  7 active torsions:
REMARK  status: ('A' for Active; 'I' for Inactive)
REMARK    1  A    between atoms: C_1  and  C_2
REMARK    2  A    between atoms: C_4  and  N_5
REMARK    3  A    between atoms: C_12  and  C_13
REMARK    4  A    between atoms: N_15  and  C_16
REMARK    5  A    between atoms: C_18  and  C_19
REMARK    6  A    between atoms: C_21  and  C_22
REMARK    7  A    between atoms: N_24  and  C_25
REMARK                            x       y       z     vdW  Elec       q    Type
REMARK                         _______ _______ _______ _____ _____    ______ ____
ROOT
ATOM      1  C   UNL     1       2.505   7.192  18.223  0.00  0.00    +0.000 C 
ATOM      2  O   UNL     1       1.924   6.713  17.277  0.00  0.00    +0.000 OA
ATOM      3  N   UNL     1       3.848   6.755  18.554  0.00  0.00    +0.000 N 
ATOM      4  H   UNL     1       4.250   6.964  19.460  0.00  0.00    +0.000 HD
ENDROOT
BRANCH   1  11
ATOM      5  C   UNL     1       1.560   6.430  21.117  0.00  0.00    +0.000 C 
ATOM      6  C   UNL     1       1.479   7.810  20.499  0.00  0.00    +0.000 A 
ATOM      7  C   UNL     1       0.924   8.810  21.308  0.00  0.00    +0.000 A 
ATOM      8  C   UNL     1       0.723  10.107  20.830  0.00  0.00    +0.000 A 
ATOM      9  C   UNL     1       1.073  10.424  19.517  0.00  0.00    +0.000 A 
ATOM     10  C   UNL     1       1.663   9.452  18.712  0.00  0.00    +0.000 A 
ATOM     11  C   UNL     1       1.881   8.145  19.176  0.00  0.00    +0.000 A 
BRANCH   8  12
ATOM     12  N   UNL     1       0.132  11.092  21.658  0.00  0.00    +0.000 N 
ATOM     13  C   UNL     1      -0.727  10.907  22.709  0.00  0.00    +0.000 A 
ATOM     14  N   UNL     1      -1.173  12.063  23.140  0.00  0.00    +0.000 NA
ATOM     15  C   UNL     1      -0.505  12.949  22.351  0.00  0.00    +0.000 A 
ATOM     16  N   UNL     1       0.347  12.413  21.474  0.00  0.00    +0.000 NA
ENDBRANCH   8  12
ENDBRANCH   1  11
BRANCH   3  17
ATOM     17  C   UNL     1       4.478   5.743  17.818  0.00  0.00    +0.000 A 
ATOM     18  C   UNL     1       5.506   5.904  16.925  0.00  0.00    +0.000 A 
ATOM     19  C   UNL     1       5.870   4.587  16.552  0.00  0.00    +0.000 A 
ATOM     20  N   UNL     1       5.201   3.664  17.246  0.00  0.00    +0.000 NA
ATOM     21  N   UNL     1       4.278   4.372  17.938  0.00  0.00    +0.000 N 
BRANCH  21  22
ATOM     22  C   UNL     1       3.214   3.732  18.616  0.00  0.00    +0.000 A 
ATOM     23  C   UNL     1       2.035   3.423  17.933  0.00  0.00    +0.000 A 
ATOM     24  C   UNL     1       1.005   2.770  18.611  0.00  0.00    +0.000 A 
ATOM     25  C   UNL     1       1.140   2.457  19.964  0.00  0.00    +0.000 A 
ATOM     26  C   UNL     1       2.306   2.792  20.652  0.00  0.00    +0.000 A 
ATOM     27  C   UNL     1       3.343   3.422  19.978  0.00  0.00    +0.000 A 
ENDBRANCH  21  22
BRANCH  19  28
ATOM     28  C   UNL     1       6.881   4.264  15.456  0.00  0.00    +0.000 C 
ATOM     29  C   UNL     1       7.098   5.242  14.319  0.00  0.00    +0.000 C 
ATOM     30  C   UNL     1       6.455   3.928  14.023  0.00  0.00    +0.000 C 
ATOM     31  C   UNL     1       5.068   3.942  13.471  0.00  0.00    +0.000 C 
ENDBRANCH  19  28
ENDBRANCH   3  17
TORSDOF 5
ENDMDL
MODEL 6
REMARK VINA RESULT:      -9.2      2.759      9.011
REMARK  Name = 
REMARK  7 active torsions:
REMARK  status: ('A' for Active; 'I' for Inactive)
REMARK    1  A    between atoms: C_1  and  C_2
REMARK    2  A    between atoms: C_4  and  N_5
REMARK    3  A    between atoms: C_12  and  C_13
REMARK    4  A    between atoms: N_15  and  C_16
REMARK    5  A    between atoms: C_18  and  C_19
REMARK    6  A    between atoms: C_21  and  C_22
REMARK    7  A    between atoms: N_24  and  C_25
REMARK                            x       y       z     vdW  Elec       q    Type
REMARK                         _______ _______ _______ _____ _____    ______ ____
ROOT
ATOM      1  C   UNL     1       4.181   5.964  18.560  0.00  0.00    +0.000 C 
ATOM      2  O   UNL     1       4.690   5.740  19.634  0.00  0.00    +0.000 OA
ATOM      3  N   UNL     1       2.924   6.685  18.482  0.00  0.00    +0.000 N 
ATOM      4  H   UNL     1       2.376   6.674  17.630  0.00  0.00    +0.000 HD
ENDROOT
BRANCH   1  11
ATOM      5  C   UNL     1       3.988   2.960  17.672  0.00  0.00    +0.000 C 
ATOM      6  C   UNL     1       4.595   4.083  16.856  0.00  0.00    +0.000 A 
ATOM      7  C   UNL     1       5.113   3.719  15.606  0.00  0.00    +0.000 A 
ATOM      8  C   UNL     1       5.767   4.644  14.790  0.00  0.00    +0.000 A 
ATOM      9  C   UNL     1       5.920   5.963  15.221  0.00  0.00    +0.000 A 
ATOM     10  C   UNL     1       5.375   6.351  16.443  0.00  0.00    +0.000 A 
ATOM     11  C   UNL     1       4.707   5.438  17.275  0.00  0.00    +0.000 A 
BRANCH   8  12
ATOM     12  N   UNL     1       6.308   4.245  13.544  0.00  0.00    +0.000 N 
ATOM     13  C   UNL     1       7.376   4.784  12.875  0.00  0.00    +0.000 A 
ATOM     14  N   UNL     1       7.487   4.242  11.686  0.00  0.00    +0.000 NA
ATOM     15  C   UNL     1       6.488   3.317  11.689  0.00  0.00    +0.000 A 
ATOM     16  N   UNL     1       5.780   3.237  12.817  0.00  0.00    +0.000 NA
ENDBRANCH   8  12
ENDBRANCH   1  11
BRANCH   3  17
ATOM     17  C   UNL     1       2.254   7.092  19.643  0.00  0.00    +0.000 A 
ATOM     18  C   UNL     1       2.069   8.383  20.067  0.00  0.00    +0.000 A 
ATOM     19  C   UNL     1       1.233   8.273  21.205  0.00  0.00    +0.000 A 
ATOM     20  N   UNL     1       0.828   7.018  21.412  0.00  0.00    +0.000 NA
ATOM     21  N   UNL     1       1.539   6.287  20.523  0.00  0.00    +0.000 N 
BRANCH  21  22
ATOM     22  C   UNL     1       1.569   4.874  20.586  0.00  0.00    +0.000 A 
ATOM     23  C   UNL     1       2.312   4.235  21.583  0.00  0.00    +0.000 A 
ATOM     24  C   UNL     1       2.311   2.842  21.646  0.00  0.00    +0.000 A 
ATOM     25  C   UNL     1       1.602   2.093  20.706  0.00  0.00    +0.000 A 
ATOM     26  C   UNL     1       0.886   2.732  19.694  0.00  0.00    +0.000 A 
ATOM     27  C   UNL     1       0.864   4.118  19.638  0.00  0.00    +0.000 A 
ENDBRANCH  21  22
BRANCH  19  28
ATOM     28  C   UNL     1       0.872   9.446  22.110  0.00  0.00    +0.000 C 
ATOM     29  C   UNL     1      -0.538   9.573  22.652  0.00  0.00    +0.000 C 
ATOM     30  C   UNL     1      -0.058  10.575  21.655  0.00  0.00    +0.000 C 
ATOM     31  C   UNL     1      -0.790  10.668  20.357  0.00  0.00    +0.000 C 
ENDBRANCH  19  28
ENDBRANCH   3  17
TORSDOF 5
ENDMDL
MODEL 7
REMARK VINA RESULT:      -9.1      0.968      1.491
REMARK  Name = 
REMARK  7 active torsions:
REMARK  status: ('A' for Active; 'I' for Inactive)
REMARK    1  A    between atoms: C_1  and  C_2
REMARK    2  A    between atoms: C_4  and  N_5
REMARK    3  A    between atoms: C_12  and  C_13
REMARK    4  A    between atoms: N_15  and  C_16
REMARK    5  A    between atoms: C_18  and  C_19
REMARK    6  A    between atoms: C_21  and  C_22
REMARK    7  A    between atoms: N_24  and  C_25
REMARK                            x       y       z     vdW  Elec       q    Type
REMARK                         _______ _______ _______ _____ _____    ______ ____
ROOT
ATOM      1  C   UNL     1       2.043   8.817  18.325  0.00  0.00    +0.000 C 
ATOM      2  O   UNL     1       2.182   9.036  17.144  0.00  0.00    +0.000 OA
ATOM      3  N   UNL     1       2.624   7.629  18.922  0.00  0.00    +0.000 N 
ATOM      4  H   UNL     1       2.325   7.313  19.836  0.00  0.00    +0.000 HD
ENDROOT
BRANCH   1  11
ATOM      5  C   UNL     1       1.979  11.955  18.291  0.00  0.00    +0.000 C 
ATOM      6  C   UNL     1       1.143  11.067  19.188  0.00  0.00    +0.000 A 
ATOM      7  C   UNL     1       0.283  11.728  20.074  0.00  0.00    +0.000 A 
ATOM      8  C   UNL     1      -0.485  11.028  21.006  0.00  0.00    +0.000 A 
ATOM      9  C   UNL     1      -0.397   9.637  21.072  0.00  0.00    +0.000 A 
ATOM     10  C   UNL     1       0.423   8.959  20.172  0.00  0.00    +0.000 A 
ATOM     11  C   UNL     1       1.197   9.644  19.222  0.00  0.00    +0.000 A 
BRANCH   8  12
ATOM     12  N   UNL     1      -1.325  11.723  21.910  0.00  0.00    +0.000 N 
ATOM     13  C   UNL     1      -1.861  12.976  21.771  0.00  0.00    +0.000 A 
ATOM     14  N   UNL     1      -2.466  13.337  22.877  0.00  0.00    +0.000 NA
ATOM     15  C   UNL     1      -2.328  12.232  23.662  0.00  0.00    +0.000 A 
ATOM     16  N   UNL     1      -1.694  11.201  23.100  0.00  0.00    +0.000 NA
ENDBRANCH   8  12
ENDBRANCH   1  11
BRANCH   3  17
ATOM     17  C   UNL     1       3.312   6.693  18.138  0.00  0.00    +0.000 A 
ATOM     18  C   UNL     1       4.162   6.968  17.098  0.00  0.00    +0.000 A 
ATOM     19  C   UNL     1       4.694   5.710  16.724  0.00  0.00    +0.000 A 
ATOM     20  N   UNL     1       4.299   4.733  17.543  0.00  0.00    +0.000 NA
ATOM     21  N   UNL     1       3.372   5.318  18.337  0.00  0.00    +0.000 N 
BRANCH  21  22
ATOM     22  C   UNL     1       2.541   4.552  19.188  0.00  0.00    +0.000 A 
ATOM     23  C   UNL     1       2.757   4.563  20.569  0.00  0.00    +0.000 A 
ATOM     24  C   UNL     1       1.913   3.821  21.396  0.00  0.00    +0.000 A 
ATOM     25  C   UNL     1       0.885   3.054  20.848  0.00  0.00    +0.000 A 
ATOM     26  C   UNL     1       0.689   3.021  19.468  0.00  0.00    +0.000 A 
ATOM     27  C   UNL     1       1.511   3.774  18.641  0.00  0.00    +0.000 A 
ENDBRANCH  21  22
BRANCH  19  28
ATOM     28  C   UNL     1       5.584   5.493  15.504  0.00  0.00    +0.000 C 
ATOM     29  C   UNL     1       5.931   4.084  15.066  0.00  0.00    +0.000 C 
ATOM     30  C   UNL     1       7.012   4.953  15.618  0.00  0.00    +0.000 C 
ATOM     31  C   UNL     1       7.703   4.495  16.861  0.00  0.00    +0.000 C 
ENDBRANCH  19  28
ENDBRANCH   3  17
TORSDOF 5
ENDMDL
MODEL 8
REMARK VINA RESULT:      -9.0      1.661      2.337
REMARK  Name = 
REMARK  7 active torsions:
REMARK  status: ('A' for Active; 'I' for Inactive)
REMARK    1  A    between atoms: C_1  and  C_2
REMARK    2  A    between atoms: C_4  and  N_5
REMARK    3  A    between atoms: C_12  and  C_13
REMARK    4  A    between atoms: N_15  and  C_16
REMARK    5  A    between atoms: C_18  and  C_19
REMARK    6  A    between atoms: C_21  and  C_22
REMARK    7  A    between atoms: N_24  and  C_25
REMARK                            x       y       z     vdW  Elec       q    Type
REMARK                         _______ _______ _______ _____ _____    ______ ____
ROOT
ATOM      1  C   UNL     1       1.678   9.199  18.060  0.00  0.00    +0.000 C 
ATOM      2  O   UNL     1       2.603   9.764  17.523  0.00  0.00    +0.000 OA
ATOM      3  N   UNL     1       1.766   7.783  18.369  0.00  0.00    +0.000 N 
ATOM      4  H   UNL     1       0.933   7.253  18.596  0.00  0.00    +0.000 HD
ENDROOT
BRANCH   1  11
ATOM      5  C   UNL     1       1.002  10.773  20.690  0.00  0.00    +0.000 C 
ATOM      6  C   UNL     1       0.068  10.582  19.513  0.00  0.00    +0.000 A 
ATOM      7  C   UNL     1      -1.201  11.160  19.639  0.00  0.00    +0.000 A 
ATOM      8  C   UNL     1      -2.181  10.992  18.659  0.00  0.00    +0.000 A 
ATOM      9  C   UNL     1      -1.904  10.227  17.526  0.00  0.00    +0.000 A 
ATOM     10  C   UNL     1      -0.633   9.678  17.364  0.00  0.00    +0.000 A 
ATOM     11  C   UNL     1       0.368   9.842  18.335  0.00  0.00    +0.000 A 
BRANCH   8  12
ATOM     12  N   UNL     1      -3.466  11.563  18.825  0.00  0.00    +0.000 N 
ATOM     13  C   UNL     1      -3.890  12.416  19.810  0.00  0.00    +0.000 A 
ATOM     14  N   UNL     1      -5.184  12.614  19.713  0.00  0.00    +0.000 NA
ATOM     15  C   UNL     1      -5.508  11.900  18.600  0.00  0.00    +0.000 A 
ATOM     16  N   UNL     1      -4.491  11.291  17.988  0.00  0.00    +0.000 NA
ENDBRANCH   8  12
ENDBRANCH   1  11
BRANCH   3  17
ATOM     17  C   UNL     1       2.896   7.037  18.011  0.00  0.00    +0.000 A 
ATOM     18  C   UNL     1       3.978   7.488  17.300  0.00  0.00    +0.000 A 
ATOM     19  C   UNL     1       4.895   6.408  17.314  0.00  0.00    +0.000 A 
ATOM     20  N   UNL     1       4.471   5.398  18.077  0.00  0.00    +0.000 NA
ATOM     21  N   UNL     1       3.205   5.742  18.411  0.00  0.00    +0.000 N 
BRANCH  21  22
ATOM     22  C   UNL     1       2.327   4.818  19.024  0.00  0.00    +0.000 A 
ATOM     23  C   UNL     1       1.535   3.978  18.236  0.00  0.00    +0.000 A 
ATOM     24  C   UNL     1       0.693   3.055  18.856  0.00  0.00    +0.000 A 
ATOM     25  C   UNL     1       0.619   2.992  20.248  0.00  0.00    +0.000 A 
ATOM     26  C   UNL     1       1.389   3.851  21.033  0.00  0.00    +0.000 A 
ATOM     27  C   UNL     1       2.245   4.756  20.423  0.00  0.00    +0.000 A 
ENDBRANCH  21  22
BRANCH  19  28
ATOM     28  C   UNL     1       6.196   6.389  16.519  0.00  0.00    +0.000 C 
ATOM     29  C   UNL     1       7.145   5.215  16.656  0.00  0.00    +0.000 C 
ATOM     30  C   UNL     1       7.566   6.546  17.186  0.00  0.00    +0.000 C 
ATOM     31  C   UNL     1       7.845   6.654  18.649  0.00  0.00    +0.000 C 
ENDBRANCH  19  28
ENDBRANCH   3  17
TORSDOF 5
ENDMDL
MODEL 9
REMARK VINA RESULT:      -9.0      1.903      2.857
REMARK  Name = 
REMARK  7 active torsions:
REMARK  status: ('A' for Active; 'I' for Inactive)
REMARK    1  A    between atoms: C_1  and  C_2
REMARK    2  A    between atoms: C_4  and  N_5
REMARK    3  A    between atoms: C_12  and  C_13
REMARK    4  A    between atoms: N_15  and  C_16
REMARK    5  A    between atoms: C_18  and  C_19
REMARK    6  A    between atoms: C_21  and  C_22
REMARK    7  A    between atoms: N_24  and  C_25
REMARK                            x       y       z     vdW  Elec       q    Type
REMARK                         _______ _______ _______ _____ _____    ______ ____
ROOT
ATOM      1  C   UNL     1       1.505   9.354  18.191  0.00  0.00    +0.000 C 
ATOM      2  O   UNL     1       2.514  10.014  18.104  0.00  0.00    +0.000 OA
ATOM      3  N   UNL     1       1.568   7.907  18.104  0.00  0.00    +0.000 N 
ATOM      4  H   UNL     1       0.729   7.363  17.940  0.00  0.00    +0.000 HD
ENDROOT
BRANCH   1  11
ATOM      5  C   UNL     1       0.557  11.324  20.442  0.00  0.00    +0.000 C 
ATOM      6  C   UNL     1      -0.282  10.856  19.270  0.00  0.00    +0.000 A 
ATOM      7  C   UNL     1      -1.589  11.355  19.216  0.00  0.00    +0.000 A 
ATOM      8  C   UNL     1      -2.488  10.942  18.231  0.00  0.00    +0.000 A 
ATOM      9  C   UNL     1      -2.088  10.007  17.275  0.00  0.00    +0.000 A 
ATOM     10  C   UNL     1      -0.778   9.531  17.290  0.00  0.00    +0.000 A 
ATOM     11  C   UNL     1       0.143   9.939  18.267  0.00  0.00    +0.000 A 
BRANCH   8  12
ATOM     12  N   UNL     1      -3.814  11.439  18.215  0.00  0.00    +0.000 N 
ATOM     13  C   UNL     1      -4.706  11.434  17.175  0.00  0.00    +0.000 A 
ATOM     14  N   UNL     1      -5.782  12.112  17.496  0.00  0.00    +0.000 NA
ATOM     15  C   UNL     1      -5.530  12.471  18.785  0.00  0.00    +0.000 A 
ATOM     16  N   UNL     1      -4.374  12.036  19.290  0.00  0.00    +0.000 NA
ENDBRANCH   8  12
ENDBRANCH   1  11
BRANCH   3  17
ATOM     17  C   UNL     1       2.785   7.251  17.873  0.00  0.00    +0.000 A 
ATOM     18  C   UNL     1       3.889   7.778  17.253  0.00  0.00    +0.000 A 
ATOM     19  C   UNL     1       4.885   6.780  17.381  0.00  0.00    +0.000 A 
ATOM     20  N   UNL     1       4.475   5.753  18.128  0.00  0.00    +0.000 NA
ATOM     21  N   UNL     1       3.160   5.995  18.335  0.00  0.00    +0.000 N 
BRANCH  21  22
ATOM     22  C   UNL     1       2.307   5.012  18.888  0.00  0.00    +0.000 A 
ATOM     23  C   UNL     1       2.037   5.012  20.260  0.00  0.00    +0.000 A 
ATOM     24  C   UNL     1       1.175   4.050  20.785  0.00  0.00    +0.000 A 
ATOM     25  C   UNL     1       0.612   3.079  19.957  0.00  0.00    +0.000 A 
ATOM     26  C   UNL     1       0.905   3.062  18.593  0.00  0.00    +0.000 A 
ATOM     27  C   UNL     1       1.745   4.030  18.059  0.00  0.00    +0.000 A 
ENDBRANCH  21  22
BRANCH  19  28
ATOM     28  C   UNL     1       6.253   6.855  16.710  0.00  0.00    +0.000 C 
ATOM     29  C   UNL     1       7.057   5.588  16.497  0.00  0.00    +0.000 C 
ATOM     30  C   UNL     1       7.555   6.599  17.475  0.00  0.00    +0.000 C 
ATOM     31  C   UNL     1       7.691   6.176  18.901  0.00  0.00    +0.000 C 
ENDBRANCH  19  28
ENDBRANCH   3  17
TORSDOF 5
ENDMDL
