MODEL 1
REMARK VINA RESULT:      -7.8      0.000      0.000
REMARK  Name = 
REMARK  8 active torsions:
REMARK  status: ('A' for Active; 'I' for Inactive)
REMARK    1  A    between atoms: C_2  and  C_3
REMARK    2  A    between atoms: C_3  and  N_4
REMARK    3  A    between atoms: N_14  and  C_15
REMARK    4  A    between atoms: C_15  and  C_16
REMARK    5  A    between atoms: C_15  and  C_25
REMARK    6  A    between atoms: C_16  and  C_17
REMARK    7  A    between atoms: C_17  and  C_18
REMARK    8  A    between atoms: C_18  and  C_19
REMARK                            x       y       z     vdW  Elec       q    Type
REMARK                         _______ _______ _______ _____ _____    ______ ____
ROOT
ATOM      1  O   UNL     1       2.111   9.792  17.464  0.00  0.00    +0.000 OA
ATOM      2  C   UNL     1       2.086   8.936  18.353  0.00  0.00    +0.000 C 
ATOM      3  N   UNL     1       2.827   7.813  18.130  0.00  0.00    +0.000 N 
ATOM      4  H   UNL     1       3.371   7.899  17.280  0.00  0.00    +0.000 HD
ENDROOT
BRANCH   2   5
ATOM      5  C   UNL     1       1.250   9.093  19.627  0.00  0.00    +0.000 C 
BRANCH   5   6
ATOM      6  N   UNL     1       0.659  10.429  19.707  0.00  0.00    +0.000 N 
ATOM      7  N   UNL     1       0.955  11.308  20.753  0.00  0.00    +0.000 N 
ATOM      8  C   UNL     1      -0.143  12.157  20.901  0.00  0.00    +0.000 A 
ATOM      9  C   UNL     1      -1.120  11.911  20.017  0.00  0.00    +0.000 A 
ATOM     10  C   UNL     1      -2.448  12.429  19.752  0.00  0.00    +0.000 A 
ATOM     11  O   UNL     1      -2.895  13.379  20.378  0.00  0.00    +0.000 OA
ATOM     12  N   UNL     1      -3.118  11.763  18.762  0.00  0.00    +0.000 NA
ATOM     13  C   UNL     1      -2.592  10.747  18.154  0.00  0.00    +0.000 A 
ATOM     14  N   UNL     1      -1.352  10.194  18.360  0.00  0.00    +0.000 NA
ATOM     15  C   UNL     1      -0.622  10.752  19.262  0.00  0.00    +0.000 A 
ATOM     16  H   UNL     1       1.208  10.883  21.650  0.00  0.00    +0.000 HD
ENDBRANCH   5   6
ENDBRANCH   2   5
BRANCH   3  17
ATOM     17  C   UNL     1       3.099   6.642  18.963  0.00  0.00    +0.000 C 
BRANCH  17  18
ATOM     18  C   UNL     1       4.207   5.807  18.347  0.00  0.00    +0.000 A 
ATOM     19  C   UNL     1       5.407   5.589  19.040  0.00  0.00    +0.000 A 
ATOM     20  C   UNL     1       6.416   4.799  18.481  0.00  0.00    +0.000 A 
ATOM     21  C   UNL     1       6.237   4.214  17.229  0.00  0.00    +0.000 A 
ATOM     22  C   UNL     1       5.053   4.422  16.529  0.00  0.00    +0.000 A 
ATOM     23  C   UNL     1       4.046   5.213  17.082  0.00  0.00    +0.000 A 
ENDBRANCH  17  18
BRANCH  17  24
ATOM     24  C   UNL     1       1.810   5.794  19.136  0.00  0.00    +0.000 C 
BRANCH  24  25
ATOM     25  C   UNL     1       1.632   5.344  20.589  0.00  0.00    +0.000 C 
BRANCH  25  26
ATOM     26  C   UNL     1       1.174   3.891  20.738  0.00  0.00    +0.000 C 
BRANCH  26  27
ATOM     27  C   UNL     1       2.062   3.006  19.892  0.00  0.00    +0.000 A 
ATOM     28  C   UNL     1       3.369   2.709  20.305  0.00  0.00    +0.000 A 
ATOM     29  C   UNL     1       4.222   1.975  19.479  0.00  0.00    +0.000 A 
ATOM     30  C   UNL     1       3.779   1.533  18.234  0.00  0.00    +0.000 A 
ATOM     31  C   UNL     1       2.482   1.823  17.813  0.00  0.00    +0.000 A 
ATOM     32  C   UNL     1       1.628   2.556  18.639  0.00  0.00    +0.000 A 
ENDBRANCH  26  27
ENDBRANCH  25  26
ENDBRANCH  24  25
ENDBRANCH  17  24
ENDBRANCH   3  17
TORSDOF 8
ENDMDL
MODEL 2
REMARK VINA RESULT:      -7.7      0.928      1.713
REMARK  Name = 
REMARK  8 active torsions:
REMARK  status: ('A' for Active; 'I' for Inactive)
REMARK    1  A    between atoms: C_2  and  C_3
REMARK    2  A    between atoms: C_3  and  N_4
REMARK    3  A    between atoms: N_14  and  C_15
REMARK    4  A    between atoms: C_15  and  C_16
REMARK    5  A    between atoms: C_15  and  C_25
REMARK    6  A    between atoms: C_16  and  C_17
REMARK    7  A    between atoms: C_17  and  C_18
REMARK    8  A    between atoms: C_18  and  C_19
REMARK                            x       y       z     vdW  Elec       q    Type
REMARK                         _______ _______ _______ _____ _____    ______ ____
ROOT
ATOM      1  O   UNL     1       2.053   9.814  17.380  0.00  0.00    +0.000 OA
ATOM      2  C   UNL     1       2.098   9.013  18.319  0.00  0.00    +0.000 C 
ATOM      3  N   UNL     1       2.753   7.841  18.081  0.00  0.00    +0.000 N 
ATOM      4  H   UNL     1       3.192   7.850  17.169  0.00  0.00    +0.000 HD
ENDROOT
BRANCH   2   5
ATOM      5  C   UNL     1       1.432   9.288  19.671  0.00  0.00    +0.000 C 
BRANCH   5   6
ATOM      6  N   UNL     1       0.107   9.881  19.493  0.00  0.00    +0.000 N 
ATOM      7  N   UNL     1      -0.326  10.371  18.257  0.00  0.00    +0.000 N 
ATOM      8  C   UNL     1      -1.269  11.366  18.515  0.00  0.00    +0.000 A 
ATOM      9  C   UNL     1      -1.498  11.546  19.823  0.00  0.00    +0.000 A 
ATOM     10  C   UNL     1      -2.306  12.438  20.632  0.00  0.00    +0.000 A 
ATOM     11  O   UNL     1      -3.073  13.240  20.120  0.00  0.00    +0.000 OA
ATOM     12  N   UNL     1      -2.122  12.287  21.979  0.00  0.00    +0.000 NA
ATOM     13  C   UNL     1      -1.273  11.432  22.456  0.00  0.00    +0.000 A 
ATOM     14  N   UNL     1      -0.468  10.568  21.754  0.00  0.00    +0.000 NA
ATOM     15  C   UNL     1      -0.568  10.610  20.471  0.00  0.00    +0.000 A 
ATOM     16  H   UNL     1       0.400  10.714  17.621  0.00  0.00    +0.000 HD
ENDBRANCH   5   6
ENDBRANCH   2   5
BRANCH   3  17
ATOM     17  C   UNL     1       3.071   6.708  18.949  0.00  0.00    +0.000 C 
BRANCH  17  18
ATOM     18  C   UNL     1       4.147   5.847  18.312  0.00  0.00    +0.000 A 
ATOM     19  C   UNL     1       4.049   5.457  16.968  0.00  0.00    +0.000 A 
ATOM     20  C   UNL     1       5.054   4.685  16.378  0.00  0.00    +0.000 A 
ATOM     21  C   UNL     1       6.168   4.298  17.118  0.00  0.00    +0.000 A 
ATOM     22  C   UNL     1       6.280   4.676  18.452  0.00  0.00    +0.000 A 
ATOM     23  C   UNL     1       5.277   5.443  19.045  0.00  0.00    +0.000 A 
ENDBRANCH  17  18
BRANCH  17  24
ATOM     24  C   UNL     1       1.795   5.868  19.225  0.00  0.00    +0.000 C 
BRANCH  24  25
ATOM     25  C   UNL     1       1.755   5.380  20.677  0.00  0.00    +0.000 C 
BRANCH  25  26
ATOM     26  C   UNL     1       1.295   3.929  20.832  0.00  0.00    +0.000 C 
BRANCH  26  27
ATOM     27  C   UNL     1       2.102   3.055  19.899  0.00  0.00    +0.000 A 
ATOM     28  C   UNL     1       3.381   2.613  20.267  0.00  0.00    +0.000 A 
ATOM     29  C   UNL     1       4.166   1.890  19.367  0.00  0.00    +0.000 A 
ATOM     30  C   UNL     1       3.682   1.603  18.093  0.00  0.00    +0.000 A 
ATOM     31  C   UNL     1       2.413   2.037  17.716  0.00  0.00    +0.000 A 
ATOM     32  C   UNL     1       1.626   2.760  18.615  0.00  0.00    +0.000 A 
ENDBRANCH  26  27
ENDBRANCH  25  26
ENDBRANCH  24  25
ENDBRANCH  17  24
ENDBRANCH   3  17
TORSDOF 8
ENDMDL
MODEL 3
REMARK VINA RESULT:      -7.6      1.830      3.004
REMARK  Name = 
REMARK  8 active torsions:
REMARK  status: ('A' for Active; 'I' for Inactive)
REMARK    1  A    between atoms: C_2  and  C_3
REMARK    2  A    between atoms: C_3  and  N_4
REMARK    3  A    between atoms: N_14  and  C_15
REMARK    4  A    between atoms: C_15  and  C_16
REMARK    5  A    between atoms: C_15  and  C_25
REMARK    6  A    between atoms: C_16  and  C_17
REMARK    7  A    between atoms: C_17  and  C_18
REMARK    8  A    between atoms: C_18  and  C_19
REMARK                            x       y       z     vdW  Elec       q    Type
REMARK                         _______ _______ _______ _____ _____    ______ ____
ROOT
ATOM      1  O   UNL     1       2.357   8.913  17.134  0.00  0.00    +0.000 OA
ATOM      2  C   UNL     1       2.625   7.959  17.871  0.00  0.00    +0.000 C 
ATOM      3  N   UNL     1       3.354   6.951  17.312  0.00  0.00    +0.000 N 
ATOM      4  H   UNL     1       3.647   7.193  16.373  0.00  0.00    +0.000 HD
ENDROOT
BRANCH   2   5
ATOM      5  C   UNL     1       2.146   7.878  19.323  0.00  0.00    +0.000 C 
BRANCH   5   6
ATOM      6  N   UNL     1       1.119   8.884  19.596  0.00  0.00    +0.000 N 
ATOM      7  N   UNL     1       0.938   9.999  18.771  0.00  0.00    +0.000 N 
ATOM      8  C   UNL     1       0.391  11.011  19.561  0.00  0.00    +0.000 A 
ATOM      9  C   UNL     1       0.183  10.632  20.829  0.00  0.00    +0.000 A 
ATOM     10  C   UNL     1      -0.298  11.260  22.045  0.00  0.00    +0.000 A 
ATOM     11  O   UNL     1      -0.715  12.410  22.043  0.00  0.00    +0.000 OA
ATOM     12  N   UNL     1      -0.236  10.456  23.149  0.00  0.00    +0.000 NA
ATOM     13  C   UNL     1       0.240   9.252  23.085  0.00  0.00    +0.000 A 
ATOM     14  N   UNL     1       0.724   8.598  21.978  0.00  0.00    +0.000 NA
ATOM     15  C   UNL     1       0.699   9.256  20.871  0.00  0.00    +0.000 A 
ATOM     16  H   UNL     1       1.764  10.336  18.270  0.00  0.00    +0.000 HD
ENDBRANCH   5   6
ENDBRANCH   2   5
BRANCH   3  17
ATOM     17  C   UNL     1       3.914   5.724  17.875  0.00  0.00    +0.000 C 
BRANCH  17  18
ATOM     18  C   UNL     1       5.384   5.919  18.199  0.00  0.00    +0.000 A 
ATOM     19  C   UNL     1       6.190   6.741  17.397  0.00  0.00    +0.000 A 
ATOM     20  C   UNL     1       7.538   6.939  17.713  0.00  0.00    +0.000 A 
ATOM     21  C   UNL     1       8.094   6.325  18.832  0.00  0.00    +0.000 A 
ATOM     22  C   UNL     1       7.307   5.506  19.637  0.00  0.00    +0.000 A 
ATOM     23  C   UNL     1       5.964   5.304  19.323  0.00  0.00    +0.000 A 
ENDBRANCH  17  18
BRANCH  17  24
ATOM     24  C   UNL     1       3.727   4.544  16.883  0.00  0.00    +0.000 C 
BRANCH  24  25
ATOM     25  C   UNL     1       4.372   3.261  17.418  0.00  0.00    +0.000 C 
BRANCH  25  26
ATOM     26  C   UNL     1       3.365   2.185  17.831  0.00  0.00    +0.000 C 
BRANCH  26  27
ATOM     27  C   UNL     1       2.708   2.599  19.130  0.00  0.00    +0.000 A 
ATOM     28  C   UNL     1       3.391   2.460  20.347  0.00  0.00    +0.000 A 
ATOM     29  C   UNL     1       2.750   2.748  21.554  0.00  0.00    +0.000 A 
ATOM     30  C   UNL     1       1.424   3.175  21.556  0.00  0.00    +0.000 A 
ATOM     31  C   UNL     1       0.736   3.317  20.352  0.00  0.00    +0.000 A 
ATOM     32  C   UNL     1       1.376   3.029  19.144  0.00  0.00    +0.000 A 
ENDBRANCH  26  27
ENDBRANCH  25  26
ENDBRANCH  24  25
ENDBRANCH  17  24
ENDBRANCH   3  17
TORSDOF 8
ENDMDL
MODEL 4
REMARK VINA RESULT:      -7.6      2.012      3.517
REMARK  Name = 
REMARK  8 active torsions:
REMARK  status: ('A' for Active; 'I' for Inactive)
REMARK    1  A    between atoms: C_2  and  C_3
REMARK    2  A    between atoms: C_3  and  N_4
REMARK    3  A    between atoms: N_14  and  C_15
REMARK    4  A    between atoms: C_15  and  C_16
REMARK    5  A    between atoms: C_15  and  C_25
REMARK    6  A    between atoms: C_16  and  C_17
REMARK    7  A    between atoms: C_17  and  C_18
REMARK    8  A    between atoms: C_18  and  C_19
REMARK                            x       y       z     vdW  Elec       q    Type
REMARK                         _______ _______ _______ _____ _____    ______ ____
ROOT
ATOM      1  O   UNL     1       1.152   9.375  22.181  0.00  0.00    +0.000 OA
ATOM      2  C   UNL     1       1.152   8.847  21.064  0.00  0.00    +0.000 C 
ATOM      3  N   UNL     1       1.803   7.654  20.961  0.00  0.00    +0.000 N 
ATOM      4  H   UNL     1       2.120   7.333  21.868  0.00  0.00    +0.000 HD
ENDROOT
BRANCH   2   5
ATOM      5  C   UNL     1       0.492   9.497  19.844  0.00  0.00    +0.000 C 
BRANCH   5   6
ATOM      6  N   UNL     1       0.149  10.894  20.113  0.00  0.00    +0.000 N 
ATOM      7  N   UNL     1      -1.168  11.300  20.350  0.00  0.00    +0.000 N 
ATOM      8  C   UNL     1      -1.262  12.637  19.961  0.00  0.00    +0.000 A 
ATOM      9  C   UNL     1      -0.103  13.136  19.510  0.00  0.00    +0.000 A 
ATOM     10  C   UNL     1       0.349  14.396  18.954  0.00  0.00    +0.000 A 
ATOM     11  O   UNL     1      -0.398  15.362  18.879  0.00  0.00    +0.000 OA
ATOM     12  N   UNL     1       1.653  14.386  18.541  0.00  0.00    +0.000 NA
ATOM     13  C   UNL     1       2.384  13.320  18.628  0.00  0.00    +0.000 A 
ATOM     14  N   UNL     1       2.021  12.092  19.128  0.00  0.00    +0.000 NA
ATOM     15  C   UNL     1       0.814  11.988  19.564  0.00  0.00    +0.000 A 
ATOM     16  H   UNL     1      -1.905  10.741  19.911  0.00  0.00    +0.000 HD
ENDBRANCH   5   6
ENDBRANCH   2   5
BRANCH   3  17
ATOM     17  C   UNL     1       1.952   6.716  19.849  0.00  0.00    +0.000 C 
BRANCH  17  18
ATOM     18  C   UNL     1       1.759   5.291  20.336  0.00  0.00    +0.000 A 
ATOM     19  C   UNL     1       2.509   4.795  21.413  0.00  0.00    +0.000 A 
ATOM     20  C   UNL     1       2.311   3.491  21.876  0.00  0.00    +0.000 A 
ATOM     21  C   UNL     1       1.361   2.670  21.274  0.00  0.00    +0.000 A 
ATOM     22  C   UNL     1       0.610   3.146  20.204  0.00  0.00    +0.000 A 
ATOM     23  C   UNL     1       0.807   4.446  19.738  0.00  0.00    +0.000 A 
ENDBRANCH  17  18
BRANCH  17  24
ATOM     24  C   UNL     1       3.347   6.881  19.189  0.00  0.00    +0.000 C 
BRANCH  24  25
ATOM     25  C   UNL     1       3.303   6.523  17.700  0.00  0.00    +0.000 C 
BRANCH  25  26
ATOM     26  C   UNL     1       4.387   5.533  17.267  0.00  0.00    +0.000 C 
BRANCH  26  27
ATOM     27  C   UNL     1       4.024   4.155  17.773  0.00  0.00    +0.000 A 
ATOM     28  C   UNL     1       4.735   3.578  18.836  0.00  0.00    +0.000 A 
ATOM     29  C   UNL     1       4.467   2.268  19.238  0.00  0.00    +0.000 A 
ATOM     30  C   UNL     1       3.489   1.523  18.582  0.00  0.00    +0.000 A 
ATOM     31  C   UNL     1       2.777   2.086  17.525  0.00  0.00    +0.000 A 
ATOM     32  C   UNL     1       3.043   3.396  17.122  0.00  0.00    +0.000 A 
ENDBRANCH  26  27
ENDBRANCH  25  26
ENDBRANCH  24  25
ENDBRANCH  17  24
ENDBRANCH   3  17
TORSDOF 8
ENDMDL
MODEL 5
REMARK VINA RESULT:      -7.6      1.235      1.732
REMARK  Name = 
REMARK  8 active torsions:
REMARK  status: ('A' for Active; 'I' for Inactive)
REMARK    1  A    between atoms: C_2  and  C_3
REMARK    2  A    between atoms: C_3  and  N_4
REMARK    3  A    between atoms: N_14  and  C_15
REMARK    4  A    between atoms: C_15  and  C_16
REMARK    5  A    between atoms: C_15  and  C_25
REMARK    6  A    between atoms: C_16  and  C_17
REMARK    7  A    between atoms: C_17  and  C_18
REMARK    8  A    between atoms: C_18  and  C_19
REMARK                            x       y       z     vdW  Elec       q    Type
REMARK                         _______ _______ _______ _____ _____    ______ ____
ROOT
ATOM      1  O   UNL     1       1.517   9.306  17.373  0.00  0.00    +0.000 OA
ATOM      2  C   UNL     1       1.845   8.681  18.387  0.00  0.00    +0.000 C 
ATOM      3  N   UNL     1       2.367   7.437  18.186  0.00  0.00    +0.000 N 
ATOM      4  H   UNL     1       2.491   7.250  17.199  0.00  0.00    +0.000 HD
ENDROOT
BRANCH   2   5
ATOM      5  C   UNL     1       1.652   9.240  19.799  0.00  0.00    +0.000 C 
BRANCH   5   6
ATOM      6  N   UNL     1       0.410  10.008  19.896  0.00  0.00    +0.000 N 
ATOM      7  N   UNL     1       0.109  11.044  19.006  0.00  0.00    +0.000 N 
ATOM      8  C   UNL     1      -0.737  11.929  19.676  0.00  0.00    +0.000 A 
ATOM      9  C   UNL     1      -1.025  11.537  20.924  0.00  0.00    +0.000 A 
ATOM     10  C   UNL     1      -1.782  12.069  22.041  0.00  0.00    +0.000 A 
ATOM     11  O   UNL     1      -2.427  13.103  21.936  0.00  0.00    +0.000 OA
ATOM     12  N   UNL     1      -1.698  11.315  23.180  0.00  0.00    +0.000 NA
ATOM     13  C   UNL     1      -0.976  10.240  23.229  0.00  0.00    +0.000 A 
ATOM     14  N   UNL     1      -0.225   9.686  22.221  0.00  0.00    +0.000 NA
ATOM     15  C   UNL     1      -0.242  10.304  21.092  0.00  0.00    +0.000 A 
ATOM     16  H   UNL     1       0.905  11.541  18.597  0.00  0.00    +0.000 HD
ENDBRANCH   5   6
ENDBRANCH   2   5
BRANCH   3  17
ATOM     17  C   UNL     1       2.923   6.452  19.112  0.00  0.00    +0.000 C 
BRANCH  17  18
ATOM     18  C   UNL     1       4.073   5.707  18.456  0.00  0.00    +0.000 A 
ATOM     19  C   UNL     1       5.279   5.506  19.143  0.00  0.00    +0.000 A 
ATOM     20  C   UNL     1       6.326   4.798  18.546  0.00  0.00    +0.000 A 
ATOM     21  C   UNL     1       6.181   4.280  17.262  0.00  0.00    +0.000 A 
ATOM     22  C   UNL     1       4.991   4.473  16.566  0.00  0.00    +0.000 A 
ATOM     23  C   UNL     1       3.946   5.182  17.158  0.00  0.00    +0.000 A 
ENDBRANCH  17  18
BRANCH  17  24
ATOM     24  C   UNL     1       1.821   5.459  19.567  0.00  0.00    +0.000 C 
BRANCH  24  25
ATOM     25  C   UNL     1       1.951   5.128  21.057  0.00  0.00    +0.000 C 
BRANCH  25  26
ATOM     26  C   UNL     1       1.795   3.640  21.380  0.00  0.00    +0.000 C 
BRANCH  26  27
ATOM     27  C   UNL     1       2.421   2.828  20.268  0.00  0.00    +0.000 A 
ATOM     28  C   UNL     1       3.758   2.413  20.357  0.00  0.00    +0.000 A 
ATOM     29  C   UNL     1       4.364   1.749  19.289  0.00  0.00    +0.000 A 
ATOM     30  C   UNL     1       3.643   1.495  18.124  0.00  0.00    +0.000 A 
ATOM     31  C   UNL     1       2.314   1.903  18.025  0.00  0.00    +0.000 A 
ATOM     32  C   UNL     1       1.706   2.566  19.092  0.00  0.00    +0.000 A 
ENDBRANCH  26  27
ENDBRANCH  25  26
ENDBRANCH  24  25
ENDBRANCH  17  24
ENDBRANCH   3  17
TORSDOF 8
ENDMDL
MODEL 6
REMARK VINA RESULT:      -7.5      4.378      7.330
REMARK  Name = 
REMARK  8 active torsions:
REMARK  status: ('A' for Active; 'I' for Inactive)
REMARK    1  A    between atoms: C_2  and  C_3
REMARK    2  A    between atoms: C_3  and  N_4
REMARK    3  A    between atoms: N_14  and  C_15
REMARK    4  A    between atoms: C_15  and  C_16
REMARK    5  A    between atoms: C_15  and  C_25
REMARK    6  A    between atoms: C_16  and  C_17
REMARK    7  A    between atoms: C_17  and  C_18
REMARK    8  A    between atoms: C_18  and  C_19
REMARK                            x       y       z     vdW  Elec       q    Type
REMARK                         _______ _______ _______ _____ _____    ______ ____
ROOT
ATOM      1  O   UNL     1       8.001   4.410  18.612  0.00  0.00    +0.000 OA
ATOM      2  C   UNL     1       6.902   4.717  18.138  0.00  0.00    +0.000 C 
ATOM      3  N   UNL     1       6.856   4.890  16.786  0.00  0.00    +0.000 N 
ATOM      4  H   UNL     1       7.740   4.644  16.358  0.00  0.00    +0.000 HD
ENDROOT
BRANCH   2   5
ATOM      5  C   UNL     1       5.659   4.930  19.006  0.00  0.00    +0.000 C 
BRANCH   5   6
ATOM      6  N   UNL     1       4.745   3.791  18.905  0.00  0.00    +0.000 N 
ATOM      7  N   UNL     1       4.607   3.056  17.723  0.00  0.00    +0.000 N 
ATOM      8  C   UNL     1       3.323   2.510  17.726  0.00  0.00    +0.000 A 
ATOM      9  C   UNL     1       2.625   2.815  18.829  0.00  0.00    +0.000 A 
ATOM     10  C   UNL     1       1.284   2.568  19.321  0.00  0.00    +0.000 A 
ATOM     11  O   UNL     1       0.501   1.859  18.704  0.00  0.00    +0.000 OA
ATOM     12  N   UNL     1       1.002   3.190  20.506  0.00  0.00    +0.000 NA
ATOM     13  C   UNL     1       1.872   3.948  21.097  0.00  0.00    +0.000 A 
ATOM     14  N   UNL     1       3.150   4.238  20.685  0.00  0.00    +0.000 NA
ATOM     15  C   UNL     1       3.532   3.691  19.584  0.00  0.00    +0.000 A 
ATOM     16  H   UNL     1       4.786   3.559  16.849  0.00  0.00    +0.000 HD
ENDBRANCH   5   6
ENDBRANCH   2   5
BRANCH   3  17
ATOM     17  C   UNL     1       5.748   5.176  15.877  0.00  0.00    +0.000 C 
BRANCH  17  18
ATOM     18  C   UNL     1       6.073   4.675  14.481  0.00  0.00    +0.000 A 
ATOM     19  C   UNL     1       5.199   3.806  13.811  0.00  0.00    +0.000 A 
ATOM     20  C   UNL     1       5.488   3.367  12.516  0.00  0.00    +0.000 A 
ATOM     21  C   UNL     1       6.649   3.792  11.874  0.00  0.00    +0.000 A 
ATOM     22  C   UNL     1       7.527   4.652  12.525  0.00  0.00    +0.000 A 
ATOM     23  C   UNL     1       7.242   5.089  13.819  0.00  0.00    +0.000 A 
ENDBRANCH  17  18
BRANCH  17  24
ATOM     24  C   UNL     1       5.451   6.700  15.853  0.00  0.00    +0.000 C 
BRANCH  24  25
ATOM     25  C   UNL     1       4.788   7.157  17.155  0.00  0.00    +0.000 C 
BRANCH  25  26
ATOM     26  C   UNL     1       3.351   6.661  17.329  0.00  0.00    +0.000 C 
BRANCH  26  27
ATOM     27  C   UNL     1       2.598   7.634  18.209  0.00  0.00    +0.000 A 
ATOM     28  C   UNL     1       2.324   7.317  19.548  0.00  0.00    +0.000 A 
ATOM     29  C   UNL     1       1.545   8.170  20.332  0.00  0.00    +0.000 A 
ATOM     30  C   UNL     1       1.031   9.344  19.786  0.00  0.00    +0.000 A 
ATOM     31  C   UNL     1       1.297   9.669  18.457  0.00  0.00    +0.000 A 
ATOM     32  C   UNL     1       2.076   8.818  17.672  0.00  0.00    +0.000 A 
ENDBRANCH  26  27
ENDBRANCH  25  26
ENDBRANCH  24  25
ENDBRANCH  17  24
ENDBRANCH   3  17
TORSDOF 8
ENDMDL
MODEL 7
REMARK VINA RESULT:      -7.5      1.814      3.008
REMARK  Name = 
REMARK  8 active torsions:
REMARK  status: ('A' for Active; 'I' for Inactive)
REMARK    1  A    between atoms: C_2  and  C_3
REMARK    2  A    between atoms: C_3  and  N_4
REMARK    3  A    between atoms: N_14  and  C_15
REMARK    4  A    between atoms: C_15  and  C_16
REMARK    5  A    between atoms: C_15  and  C_25
REMARK    6  A    between atoms: C_16  and  C_17
REMARK    7  A    between atoms: C_17  and  C_18
REMARK    8  A    between atoms: C_18  and  C_19
REMARK                            x       y       z     vdW  Elec       q    Type
REMARK                         _______ _______ _______ _____ _____    ______ ____
ROOT
ATOM      1  O   UNL     1       2.305   9.043  17.222  0.00  0.00    +0.000 OA
ATOM      2  C   UNL     1       2.583   8.084  17.949  0.00  0.00    +0.000 C 
ATOM      3  N   UNL     1       3.325   7.091  17.380  0.00  0.00    +0.000 N 
ATOM      4  H   UNL     1       3.616   7.347  16.444  0.00  0.00    +0.000 HD
ENDROOT
BRANCH   2   5
ATOM      5  C   UNL     1       2.103   7.981  19.399  0.00  0.00    +0.000 C 
BRANCH   5   6
ATOM      6  N   UNL     1       1.039   8.947  19.672  0.00  0.00    +0.000 N 
ATOM      7  N   UNL     1       0.787  10.030  18.822  0.00  0.00    +0.000 N 
ATOM      8  C   UNL     1       0.215  11.038  19.598  0.00  0.00    +0.000 A 
ATOM      9  C   UNL     1       0.057  10.687  20.882  0.00  0.00    +0.000 A 
ATOM     10  C   UNL     1      -0.420  11.327  22.092  0.00  0.00    +0.000 A 
ATOM     11  O   UNL     1      -0.888  12.457  22.070  0.00  0.00    +0.000 OA
ATOM     12  N   UNL     1      -0.294  10.558  23.216  0.00  0.00    +0.000 NA
ATOM     13  C   UNL     1       0.233   9.375  23.172  0.00  0.00    +0.000 A 
ATOM     14  N   UNL     1       0.717   8.712  22.070  0.00  0.00    +0.000 NA
ATOM     15  C   UNL     1       0.636   9.337  20.947  0.00  0.00    +0.000 A 
ATOM     16  H   UNL     1       1.585  10.389  18.290  0.00  0.00    +0.000 HD
ENDBRANCH   5   6
ENDBRANCH   2   5
BRANCH   3  17
ATOM     17  C   UNL     1       3.897   5.864  17.929  0.00  0.00    +0.000 C 
BRANCH  17  18
ATOM     18  C   UNL     1       5.381   6.050  18.192  0.00  0.00    +0.000 A 
ATOM     19  C   UNL     1       6.151   6.893  17.377  0.00  0.00    +0.000 A 
ATOM     20  C   UNL     1       7.512   7.082  17.636  0.00  0.00    +0.000 A 
ATOM     21  C   UNL     1       8.118   6.437  18.711  0.00  0.00    +0.000 A 
ATOM     22  C   UNL     1       7.368   5.596  19.528  0.00  0.00    +0.000 A 
ATOM     23  C   UNL     1       6.011   5.403  19.270  0.00  0.00    +0.000 A 
ENDBRANCH  17  18
BRANCH  17  24
ATOM     24  C   UNL     1       3.661   4.677  16.957  0.00  0.00    +0.000 C 
BRANCH  24  25
ATOM     25  C   UNL     1       2.281   4.048  17.172  0.00  0.00    +0.000 C 
BRANCH  25  26
ATOM     26  C   UNL     1       2.328   2.588  17.628  0.00  0.00    +0.000 C 
BRANCH  26  27
ATOM     27  C   UNL     1       2.284   2.543  19.139  0.00  0.00    +0.000 A 
ATOM     28  C   UNL     1       1.096   2.839  19.824  0.00  0.00    +0.000 A 
ATOM     29  C   UNL     1       1.080   2.894  21.219  0.00  0.00    +0.000 A 
ATOM     30  C   UNL     1       2.248   2.658  21.941  0.00  0.00    +0.000 A 
ATOM     31  C   UNL     1       3.434   2.363  21.270  0.00  0.00    +0.000 A 
ATOM     32  C   UNL     1       3.452   2.307  19.875  0.00  0.00    +0.000 A 
ENDBRANCH  26  27
ENDBRANCH  25  26
ENDBRANCH  24  25
ENDBRANCH  17  24
ENDBRANCH   3  17
TORSDOF 8
ENDMDL
MODEL 8
REMARK VINA RESULT:      -7.5      2.444      5.377
REMARK  Name = 
REMARK  8 active torsions:
REMARK  status: ('A' for Active; 'I' for Inactive)
REMARK    1  A    between atoms: C_2  and  C_3
REMARK    2  A    between atoms: C_3  and  N_4
REMARK    3  A    between atoms: N_14  and  C_15
REMARK    4  A    between atoms: C_15  and  C_16
REMARK    5  A    between atoms: C_15  and  C_25
REMARK    6  A    between atoms: C_16  and  C_17
REMARK    7  A    between atoms: C_17  and  C_18
REMARK    8  A    between atoms: C_18  and  C_19
REMARK                            x       y       z     vdW  Elec       q    Type
REMARK                         _______ _______ _______ _____ _____    ______ ____
ROOT
ATOM      1  O   UNL     1      -0.945  12.982  17.609  0.00  0.00    +0.000 OA
ATOM      2  C   UNL     1      -1.083  11.822  18.011  0.00  0.00    +0.000 C 
ATOM      3  N   UNL     1       0.058  11.171  18.377  0.00  0.00    +0.000 N 
ATOM      4  H   UNL     1       0.857  11.792  18.344  0.00  0.00    +0.000 HD
ENDROOT
BRANCH   2   5
ATOM      5  C   UNL     1      -2.446  11.126  18.071  0.00  0.00    +0.000 C 
BRANCH   5   6
ATOM      6  N   UNL     1      -3.449  11.987  18.698  0.00  0.00    +0.000 N 
ATOM      7  N   UNL     1      -3.133  12.841  19.760  0.00  0.00    +0.000 N 
ATOM      8  C   UNL     1      -4.301  13.024  20.501  0.00  0.00    +0.000 A 
ATOM      9  C   UNL     1      -5.355  12.374  19.991  0.00  0.00    +0.000 A 
ATOM     10  C   UNL     1      -6.744  12.178  20.360  0.00  0.00    +0.000 A 
ATOM     11  O   UNL     1      -7.231  12.747  21.327  0.00  0.00    +0.000 OA
ATOM     12  N   UNL     1      -7.422  11.321  19.538  0.00  0.00    +0.000 NA
ATOM     13  C   UNL     1      -6.838  10.733  18.542  0.00  0.00    +0.000 A 
ATOM     14  N   UNL     1      -5.530  10.857  18.143  0.00  0.00    +0.000 NA
ATOM     15  C   UNL     1      -4.796  11.656  18.837  0.00  0.00    +0.000 A 
ATOM     16  H   UNL     1      -2.360  12.551  20.365  0.00  0.00    +0.000 HD
ENDBRANCH   5   6
ENDBRANCH   2   5
BRANCH   3  17
ATOM     17  C   UNL     1       0.283   9.848  18.957  0.00  0.00    +0.000 C 
BRANCH  17  18
ATOM     18  C   UNL     1      -0.052   9.862  20.438  0.00  0.00    +0.000 A 
ATOM     19  C   UNL     1      -0.147   8.664  21.161  0.00  0.00    +0.000 A 
ATOM     20  C   UNL     1      -0.430   8.681  22.530  0.00  0.00    +0.000 A 
ATOM     21  C   UNL     1      -0.616   9.891  23.193  0.00  0.00    +0.000 A 
ATOM     22  C   UNL     1      -0.526  11.088  22.489  0.00  0.00    +0.000 A 
ATOM     23  C   UNL     1      -0.248  11.074  21.123  0.00  0.00    +0.000 A 
ENDBRANCH  17  18
BRANCH  17  24
ATOM     24  C   UNL     1       1.754   9.407  18.736  0.00  0.00    +0.000 C 
BRANCH  24  25
ATOM     25  C   UNL     1       1.831   8.127  17.897  0.00  0.00    +0.000 C 
BRANCH  25  26
ATOM     26  C   UNL     1       2.960   7.181  18.309  0.00  0.00    +0.000 C 
BRANCH  26  27
ATOM     27  C   UNL     1       2.359   5.885  18.805  0.00  0.00    +0.000 A 
ATOM     28  C   UNL     1       2.005   4.873  17.900  0.00  0.00    +0.000 A 
ATOM     29  C   UNL     1       1.360   3.718  18.347  0.00  0.00    +0.000 A 
ATOM     30  C   UNL     1       1.060   3.564  19.699  0.00  0.00    +0.000 A 
ATOM     31  C   UNL     1       1.407   4.563  20.607  0.00  0.00    +0.000 A 
ATOM     32  C   UNL     1       2.053   5.718  20.162  0.00  0.00    +0.000 A 
ENDBRANCH  26  27
ENDBRANCH  25  26
ENDBRANCH  24  25
ENDBRANCH  17  24
ENDBRANCH   3  17
TORSDOF 8
ENDMDL
MODEL 9
REMARK VINA RESULT:      -7.4      1.955      4.064
REMARK  Name = 
REMARK  8 active torsions:
REMARK  status: ('A' for Active; 'I' for Inactive)
REMARK    1  A    between atoms: C_2  and  C_3
REMARK    2  A    between atoms: C_3  and  N_4
REMARK    3  A    between atoms: N_14  and  C_15
REMARK    4  A    between atoms: C_15  and  C_16
REMARK    5  A    between atoms: C_15  and  C_25
REMARK    6  A    between atoms: C_16  and  C_17
REMARK    7  A    between atoms: C_17  and  C_18
REMARK    8  A    between atoms: C_18  and  C_19
REMARK                            x       y       z     vdW  Elec       q    Type
REMARK                         _______ _______ _______ _____ _____    ______ ____
ROOT
ATOM      1  O   UNL     1       1.610   8.640  20.337  0.00  0.00    +0.000 OA
ATOM      2  C   UNL     1       1.930   8.168  19.241  0.00  0.00    +0.000 C 
ATOM      3  N   UNL     1       2.515   6.937  19.262  0.00  0.00    +0.000 N 
ATOM      4  H   UNL     1       2.515   6.551  20.198  0.00  0.00    +0.000 HD
ENDROOT
BRANCH   2   5
ATOM      5  C   UNL     1       1.719   8.923  17.925  0.00  0.00    +0.000 C 
BRANCH   5   6
ATOM      6  N   UNL     1       0.991  10.173  18.146  0.00  0.00    +0.000 N 
ATOM      7  N   UNL     1       1.425  11.129  19.070  0.00  0.00    +0.000 N 
ATOM      8  C   UNL     1       0.297  11.833  19.494  0.00  0.00    +0.000 A 
ATOM      9  C   UNL     1      -0.832  11.422  18.901  0.00  0.00    +0.000 A 
ATOM     10  C   UNL     1      -2.242  11.750  18.991  0.00  0.00    +0.000 A 
ATOM     11  O   UNL     1      -2.637  12.661  19.705  0.00  0.00    +0.000 OA
ATOM     12  N   UNL     1      -3.048  10.959  18.220  0.00  0.00    +0.000 NA
ATOM     13  C   UNL     1      -2.564   9.994  17.503  0.00  0.00    +0.000 A 
ATOM     14  N   UNL     1      -1.249   9.617  17.380  0.00  0.00    +0.000 NA
ATOM     15  C   UNL     1      -0.393  10.305  18.052  0.00  0.00    +0.000 A 
ATOM     16  H   UNL     1       1.959  10.782  19.871  0.00  0.00    +0.000 HD
ENDBRANCH   5   6
ENDBRANCH   2   5
BRANCH   3  17
ATOM     17  C   UNL     1       2.952   6.047  18.188  0.00  0.00    +0.000 C 
BRANCH  17  18
ATOM     18  C   UNL     1       2.652   4.603  18.550  0.00  0.00    +0.000 A 
ATOM     19  C   UNL     1       1.510   3.962  18.047  0.00  0.00    +0.000 A 
ATOM     20  C   UNL     1       1.250   2.625  18.361  0.00  0.00    +0.000 A 
ATOM     21  C   UNL     1       2.126   1.912  19.176  0.00  0.00    +0.000 A 
ATOM     22  C   UNL     1       3.262   2.534  19.684  0.00  0.00    +0.000 A 
ATOM     23  C   UNL     1       3.523   3.869  19.375  0.00  0.00    +0.000 A 
ENDBRANCH  17  18
BRANCH  17  24
ATOM     24  C   UNL     1       4.469   6.236  17.916  0.00  0.00    +0.000 C 
BRANCH  24  25
ATOM     25  C   UNL     1       4.812   5.942  16.452  0.00  0.00    +0.000 C 
BRANCH  25  26
ATOM     26  C   UNL     1       5.084   4.465  16.161  0.00  0.00    +0.000 C 
BRANCH  26  27
ATOM     27  C   UNL     1       5.822   4.351  14.846  0.00  0.00    +0.000 A 
ATOM     28  C   UNL     1       7.022   5.048  14.641  0.00  0.00    +0.000 A 
ATOM     29  C   UNL     1       7.651   5.022  13.395  0.00  0.00    +0.000 A 
ATOM     30  C   UNL     1       7.088   4.302  12.343  0.00  0.00    +0.000 A 
ATOM     31  C   UNL     1       5.897   3.605  12.536  0.00  0.00    +0.000 A 
ATOM     32  C   UNL     1       5.266   3.630  13.781  0.00  0.00    +0.000 A 
ENDBRANCH  26  27
ENDBRANCH  25  26
ENDBRANCH  24  25
ENDBRANCH  17  24
ENDBRANCH   3  17
TORSDOF 8
ENDMDL
