MODEL 1
REMARK VINA RESULT:      -8.8      0.000      0.000
REMARK  Name = 
REMARK  4 active torsions:
REMARK  status: ('A' for Active; 'I' for Inactive)
REMARK    1  A    between atoms: C_2  and  C_3
REMARK    2  A    between atoms: C_3  and  C_4
REMARK    3  A    between atoms: N_13  and  C_14
REMARK    4  A    between atoms: C_17  and  C_18
REMARK                            x       y       z     vdW  Elec       q    Type
REMARK                         _______ _______ _______ _____ _____    ______ ____
ROOT
ATOM      1  O   UNL     1       8.052  10.258  17.733  0.00  0.00    +0.000 OA
ATOM      2  C   UNL     1       8.754   9.714  18.584  0.00  0.00    +0.000 C 
ATOM      3  N   UNL     1       8.722   8.366  18.926  0.00  0.00    +0.000 N 
ATOM      4  H   UNL     1       9.274   8.078  19.725  0.00  0.00    +0.000 HD
ENDROOT
BRANCH   3   5
ATOM      5  C   UNL     1       7.925   7.363  18.321  0.00  0.00    +0.000 A 
ATOM      6  C   UNL     1       7.161   7.590  17.176  0.00  0.00    +0.000 A 
ATOM      7  C   UNL     1       6.324   6.601  16.662  0.00  0.00    +0.000 A 
ATOM      8  C   UNL     1       6.194   5.372  17.308  0.00  0.00    +0.000 A 
ATOM      9  C   UNL     1       7.038   5.091  18.390  0.00  0.00    +0.000 A 
ATOM     10  C   UNL     1       7.894   6.084  18.897  0.00  0.00    +0.000 A 
BRANCH   8  11
ATOM     11  C   UNL     1       5.145   4.387  16.918  0.00  0.00    +0.000 C 
ATOM     12  O   UNL     1       5.497   3.379  16.298  0.00  0.00    +0.000 OA
ATOM     13  N   UNL     1       3.837   4.597  17.333  0.00  0.00    +0.000 N 
ATOM     14  C   UNL     1       3.308   5.675  18.151  0.00  0.00    +0.000 C 
ATOM     15  C   UNL     1       2.266   5.001  19.011  0.00  0.00    +0.000 C 
ATOM     16  C   UNL     1       1.666   3.971  18.064  0.00  0.00    +0.000 C 
ATOM     17  C   UNL     1       2.806   3.593  17.116  0.00  0.00    +0.000 C 
ENDBRANCH   8  11
ENDBRANCH   3   5
BRANCH   2  18
ATOM     18  C   UNL     1       9.788  10.528  19.345  0.00  0.00    +0.000 C 
BRANCH  18  19
ATOM     19  C   UNL     1      10.187  11.853  18.730  0.00  0.00    +0.000 A 
ATOM     20  C   UNL     1      11.145  11.849  17.687  0.00  0.00    +0.000 A 
ATOM     21  C   UNL     1      11.518  13.025  17.029  0.00  0.00    +0.000 A 
ATOM     22  C   UNL     1      10.906  14.205  17.401  0.00  0.00    +0.000 A 
ATOM     23  C   UNL     1       9.943  14.225  18.414  0.00  0.00    +0.000 A 
ATOM     24  C   UNL     1       9.572  13.065  19.082  0.00  0.00    +0.000 A 
ATOM     25  C   UNL     1       9.461  15.623  18.656  0.00  0.00    +0.000 C 
ATOM     26  C   UNL     1       9.898  16.318  17.358  0.00  0.00    +0.000 C 
ATOM     27  C   UNL     1      11.156  15.583  16.872  0.00  0.00    +0.000 C 
ENDBRANCH  18  19
ENDBRANCH   2  18
TORSDOF 4
ENDMDL
MODEL 2
REMARK VINA RESULT:      -8.8      6.380      9.014
REMARK  Name = 
REMARK  4 active torsions:
REMARK  status: ('A' for Active; 'I' for Inactive)
REMARK    1  A    between atoms: C_2  and  C_3
REMARK    2  A    between atoms: C_3  and  C_4
REMARK    3  A    between atoms: N_13  and  C_14
REMARK    4  A    between atoms: C_17  and  C_18
REMARK                            x       y       z     vdW  Elec       q    Type
REMARK                         _______ _______ _______ _____ _____    ______ ____
ROOT
ATOM      1  O   UNL     1       2.131   4.321  17.793  0.00  0.00    +0.000 OA
ATOM      2  C   UNL     1       3.282   4.742  17.906  0.00  0.00    +0.000 C 
ATOM      3  N   UNL     1       3.645   6.015  18.335  0.00  0.00    +0.000 N 
ATOM      4  H   UNL     1       4.625   6.263  18.270  0.00  0.00    +0.000 HD
ENDROOT
BRANCH   3   5
ATOM      5  C   UNL     1       2.767   7.036  18.776  0.00  0.00    +0.000 A 
ATOM      6  C   UNL     1       2.429   8.137  17.989  0.00  0.00    +0.000 A 
ATOM      7  C   UNL     1       1.629   9.161  18.492  0.00  0.00    +0.000 A 
ATOM      8  C   UNL     1       1.184   9.134  19.813  0.00  0.00    +0.000 A 
ATOM      9  C   UNL     1       1.421   7.984  20.576  0.00  0.00    +0.000 A 
ATOM     10  C   UNL     1       2.215   6.944  20.062  0.00  0.00    +0.000 A 
BRANCH   8  11
ATOM     11  C   UNL     1       0.525  10.314  20.445  0.00  0.00    +0.000 C 
ATOM     12  O   UNL     1       1.114  10.879  21.372  0.00  0.00    +0.000 OA
ATOM     13  N   UNL     1      -0.673  10.777  19.920  0.00  0.00    +0.000 N 
ATOM     14  C   UNL     1      -1.414  10.277  18.775  0.00  0.00    +0.000 C 
ATOM     15  C   UNL     1      -1.964  11.524  18.125  0.00  0.00    +0.000 C 
ATOM     16  C   UNL     1      -2.292  12.407  19.321  0.00  0.00    +0.000 C 
ATOM     17  C   UNL     1      -1.278  12.012  20.396  0.00  0.00    +0.000 C 
ENDBRANCH   8  11
ENDBRANCH   3   5
BRANCH   2  18
ATOM     18  C   UNL     1       4.456   3.829  17.593  0.00  0.00    +0.000 C 
BRANCH  18  19
ATOM     19  C   UNL     1       5.275   4.182  16.369  0.00  0.00    +0.000 A 
ATOM     20  C   UNL     1       6.465   4.929  16.548  0.00  0.00    +0.000 A 
ATOM     21  C   UNL     1       7.305   5.239  15.474  0.00  0.00    +0.000 A 
ATOM     22  C   UNL     1       6.962   4.774  14.220  0.00  0.00    +0.000 A 
ATOM     23  C   UNL     1       5.802   4.019  14.027  0.00  0.00    +0.000 A 
ATOM     24  C   UNL     1       4.955   3.712  15.085  0.00  0.00    +0.000 A 
ATOM     25  C   UNL     1       5.634   3.670  12.580  0.00  0.00    +0.000 C 
ATOM     26  C   UNL     1       7.058   3.897  12.051  0.00  0.00    +0.000 C 
ATOM     27  C   UNL     1       7.676   5.000  12.924  0.00  0.00    +0.000 C 
ENDBRANCH  18  19
ENDBRANCH   2  18
TORSDOF 4
ENDMDL
MODEL 3
REMARK VINA RESULT:      -8.7      6.340      9.055
REMARK  Name = 
REMARK  4 active torsions:
REMARK  status: ('A' for Active; 'I' for Inactive)
REMARK    1  A    between atoms: C_2  and  C_3
REMARK    2  A    between atoms: C_3  and  C_4
REMARK    3  A    between atoms: N_13  and  C_14
REMARK    4  A    between atoms: C_17  and  C_18
REMARK                            x       y       z     vdW  Elec       q    Type
REMARK                         _______ _______ _______ _____ _____    ______ ____
ROOT
ATOM      1  O   UNL     1       1.792   4.826  18.601  0.00  0.00    +0.000 OA
ATOM      2  C   UNL     1       2.943   5.251  18.511  0.00  0.00    +0.000 C 
ATOM      3  N   UNL     1       3.327   6.587  18.587  0.00  0.00    +0.000 N 
ATOM      4  H   UNL     1       4.294   6.802  18.380  0.00  0.00    +0.000 HD
ENDROOT
BRANCH   3   5
ATOM      5  C   UNL     1       2.477   7.692  18.839  0.00  0.00    +0.000 A 
ATOM      6  C   UNL     1       1.848   7.901  20.066  0.00  0.00    +0.000 A 
ATOM      7  C   UNL     1       0.954   8.954  20.246  0.00  0.00    +0.000 A 
ATOM      8  C   UNL     1       0.629   9.801  19.186  0.00  0.00    +0.000 A 
ATOM      9  C   UNL     1       1.337   9.673  17.984  0.00  0.00    +0.000 A 
ATOM     10  C   UNL     1       2.251   8.619  17.810  0.00  0.00    +0.000 A 
BRANCH   8  11
ATOM     11  C   UNL     1      -0.487  10.786  19.281  0.00  0.00    +0.000 C 
ATOM     12  O   UNL     1      -0.359  11.734  20.062  0.00  0.00    +0.000 OA
ATOM     13  N   UNL     1      -1.580  10.648  18.437  0.00  0.00    +0.000 N 
ATOM     14  C   UNL     1      -1.809   9.650  17.406  0.00  0.00    +0.000 C 
ATOM     15  C   UNL     1      -2.499  10.418  16.305  0.00  0.00    +0.000 C 
ATOM     16  C   UNL     1      -3.378  11.393  17.076  0.00  0.00    +0.000 C 
ATOM     17  C   UNL     1      -2.621  11.663  18.378  0.00  0.00    +0.000 C 
ENDBRANCH   8  11
ENDBRANCH   3   5
BRANCH   2  18
ATOM     18  C   UNL     1       4.097   4.278  18.330  0.00  0.00    +0.000 C 
BRANCH  18  19
ATOM     19  C   UNL     1       4.974   4.493  17.115  0.00  0.00    +0.000 A 
ATOM     20  C   UNL     1       6.267   5.039  17.307  0.00  0.00    +0.000 A 
ATOM     21  C   UNL     1       7.157   5.209  16.242  0.00  0.00    +0.000 A 
ATOM     22  C   UNL     1       6.757   4.804  14.984  0.00  0.00    +0.000 A 
ATOM     23  C   UNL     1       5.492   4.245  14.779  0.00  0.00    +0.000 A 
ATOM     24  C   UNL     1       4.596   4.080  15.827  0.00  0.00    +0.000 A 
ATOM     25  C   UNL     1       5.285   3.927  13.330  0.00  0.00    +0.000 C 
ATOM     26  C   UNL     1       6.732   3.921  12.816  0.00  0.00    +0.000 C 
ATOM     27  C   UNL     1       7.511   4.911  13.695  0.00  0.00    +0.000 C 
ENDBRANCH  18  19
ENDBRANCH   2  18
TORSDOF 4
ENDMDL
MODEL 4
REMARK VINA RESULT:      -8.7      6.652      9.548
REMARK  Name = 
REMARK  4 active torsions:
REMARK  status: ('A' for Active; 'I' for Inactive)
REMARK    1  A    between atoms: C_2  and  C_3
REMARK    2  A    between atoms: C_3  and  C_4
REMARK    3  A    between atoms: N_13  and  C_14
REMARK    4  A    between atoms: C_17  and  C_18
REMARK                            x       y       z     vdW  Elec       q    Type
REMARK                         _______ _______ _______ _____ _____    ______ ____
ROOT
ATOM      1  O   UNL     1       0.976   5.187  20.468  0.00  0.00    +0.000 OA
ATOM      2  C   UNL     1       2.131   5.567  20.273  0.00  0.00    +0.000 C 
ATOM      3  N   UNL     1       2.528   6.879  20.035  0.00  0.00    +0.000 N 
ATOM      4  H   UNL     1       3.496   7.029  19.777  0.00  0.00    +0.000 HD
ENDROOT
BRANCH   3   5
ATOM      5  C   UNL     1       1.692   8.023  20.033  0.00  0.00    +0.000 A 
ATOM      6  C   UNL     1       0.913   8.395  21.128  0.00  0.00    +0.000 A 
ATOM      7  C   UNL     1       0.040   9.479  21.055  0.00  0.00    +0.000 A 
ATOM      8  C   UNL     1      -0.110  10.193  19.866  0.00  0.00    +0.000 A 
ATOM      9  C   UNL     1       0.747   9.902  18.797  0.00  0.00    +0.000 A 
ATOM     10  C   UNL     1       1.638   8.818  18.878  0.00  0.00    +0.000 A 
BRANCH   8  11
ATOM     11  C   UNL     1      -1.193  11.203  19.687  0.00  0.00    +0.000 C 
ATOM     12  O   UNL     1      -1.070  12.292  20.255  0.00  0.00    +0.000 OA
ATOM     13  N   UNL     1      -2.248  10.914  18.833  0.00  0.00    +0.000 N 
ATOM     14  C   UNL     1      -2.461   9.724  18.025  0.00  0.00    +0.000 C 
ATOM     15  C   UNL     1      -3.068  10.256  16.750  0.00  0.00    +0.000 C 
ATOM     16  C   UNL     1      -3.948  11.395  17.246  0.00  0.00    +0.000 C 
ATOM     17  C   UNL     1      -3.247  11.919  18.502  0.00  0.00    +0.000 C 
ENDBRANCH   8  11
ENDBRANCH   3   5
BRANCH   2  18
ATOM     18  C   UNL     1       3.273   4.564  20.311  0.00  0.00    +0.000 C 
BRANCH  18  19
ATOM     19  C   UNL     1       4.004   4.327  19.007  0.00  0.00    +0.000 A 
ATOM     20  C   UNL     1       3.266   3.844  17.900  0.00  0.00    +0.000 A 
ATOM     21  C   UNL     1       3.858   3.659  16.647  0.00  0.00    +0.000 A 
ATOM     22  C   UNL     1       5.191   3.987  16.498  0.00  0.00    +0.000 A 
ATOM     23  C   UNL     1       5.931   4.484  17.575  0.00  0.00    +0.000 A 
ATOM     24  C   UNL     1       5.356   4.663  18.826  0.00  0.00    +0.000 A 
ATOM     25  C   UNL     1       7.353   4.725  17.170  0.00  0.00    +0.000 C 
ATOM     26  C   UNL     1       7.226   4.764  15.640  0.00  0.00    +0.000 C 
ATOM     27  C   UNL     1       6.046   3.850  15.278  0.00  0.00    +0.000 C 
ENDBRANCH  18  19
ENDBRANCH   2  18
TORSDOF 4
ENDMDL
MODEL 5
REMARK VINA RESULT:      -8.6      6.295      8.950
REMARK  Name = 
REMARK  4 active torsions:
REMARK  status: ('A' for Active; 'I' for Inactive)
REMARK    1  A    between atoms: C_2  and  C_3
REMARK    2  A    between atoms: C_3  and  C_4
REMARK    3  A    between atoms: N_13  and  C_14
REMARK    4  A    between atoms: C_17  and  C_18
REMARK                            x       y       z     vdW  Elec       q    Type
REMARK                         _______ _______ _______ _____ _____    ______ ____
ROOT
ATOM      1  O   UNL     1       4.917   5.247  19.399  0.00  0.00    +0.000 OA
ATOM      2  C   UNL     1       4.174   4.994  18.452  0.00  0.00    +0.000 C 
ATOM      3  N   UNL     1       3.018   5.690  18.114  0.00  0.00    +0.000 N 
ATOM      4  H   UNL     1       2.442   5.300  17.379  0.00  0.00    +0.000 HD
ENDROOT
BRANCH   3   5
ATOM      5  C   UNL     1       2.517   6.849  18.757  0.00  0.00    +0.000 A 
ATOM      6  C   UNL     1       2.101   6.858  20.088  0.00  0.00    +0.000 A 
ATOM      7  C   UNL     1       1.536   7.997  20.658  0.00  0.00    +0.000 A 
ATOM      8  C   UNL     1       1.327   9.146  19.895  0.00  0.00    +0.000 A 
ATOM      9  C   UNL     1       1.842   9.188  18.593  0.00  0.00    +0.000 A 
ATOM     10  C   UNL     1       2.427   8.043  18.025  0.00  0.00    +0.000 A 
BRANCH   8  11
ATOM     11  C   UNL     1       0.522  10.293  20.405  0.00  0.00    +0.000 C 
ATOM     12  O   UNL     1       0.992  10.967  21.327  0.00  0.00    +0.000 OA
ATOM     13  N   UNL     1      -0.675  10.607  19.777  0.00  0.00    +0.000 N 
ATOM     14  C   UNL     1      -1.288   9.970  18.623  0.00  0.00    +0.000 C 
ATOM     15  C   UNL     1      -1.904  11.117  17.860  0.00  0.00    +0.000 C 
ATOM     16  C   UNL     1      -2.392  12.036  18.971  0.00  0.00    +0.000 C 
ATOM     17  C   UNL     1      -1.421  11.805  20.131  0.00  0.00    +0.000 C 
ENDBRANCH   8  11
ENDBRANCH   3   5
BRANCH   2  18
ATOM     18  C   UNL     1       4.510   3.847  17.512  0.00  0.00    +0.000 C 
BRANCH  18  19
ATOM     19  C   UNL     1       5.308   4.202  16.275  0.00  0.00    +0.000 A 
ATOM     20  C   UNL     1       6.422   5.063  16.417  0.00  0.00    +0.000 A 
ATOM     21  C   UNL     1       7.243   5.386  15.333  0.00  0.00    +0.000 A 
ATOM     22  C   UNL     1       6.958   4.821  14.105  0.00  0.00    +0.000 A 
ATOM     23  C   UNL     1       5.873   3.953  13.950  0.00  0.00    +0.000 A 
ATOM     24  C   UNL     1       5.046   3.632  15.018  0.00  0.00    +0.000 A 
ATOM     25  C   UNL     1       5.754   3.509  12.525  0.00  0.00    +0.000 C 
ATOM     26  C   UNL     1       7.157   3.834  11.992  0.00  0.00    +0.000 C 
ATOM     27  C   UNL     1       7.663   5.036  12.802  0.00  0.00    +0.000 C 
ENDBRANCH  18  19
ENDBRANCH   2  18
TORSDOF 4
ENDMDL
MODEL 6
REMARK VINA RESULT:      -8.5      6.680      9.509
REMARK  Name = 
REMARK  4 active torsions:
REMARK  status: ('A' for Active; 'I' for Inactive)
REMARK    1  A    between atoms: C_2  and  C_3
REMARK    2  A    between atoms: C_3  and  C_4
REMARK    3  A    between atoms: N_13  and  C_14
REMARK    4  A    between atoms: C_17  and  C_18
REMARK                            x       y       z     vdW  Elec       q    Type
REMARK                         _______ _______ _______ _____ _____    ______ ____
ROOT
ATOM      1  O   UNL     1       1.764  12.024  19.138  0.00  0.00    +0.000 OA
ATOM      2  C   UNL     1       0.638  11.534  19.063  0.00  0.00    +0.000 C 
ATOM      3  N   UNL     1       0.345  10.180  18.930  0.00  0.00    +0.000 N 
ATOM      4  H   UNL     1      -0.622   9.931  18.763  0.00  0.00    +0.000 HD
ENDROOT
BRANCH   3   5
ATOM      5  C   UNL     1       1.280   9.115  18.917  0.00  0.00    +0.000 A 
ATOM      6  C   UNL     1       2.096   8.836  17.821  0.00  0.00    +0.000 A 
ATOM      7  C   UNL     1       2.942   7.728  17.818  0.00  0.00    +0.000 A 
ATOM      8  C   UNL     1       2.958   6.842  18.895  0.00  0.00    +0.000 A 
ATOM      9  C   UNL     1       2.230   7.172  20.045  0.00  0.00    +0.000 A 
ATOM     10  C   UNL     1       1.390   8.299  20.053  0.00  0.00    +0.000 A 
BRANCH   8  11
ATOM     11  C   UNL     1       3.673   5.535  18.826  0.00  0.00    +0.000 C 
ATOM     12  O   UNL     1       4.832   5.485  19.248  0.00  0.00    +0.000 OA
ATOM     13  N   UNL     1       2.988   4.417  18.371  0.00  0.00    +0.000 N 
ATOM     14  C   UNL     1       1.602   4.312  17.948  0.00  0.00    +0.000 C 
ATOM     15  C   UNL     1       1.168   2.959  18.459  0.00  0.00    +0.000 C 
ATOM     16  C   UNL     1       2.419   2.113  18.272  0.00  0.00    +0.000 C 
ATOM     17  C   UNL     1       3.586   3.091  18.429  0.00  0.00    +0.000 C 
ENDBRANCH   8  11
ENDBRANCH   3   5
BRANCH   2  18
ATOM     18  C   UNL     1      -0.585  12.433  19.145  0.00  0.00    +0.000 C 
BRANCH  18  19
ATOM     19  C   UNL     1      -1.389  12.360  20.426  0.00  0.00    +0.000 A 
ATOM     20  C   UNL     1      -0.705  12.088  21.635  0.00  0.00    +0.000 A 
ATOM     21  C   UNL     1      -1.368  12.067  22.866  0.00  0.00    +0.000 A 
ATOM     22  C   UNL     1      -2.721  12.347  22.885  0.00  0.00    +0.000 A 
ATOM     23  C   UNL     1      -3.409  12.637  21.703  0.00  0.00    +0.000 A 
ATOM     24  C   UNL     1      -2.762  12.652  20.474  0.00  0.00    +0.000 A 
ATOM     25  C   UNL     1      -4.863  12.864  21.983  0.00  0.00    +0.000 C 
ATOM     26  C   UNL     1      -4.837  13.142  23.493  0.00  0.00    +0.000 C 
ATOM     27  C   UNL     1      -3.647  12.354  24.060  0.00  0.00    +0.000 C 
ENDBRANCH  18  19
ENDBRANCH   2  18
TORSDOF 4
ENDMDL
MODEL 7
REMARK VINA RESULT:      -8.5      7.016     10.024
REMARK  Name = 
REMARK  4 active torsions:
REMARK  status: ('A' for Active; 'I' for Inactive)
REMARK    1  A    between atoms: C_2  and  C_3
REMARK    2  A    between atoms: C_3  and  C_4
REMARK    3  A    between atoms: N_13  and  C_14
REMARK    4  A    between atoms: C_17  and  C_18
REMARK                            x       y       z     vdW  Elec       q    Type
REMARK                         _______ _______ _______ _____ _____    ______ ____
ROOT
ATOM      1  O   UNL     1      -1.217  10.391  18.533  0.00  0.00    +0.000 OA
ATOM      2  C   UNL     1      -0.492  10.921  19.374  0.00  0.00    +0.000 C 
ATOM      3  N   UNL     1       0.693  10.392  19.879  0.00  0.00    +0.000 N 
ATOM      4  H   UNL     1       1.126  10.883  20.651  0.00  0.00    +0.000 HD
ENDROOT
BRANCH   3   5
ATOM      5  C   UNL     1       1.311   9.182  19.477  0.00  0.00    +0.000 A 
ATOM      6  C   UNL     1       1.492   8.100  20.338  0.00  0.00    +0.000 A 
ATOM      7  C   UNL     1       2.180   6.961  19.927  0.00  0.00    +0.000 A 
ATOM      8  C   UNL     1       2.749   6.892  18.655  0.00  0.00    +0.000 A 
ATOM      9  C   UNL     1       2.478   7.922  17.744  0.00  0.00    +0.000 A 
ATOM     10  C   UNL     1       1.769   9.064  18.156  0.00  0.00    +0.000 A 
BRANCH   8  11
ATOM     11  C   UNL     1       3.679   5.793  18.267  0.00  0.00    +0.000 C 
ATOM     12  O   UNL     1       4.893   6.000  18.364  0.00  0.00    +0.000 OA
ATOM     13  N   UNL     1       3.152   4.565  17.895  0.00  0.00    +0.000 N 
ATOM     14  C   UNL     1       1.758   4.156  17.840  0.00  0.00    +0.000 C 
ATOM     15  C   UNL     1       1.784   2.719  18.305  0.00  0.00    +0.000 C 
ATOM     16  C   UNL     1       3.085   2.199  17.711  0.00  0.00    +0.000 C 
ATOM     17  C   UNL     1       4.012   3.415  17.658  0.00  0.00    +0.000 C 
ENDBRANCH   8  11
ENDBRANCH   3   5
BRANCH   2  18
ATOM     18  C   UNL     1      -0.852  12.289  19.931  0.00  0.00    +0.000 C 
BRANCH  18  19
ATOM     19  C   UNL     1      -1.786  12.307  21.122  0.00  0.00    +0.000 A 
ATOM     20  C   UNL     1      -1.242  12.066  22.407  0.00  0.00    +0.000 A 
ATOM     21  C   UNL     1      -2.029  12.127  23.560  0.00  0.00    +0.000 A 
ATOM     22  C   UNL     1      -3.363  12.459  23.426  0.00  0.00    +0.000 A 
ATOM     23  C   UNL     1      -3.913  12.719  22.167  0.00  0.00    +0.000 A 
ATOM     24  C   UNL     1      -3.143  12.653  21.014  0.00  0.00    +0.000 A 
ATOM     25  C   UNL     1      -5.377  13.015  22.283  0.00  0.00    +0.000 C 
ATOM     26  C   UNL     1      -5.494  13.362  23.775  0.00  0.00    +0.000 C 
ATOM     27  C   UNL     1      -4.404  12.556  24.496  0.00  0.00    +0.000 C 
ENDBRANCH  18  19
ENDBRANCH   2  18
TORSDOF 4
ENDMDL
MODEL 8
REMARK VINA RESULT:      -8.5      1.959      9.856
REMARK  Name = 
REMARK  4 active torsions:
REMARK  status: ('A' for Active; 'I' for Inactive)
REMARK    1  A    between atoms: C_2  and  C_3
REMARK    2  A    between atoms: C_3  and  C_4
REMARK    3  A    between atoms: N_13  and  C_14
REMARK    4  A    between atoms: C_17  and  C_18
REMARK                            x       y       z     vdW  Elec       q    Type
REMARK                         _______ _______ _______ _____ _____    ______ ____
ROOT
ATOM      1  O   UNL     1       7.504   7.863  16.903  0.00  0.00    +0.000 OA
ATOM      2  C   UNL     1       7.921   7.541  18.015  0.00  0.00    +0.000 C 
ATOM      3  N   UNL     1       8.583   8.376  18.910  0.00  0.00    +0.000 N 
ATOM      4  H   UNL     1       8.972   7.947  19.741  0.00  0.00    +0.000 HD
ENDROOT
BRANCH   3   5
ATOM      5  C   UNL     1       8.843   9.757  18.736  0.00  0.00    +0.000 A 
ATOM      6  C   UNL     1       8.206  10.533  17.768  0.00  0.00    +0.000 A 
ATOM      7  C   UNL     1       8.553  11.869  17.574  0.00  0.00    +0.000 A 
ATOM      8  C   UNL     1       9.582  12.452  18.312  0.00  0.00    +0.000 A 
ATOM      9  C   UNL     1      10.152  11.720  19.362  0.00  0.00    +0.000 A 
ATOM     10  C   UNL     1       9.789  10.377  19.567  0.00  0.00    +0.000 A 
BRANCH   8  11
ATOM     11  C   UNL     1      10.129  13.797  17.973  0.00  0.00    +0.000 C 
ATOM     12  O   UNL     1      11.125  13.852  17.245  0.00  0.00    +0.000 OA
ATOM     13  N   UNL     1       9.457  14.928  18.416  0.00  0.00    +0.000 N 
ATOM     14  C   UNL     1       8.225  15.008  19.183  0.00  0.00    +0.000 C 
ATOM     15  C   UNL     1       7.515  16.208  18.604  0.00  0.00    +0.000 C 
ATOM     16  C   UNL     1       8.661  17.162  18.302  0.00  0.00    +0.000 C 
ATOM     17  C   UNL     1       9.856  16.259  17.986  0.00  0.00    +0.000 C 
ENDBRANCH   8  11
ENDBRANCH   3   5
BRANCH   2  18
ATOM     18  C   UNL     1       7.700   6.126  18.525  0.00  0.00    +0.000 C 
BRANCH  18  19
ATOM     19  C   UNL     1       6.396   5.465  18.134  0.00  0.00    +0.000 A 
ATOM     20  C   UNL     1       6.375   4.649  16.978  0.00  0.00    +0.000 A 
ATOM     21  C   UNL     1       5.225   3.956  16.588  0.00  0.00    +0.000 A 
ATOM     22  C   UNL     1       4.098   4.063  17.379  0.00  0.00    +0.000 A 
ATOM     23  C   UNL     1       4.105   4.849  18.535  0.00  0.00    +0.000 A 
ATOM     24  C   UNL     1       5.239   5.548  18.927  0.00  0.00    +0.000 A 
ATOM     25  C   UNL     1       2.759   4.832  19.192  0.00  0.00    +0.000 C 
ATOM     26  C   UNL     1       2.131   3.584  18.555  0.00  0.00    +0.000 C 
ATOM     27  C   UNL     1       2.751   3.450  17.156  0.00  0.00    +0.000 C 
ENDBRANCH  18  19
ENDBRANCH   2  18
TORSDOF 4
ENDMDL
MODEL 9
REMARK VINA RESULT:      -8.5      6.376      9.084
REMARK  Name = 
REMARK  4 active torsions:
REMARK  status: ('A' for Active; 'I' for Inactive)
REMARK    1  A    between atoms: C_2  and  C_3
REMARK    2  A    between atoms: C_3  and  C_4
REMARK    3  A    between atoms: N_13  and  C_14
REMARK    4  A    between atoms: C_17  and  C_18
REMARK                            x       y       z     vdW  Elec       q    Type
REMARK                         _______ _______ _______ _____ _____    ______ ____
ROOT
ATOM      1  O   UNL     1       1.902   4.589  17.838  0.00  0.00    +0.000 OA
ATOM      2  C   UNL     1       3.079   4.945  17.885  0.00  0.00    +0.000 C 
ATOM      3  N   UNL     1       3.533   6.216  18.223  0.00  0.00    +0.000 N 
ATOM      4  H   UNL     1       4.523   6.399  18.108  0.00  0.00    +0.000 HD
ENDROOT
BRANCH   3   5
ATOM      5  C   UNL     1       2.735   7.314  18.631  0.00  0.00    +0.000 A 
ATOM      6  C   UNL     1       2.138   7.391  19.889  0.00  0.00    +0.000 A 
ATOM      7  C   UNL     1       1.291   8.447  20.219  0.00  0.00    +0.000 A 
ATOM      8  C   UNL     1       0.981   9.432  19.282  0.00  0.00    +0.000 A 
ATOM      9  C   UNL     1       1.661   9.428  18.056  0.00  0.00    +0.000 A 
ATOM     10  C   UNL     1       2.528   8.370  17.731  0.00  0.00    +0.000 A 
BRANCH   8  11
ATOM     11  C   UNL     1      -0.091  10.439  19.525  0.00  0.00    +0.000 C 
ATOM     12  O   UNL     1      -0.778  10.798  18.564  0.00  0.00    +0.000 OA
ATOM     13  N   UNL     1      -0.327  10.870  20.822  0.00  0.00    +0.000 N 
ATOM     14  C   UNL     1       0.330  10.454  22.050  0.00  0.00    +0.000 C 
ATOM     15  C   UNL     1      -0.784  10.434  23.069  0.00  0.00    +0.000 C 
ATOM     16  C   UNL     1      -1.639  11.623  22.653  0.00  0.00    +0.000 C 
ATOM     17  C   UNL     1      -1.458  11.731  21.137  0.00  0.00    +0.000 C 
ENDBRANCH   8  11
ENDBRANCH   3   5
BRANCH   2  18
ATOM     18  C   UNL     1       4.184   3.945  17.587  0.00  0.00    +0.000 C 
BRANCH  18  19
ATOM     19  C   UNL     1       5.071   4.256  16.400  0.00  0.00    +0.000 A 
ATOM     20  C   UNL     1       6.287   4.945  16.631  0.00  0.00    +0.000 A 
ATOM     21  C   UNL     1       7.186   5.213  15.596  0.00  0.00    +0.000 A 
ATOM     22  C   UNL     1       6.877   4.764  14.327  0.00  0.00    +0.000 A 
ATOM     23  C   UNL     1       5.691   4.065  14.084  0.00  0.00    +0.000 A 
ATOM     24  C   UNL     1       4.785   3.801  15.103  0.00  0.00    +0.000 A 
ATOM     25  C   UNL     1       5.570   3.724  12.630  0.00  0.00    +0.000 C 
ATOM     26  C   UNL     1       7.024   3.881  12.163  0.00  0.00    +0.000 C 
ATOM     27  C   UNL     1       7.656   4.954  13.063  0.00  0.00    +0.000 C 
ENDBRANCH  18  19
ENDBRANCH   2  18
TORSDOF 4
ENDMDL
