MODEL 1
REMARK VINA RESULT:      -8.0      0.000      0.000
REMARK  Name = 
REMARK  7 active torsions:
REMARK  status: ('A' for Active; 'I' for Inactive)
REMARK    1  A    between atoms: C_1  and  C_2
REMARK    2  A    between atoms: C_2  and  C_3
REMARK    3  A    between atoms: C_3  and  N_4
REMARK    4  A    between atoms: C_8  and  C_9
REMARK    5  A    between atoms: C_9  and  N_10
REMARK    6  A    between atoms: C_14  and  C_15
REMARK    7  A    between atoms: C_14  and  C_21
REMARK                            x       y       z     vdW  Elec       q    Type
REMARK                         _______ _______ _______ _____ _____    ______ ____
ROOT
ATOM      1  N   UNL     1       5.186   3.865  17.589  0.00  0.00    +0.000 N 
ATOM      2  C   UNL     1       5.838   4.456  18.623  0.00  0.00    +0.000 C 
ATOM      3  O   UNL     1       7.042   4.533  18.796  0.00  0.00    +0.000 OA
ATOM      4  N   UNL     1       4.917   5.061  19.440  0.00  0.00    +0.000 N 
ATOM      5  C   UNL     1       3.575   5.070  18.886  0.00  0.00    +0.000 C 
ATOM      6  C   UNL     1       3.885   4.285  17.575  0.00  0.00    +0.000 C 
ATOM      7  O   UNL     1       3.099   4.045  16.664  0.00  0.00    +0.000 OA
ATOM      8  H   UNL     1       5.220   5.648  20.204  0.00  0.00    +0.000 HD
ENDROOT
BRANCH   5   9
ATOM      9  C   UNL     1       2.622   4.322  19.839  0.00  0.00    +0.000 A 
ATOM     10  C   UNL     1       1.443   3.739  19.332  0.00  0.00    +0.000 A 
ATOM     11  C   UNL     1       0.661   2.893  20.121  0.00  0.00    +0.000 A 
ATOM     12  C   UNL     1       1.024   2.633  21.440  0.00  0.00    +0.000 A 
ATOM     13  C   UNL     1       2.161   3.228  21.975  0.00  0.00    +0.000 A 
ATOM     14  C   UNL     1       2.955   4.057  21.181  0.00  0.00    +0.000 A 
ENDBRANCH   5   9
BRANCH   5  15
ATOM     15  C   UNL     1       3.101   6.500  18.567  0.00  0.00    +0.000 A 
ATOM     16  C   UNL     1       3.612   7.221  17.471  0.00  0.00    +0.000 A 
ATOM     17  C   UNL     1       3.200   8.533  17.217  0.00  0.00    +0.000 A 
ATOM     18  C   UNL     1       2.268   9.152  18.045  0.00  0.00    +0.000 A 
ATOM     19  C   UNL     1       1.728   8.453  19.118  0.00  0.00    +0.000 A 
ATOM     20  C   UNL     1       2.128   7.138  19.364  0.00  0.00    +0.000 A 
ENDBRANCH   5  15
BRANCH   1  21
ATOM     21  C   UNL     1       5.828   3.191  16.484  0.00  0.00    +0.000 C 
BRANCH  21  26
ATOM     22  N   UNL     1       6.053   4.502  14.294  0.00  0.00    +0.000 N 
ATOM     23  N   UNL     1       6.855   5.462  13.798  0.00  0.00    +0.000 NA
ATOM     24  N   UNL     1       7.772   5.669  14.728  0.00  0.00    +0.000 NA
ATOM     25  N   UNL     1       7.556   4.864  15.814  0.00  0.00    +0.000 NA
ATOM     26  C   UNL     1       6.487   4.136  15.543  0.00  0.00    +0.000 A 
BRANCH  22  27
ATOM     27  C   UNL     1       4.986   3.993  13.467  0.00  0.00    +0.000 C 
BRANCH  27  29
ATOM     28  C   UNL     1       4.345   3.099  11.207  0.00  0.00    +0.000 C 
ATOM     29  C   UNL     1       5.476   3.284  12.209  0.00  0.00    +0.000 C 
ENDBRANCH  27  29
ENDBRANCH  22  27
ENDBRANCH  21  26
ENDBRANCH   1  21
TORSDOF 6
ENDMDL
MODEL 2
REMARK VINA RESULT:      -7.9      2.375      6.726
REMARK  Name = 
REMARK  7 active torsions:
REMARK  status: ('A' for Active; 'I' for Inactive)
REMARK    1  A    between atoms: C_1  and  C_2
REMARK    2  A    between atoms: C_2  and  C_3
REMARK    3  A    between atoms: C_3  and  N_4
REMARK    4  A    between atoms: C_8  and  C_9
REMARK    5  A    between atoms: C_9  and  N_10
REMARK    6  A    between atoms: C_14  and  C_15
REMARK    7  A    between atoms: C_14  and  C_21
REMARK                            x       y       z     vdW  Elec       q    Type
REMARK                         _______ _______ _______ _____ _____    ______ ____
ROOT
ATOM      1  N   UNL     1       3.684   4.538  17.425  0.00  0.00    +0.000 N 
ATOM      2  C   UNL     1       4.401   3.404  17.628  0.00  0.00    +0.000 C 
ATOM      3  O   UNL     1       3.990   2.325  18.020  0.00  0.00    +0.000 OA
ATOM      4  N   UNL     1       5.696   3.620  17.229  0.00  0.00    +0.000 N 
ATOM      5  C   UNL     1       5.882   4.886  16.543  0.00  0.00    +0.000 C 
ATOM      6  C   UNL     1       4.419   5.409  16.668  0.00  0.00    +0.000 C 
ATOM      7  O   UNL     1       3.972   6.447  16.191  0.00  0.00    +0.000 OA
ATOM      8  H   UNL     1       6.355   2.855  17.199  0.00  0.00    +0.000 HD
ENDROOT
BRANCH   5   9
ATOM      9  C   UNL     1       6.908   5.739  17.314  0.00  0.00    +0.000 A 
ATOM     10  C   UNL     1       7.111   7.086  16.949  0.00  0.00    +0.000 A 
ATOM     11  C   UNL     1       7.881   7.939  17.742  0.00  0.00    +0.000 A 
ATOM     12  C   UNL     1       8.486   7.461  18.901  0.00  0.00    +0.000 A 
ATOM     13  C   UNL     1       8.333   6.126  19.262  0.00  0.00    +0.000 A 
ATOM     14  C   UNL     1       7.546   5.277  18.481  0.00  0.00    +0.000 A 
ENDBRANCH   5   9
BRANCH   5  15
ATOM     15  C   UNL     1       6.266   4.681  15.065  0.00  0.00    +0.000 A 
ATOM     16  C   UNL     1       5.483   3.891  14.202  0.00  0.00    +0.000 A 
ATOM     17  C   UNL     1       5.865   3.684  12.872  0.00  0.00    +0.000 A 
ATOM     18  C   UNL     1       7.030   4.261  12.375  0.00  0.00    +0.000 A 
ATOM     19  C   UNL     1       7.806   5.065  13.200  0.00  0.00    +0.000 A 
ATOM     20  C   UNL     1       7.418   5.285  14.523  0.00  0.00    +0.000 A 
ENDBRANCH   5  15
BRANCH   1  21
ATOM     21  C   UNL     1       2.264   4.674  17.658  0.00  0.00    +0.000 C 
BRANCH  21  26
ATOM     22  N   UNL     1       1.425   4.837  20.073  0.00  0.00    +0.000 N 
ATOM     23  N   UNL     1       1.404   5.764  21.049  0.00  0.00    +0.000 NA
ATOM     24  N   UNL     1       1.908   6.859  20.505  0.00  0.00    +0.000 NA
ATOM     25  N   UNL     1       2.263   6.637  19.201  0.00  0.00    +0.000 NA
ATOM     26  C   UNL     1       1.960   5.379  18.932  0.00  0.00    +0.000 A 
BRANCH  22  27
ATOM     27  C   UNL     1       0.856   3.538  20.338  0.00  0.00    +0.000 C 
BRANCH  27  29
ATOM     28  C   UNL     1       2.939   2.550  21.339  0.00  0.00    +0.000 C 
ATOM     29  C   UNL     1       1.461   2.844  21.554  0.00  0.00    +0.000 C 
ENDBRANCH  27  29
ENDBRANCH  22  27
ENDBRANCH  21  26
ENDBRANCH   1  21
TORSDOF 6
ENDMDL
MODEL 3
REMARK VINA RESULT:      -7.8      0.468      1.368
REMARK  Name = 
REMARK  7 active torsions:
REMARK  status: ('A' for Active; 'I' for Inactive)
REMARK    1  A    between atoms: C_1  and  C_2
REMARK    2  A    between atoms: C_2  and  C_3
REMARK    3  A    between atoms: C_3  and  N_4
REMARK    4  A    between atoms: C_8  and  C_9
REMARK    5  A    between atoms: C_9  and  N_10
REMARK    6  A    between atoms: C_14  and  C_15
REMARK    7  A    between atoms: C_14  and  C_21
REMARK                            x       y       z     vdW  Elec       q    Type
REMARK                         _______ _______ _______ _____ _____    ______ ____
ROOT
ATOM      1  N   UNL     1       5.257   3.805  17.239  0.00  0.00    +0.000 N 
ATOM      2  C   UNL     1       5.950   4.289  18.301  0.00  0.00    +0.000 C 
ATOM      3  O   UNL     1       7.160   4.369  18.426  0.00  0.00    +0.000 OA
ATOM      4  N   UNL     1       5.061   4.783  19.223  0.00  0.00    +0.000 N 
ATOM      5  C   UNL     1       3.694   4.829  18.736  0.00  0.00    +0.000 C 
ATOM      6  C   UNL     1       3.951   4.200  17.333  0.00  0.00    +0.000 C 
ATOM      7  O   UNL     1       3.125   4.049  16.439  0.00  0.00    +0.000 OA
ATOM      8  H   UNL     1       5.394   5.287  20.033  0.00  0.00    +0.000 HD
ENDROOT
BRANCH   5   9
ATOM      9  C   UNL     1       2.799   3.963  19.643  0.00  0.00    +0.000 A 
ATOM     10  C   UNL     1       3.291   3.513  20.885  0.00  0.00    +0.000 A 
ATOM     11  C   UNL     1       2.449   2.896  21.813  0.00  0.00    +0.000 A 
ATOM     12  C   UNL     1       1.105   2.691  21.510  0.00  0.00    +0.000 A 
ATOM     13  C   UNL     1       0.605   3.090  20.275  0.00  0.00    +0.000 A 
ATOM     14  C   UNL     1       1.441   3.726  19.355  0.00  0.00    +0.000 A 
ENDBRANCH   5   9
BRANCH   5  15
ATOM     15  C   UNL     1       3.187   6.277  18.602  0.00  0.00    +0.000 A 
ATOM     16  C   UNL     1       2.354   6.861  19.575  0.00  0.00    +0.000 A 
ATOM     17  C   UNL     1       1.871   8.164  19.420  0.00  0.00    +0.000 A 
ATOM     18  C   UNL     1       2.211   8.913  18.298  0.00  0.00    +0.000 A 
ATOM     19  C   UNL     1       3.053   8.370  17.336  0.00  0.00    +0.000 A 
ATOM     20  C   UNL     1       3.548   7.074  17.496  0.00  0.00    +0.000 A 
ENDBRANCH   5  15
BRANCH   1  21
ATOM     21  C   UNL     1       5.852   3.269  16.036  0.00  0.00    +0.000 C 
BRANCH  21  26
ATOM     22  N   UNL     1       6.744   4.416  13.925  0.00  0.00    +0.000 N 
ATOM     23  N   UNL     1       7.451   5.521  13.628  0.00  0.00    +0.000 NA
ATOM     24  N   UNL     1       7.781   6.052  14.793  0.00  0.00    +0.000 NA
ATOM     25  N   UNL     1       7.283   5.306  15.828  0.00  0.00    +0.000 NA
ATOM     26  C   UNL     1       6.639   4.286  15.287  0.00  0.00    +0.000 A 
BRANCH  22  27
ATOM     27  C   UNL     1       6.304   3.562  12.848  0.00  0.00    +0.000 C 
BRANCH  27  29
ATOM     28  C   UNL     1       4.468   2.912  11.259  0.00  0.00    +0.000 C 
ATOM     29  C   UNL     1       4.862   3.814  12.420  0.00  0.00    +0.000 C 
ENDBRANCH  27  29
ENDBRANCH  22  27
ENDBRANCH  21  26
ENDBRANCH   1  21
TORSDOF 6
ENDMDL
MODEL 4
REMARK VINA RESULT:      -7.7      0.539      1.054
REMARK  Name = 
REMARK  7 active torsions:
REMARK  status: ('A' for Active; 'I' for Inactive)
REMARK    1  A    between atoms: C_1  and  C_2
REMARK    2  A    between atoms: C_2  and  C_3
REMARK    3  A    between atoms: C_3  and  N_4
REMARK    4  A    between atoms: C_8  and  C_9
REMARK    5  A    between atoms: C_9  and  N_10
REMARK    6  A    between atoms: C_14  and  C_15
REMARK    7  A    between atoms: C_14  and  C_21
REMARK                            x       y       z     vdW  Elec       q    Type
REMARK                         _______ _______ _______ _____ _____    ______ ____
ROOT
ATOM      1  N   UNL     1       5.276   3.731  17.331  0.00  0.00    +0.000 N 
ATOM      2  C   UNL     1       5.945   4.252  18.390  0.00  0.00    +0.000 C 
ATOM      3  O   UNL     1       7.152   4.343  18.536  0.00  0.00    +0.000 OA
ATOM      4  N   UNL     1       5.035   4.770  19.278  0.00  0.00    +0.000 N 
ATOM      5  C   UNL     1       3.678   4.793  18.763  0.00  0.00    +0.000 C 
ATOM      6  C   UNL     1       3.966   4.120  17.386  0.00  0.00    +0.000 C 
ATOM      7  O   UNL     1       3.159   3.936  16.481  0.00  0.00    +0.000 OA
ATOM      8  H   UNL     1       5.349   5.302  20.078  0.00  0.00    +0.000 HD
ENDROOT
BRANCH   5   9
ATOM      9  C   UNL     1       2.769   3.951  19.679  0.00  0.00    +0.000 A 
ATOM     10  C   UNL     1       3.221   3.581  20.962  0.00  0.00    +0.000 A 
ATOM     11  C   UNL     1       2.358   2.991  21.888  0.00  0.00    +0.000 A 
ATOM     12  C   UNL     1       1.034   2.732  21.544  0.00  0.00    +0.000 A 
ATOM     13  C   UNL     1       0.575   3.051  20.271  0.00  0.00    +0.000 A 
ATOM     14  C   UNL     1       1.431   3.660  19.351  0.00  0.00    +0.000 A 
ENDBRANCH   5   9
BRANCH   5  15
ATOM     15  C   UNL     1       3.167   6.233  18.572  0.00  0.00    +0.000 A 
ATOM     16  C   UNL     1       3.520   6.999  17.445  0.00  0.00    +0.000 A 
ATOM     17  C   UNL     1       3.078   8.319  17.306  0.00  0.00    +0.000 A 
ATOM     18  C   UNL     1       2.273   8.900  18.281  0.00  0.00    +0.000 A 
ATOM     19  C   UNL     1       1.888   8.156  19.389  0.00  0.00    +0.000 A 
ATOM     20  C   UNL     1       2.317   6.834  19.524  0.00  0.00    +0.000 A 
ENDBRANCH   5  15
BRANCH   1  21
ATOM     21  C   UNL     1       5.898   3.160  16.158  0.00  0.00    +0.000 C 
BRANCH  21  26
ATOM     22  N   UNL     1       6.403   4.444  13.999  0.00  0.00    +0.000 N 
ATOM     23  N   UNL     1       7.141   5.509  13.635  0.00  0.00    +0.000 NA
ATOM     24  N   UNL     1       7.785   5.881  14.729  0.00  0.00    +0.000 NA
ATOM     25  N   UNL     1       7.457   5.075  15.786  0.00  0.00    +0.000 NA
ATOM     26  C   UNL     1       6.599   4.179  15.331  0.00  0.00    +0.000 A 
BRANCH  22  27
ATOM     27  C   UNL     1       5.639   3.753  12.990  0.00  0.00    +0.000 C 
BRANCH  27  29
ATOM     28  C   UNL     1       5.839   1.809  11.409  0.00  0.00    +0.000 C 
ATOM     29  C   UNL     1       6.500   3.078  11.927  0.00  0.00    +0.000 C 
ENDBRANCH  27  29
ENDBRANCH  22  27
ENDBRANCH  21  26
ENDBRANCH   1  21
TORSDOF 6
ENDMDL
MODEL 5
REMARK VINA RESULT:      -7.5      2.410      6.757
REMARK  Name = 
REMARK  7 active torsions:
REMARK  status: ('A' for Active; 'I' for Inactive)
REMARK    1  A    between atoms: C_1  and  C_2
REMARK    2  A    between atoms: C_2  and  C_3
REMARK    3  A    between atoms: C_3  and  N_4
REMARK    4  A    between atoms: C_8  and  C_9
REMARK    5  A    between atoms: C_9  and  N_10
REMARK    6  A    between atoms: C_14  and  C_15
REMARK    7  A    between atoms: C_14  and  C_21
REMARK                            x       y       z     vdW  Elec       q    Type
REMARK                         _______ _______ _______ _____ _____    ______ ____
ROOT
ATOM      1  N   UNL     1       3.620   4.301  17.246  0.00  0.00    +0.000 N 
ATOM      2  C   UNL     1       4.337   3.160  17.404  0.00  0.00    +0.000 C 
ATOM      3  O   UNL     1       3.924   2.061  17.733  0.00  0.00    +0.000 OA
ATOM      4  N   UNL     1       5.639   3.401  17.041  0.00  0.00    +0.000 N 
ATOM      5  C   UNL     1       5.832   4.701  16.424  0.00  0.00    +0.000 C 
ATOM      6  C   UNL     1       4.365   5.212  16.549  0.00  0.00    +0.000 C 
ATOM      7  O   UNL     1       3.921   6.271  16.118  0.00  0.00    +0.000 OA
ATOM      8  H   UNL     1       6.301   2.641  16.984  0.00  0.00    +0.000 HD
ENDROOT
BRANCH   5   9
ATOM      9  C   UNL     1       6.839   5.517  17.257  0.00  0.00    +0.000 A 
ATOM     10  C   UNL     1       7.059   6.876  16.951  0.00  0.00    +0.000 A 
ATOM     11  C   UNL     1       7.811   7.693  17.799  0.00  0.00    +0.000 A 
ATOM     12  C   UNL     1       8.381   7.165  18.954  0.00  0.00    +0.000 A 
ATOM     13  C   UNL     1       8.211   5.818  19.257  0.00  0.00    +0.000 A 
ATOM     14  C   UNL     1       7.443   5.006  18.422  0.00  0.00    +0.000 A 
ENDBRANCH   5   9
BRANCH   5  15
ATOM     15  C   UNL     1       6.243   4.573  14.945  0.00  0.00    +0.000 A 
ATOM     16  C   UNL     1       5.506   3.787  14.039  0.00  0.00    +0.000 A 
ATOM     17  C   UNL     1       5.914   3.651  12.708  0.00  0.00    +0.000 A 
ATOM     18  C   UNL     1       7.059   4.297  12.252  0.00  0.00    +0.000 A 
ATOM     19  C   UNL     1       7.789   5.099  13.120  0.00  0.00    +0.000 A 
ATOM     20  C   UNL     1       7.376   5.248  14.445  0.00  0.00    +0.000 A 
ENDBRANCH   5  15
BRANCH   1  21
ATOM     21  C   UNL     1       2.195   4.420  17.460  0.00  0.00    +0.000 C 
BRANCH  21  26
ATOM     22  N   UNL     1       2.045   4.964  19.959  0.00  0.00    +0.000 N 
ATOM     23  N   UNL     1       1.443   4.448  21.046  0.00  0.00    +0.000 NA
ATOM     24  N   UNL     1       0.854   3.339  20.629  0.00  0.00    +0.000 NA
ATOM     25  N   UNL     1       1.063   3.151  19.289  0.00  0.00    +0.000 NA
ATOM     26  C   UNL     1       1.806   4.161  18.873  0.00  0.00    +0.000 A 
BRANCH  22  27
ATOM     27  C   UNL     1       2.851   6.151  20.111  0.00  0.00    +0.000 C 
BRANCH  27  29
ATOM     28  C   UNL     1       1.415   8.097  20.798  0.00  0.00    +0.000 C 
ATOM     29  C   UNL     1       2.152   7.425  19.647  0.00  0.00    +0.000 C 
ENDBRANCH  27  29
ENDBRANCH  22  27
ENDBRANCH  21  26
ENDBRANCH   1  21
TORSDOF 6
ENDMDL
MODEL 6
REMARK VINA RESULT:      -7.5      2.347      6.567
REMARK  Name = 
REMARK  7 active torsions:
REMARK  status: ('A' for Active; 'I' for Inactive)
REMARK    1  A    between atoms: C_1  and  C_2
REMARK    2  A    between atoms: C_2  and  C_3
REMARK    3  A    between atoms: C_3  and  N_4
REMARK    4  A    between atoms: C_8  and  C_9
REMARK    5  A    between atoms: C_9  and  N_10
REMARK    6  A    between atoms: C_14  and  C_15
REMARK    7  A    between atoms: C_14  and  C_21
REMARK                            x       y       z     vdW  Elec       q    Type
REMARK                         _______ _______ _______ _____ _____    ______ ____
ROOT
ATOM      1  N   UNL     1       3.689   4.283  17.228  0.00  0.00    +0.000 N 
ATOM      2  C   UNL     1       4.424   3.157  17.412  0.00  0.00    +0.000 C 
ATOM      3  O   UNL     1       4.028   2.057  17.758  0.00  0.00    +0.000 OA
ATOM      4  N   UNL     1       5.724   3.412  17.051  0.00  0.00    +0.000 N 
ATOM      5  C   UNL     1       5.900   4.704  16.411  0.00  0.00    +0.000 C 
ATOM      6  C   UNL     1       4.423   5.192  16.518  0.00  0.00    +0.000 C 
ATOM      7  O   UNL     1       3.965   6.236  16.064  0.00  0.00    +0.000 OA
ATOM      8  H   UNL     1       6.400   2.663  17.013  0.00  0.00    +0.000 HD
ENDROOT
BRANCH   5   9
ATOM      9  C   UNL     1       6.888   5.552  17.235  0.00  0.00    +0.000 A 
ATOM     10  C   UNL     1       7.069   6.915  16.921  0.00  0.00    +0.000 A 
ATOM     11  C   UNL     1       7.802   7.757  17.760  0.00  0.00    +0.000 A 
ATOM     12  C   UNL     1       8.392   7.251  18.915  0.00  0.00    +0.000 A 
ATOM     13  C   UNL     1       8.260   5.902  19.227  0.00  0.00    +0.000 A 
ATOM     14  C   UNL     1       7.511   5.064  18.400  0.00  0.00    +0.000 A 
ENDBRANCH   5   9
BRANCH   5  15
ATOM     15  C   UNL     1       6.322   4.556  14.938  0.00  0.00    +0.000 A 
ATOM     16  C   UNL     1       7.448   5.226  14.421  0.00  0.00    +0.000 A 
ATOM     17  C   UNL     1       7.796   5.111  13.072  0.00  0.00    +0.000 A 
ATOM     18  C   UNL     1       7.036   4.324  12.211  0.00  0.00    +0.000 A 
ATOM     19  C   UNL     1       5.936   3.632  12.703  0.00  0.00    +0.000 A 
ATOM     20  C   UNL     1       5.595   3.734  14.053  0.00  0.00    +0.000 A 
ENDBRANCH   5  15
BRANCH   1  21
ATOM     21  C   UNL     1       2.262   4.381  17.431  0.00  0.00    +0.000 C 
BRANCH  21  26
ATOM     22  N   UNL     1       1.991   5.667  19.631  0.00  0.00    +0.000 N 
ATOM     23  N   UNL     1       1.463   5.439  20.847  0.00  0.00    +0.000 NA
ATOM     24  N   UNL     1       1.062   4.178  20.826  0.00  0.00    +0.000 NA
ATOM     25  N   UNL     1       1.318   3.606  19.609  0.00  0.00    +0.000 NA
ATOM     26  C   UNL     1       1.898   4.532  18.866  0.00  0.00    +0.000 A 
BRANCH  22  27
ATOM     27  C   UNL     1       2.597   6.949  19.367  0.00  0.00    +0.000 C 
BRANCH  27  29
ATOM     28  C   UNL     1       2.551   8.945  17.840  0.00  0.00    +0.000 C 
ATOM     29  C   UNL     1       1.718   7.880  18.538  0.00  0.00    +0.000 C 
ENDBRANCH  27  29
ENDBRANCH  22  27
ENDBRANCH  21  26
ENDBRANCH   1  21
TORSDOF 6
ENDMDL
MODEL 7
REMARK VINA RESULT:      -7.3      6.856     10.272
REMARK  Name = 
REMARK  7 active torsions:
REMARK  status: ('A' for Active; 'I' for Inactive)
REMARK    1  A    between atoms: C_1  and  C_2
REMARK    2  A    between atoms: C_2  and  C_3
REMARK    3  A    between atoms: C_3  and  N_4
REMARK    4  A    between atoms: C_8  and  C_9
REMARK    5  A    between atoms: C_9  and  N_10
REMARK    6  A    between atoms: C_14  and  C_15
REMARK    7  A    between atoms: C_14  and  C_21
REMARK                            x       y       z     vdW  Elec       q    Type
REMARK                         _______ _______ _______ _____ _____    ______ ____
ROOT
ATOM      1  N   UNL     1       1.796  12.945  19.980  0.00  0.00    +0.000 N 
ATOM      2  C   UNL     1       2.197  12.921  18.684  0.00  0.00    +0.000 C 
ATOM      3  O   UNL     1       3.047  13.617  18.155  0.00  0.00    +0.000 OA
ATOM      4  N   UNL     1       1.550  11.897  18.038  0.00  0.00    +0.000 N 
ATOM      5  C   UNL     1       0.799  11.037  18.934  0.00  0.00    +0.000 C 
ATOM      6  C   UNL     1       1.093  11.805  20.258  0.00  0.00    +0.000 C 
ATOM      7  O   UNL     1       0.744  11.475  21.387  0.00  0.00    +0.000 OA
ATOM      8  H   UNL     1       1.803  11.651  17.092  0.00  0.00    +0.000 HD
ENDROOT
BRANCH   5   9
ATOM      9  C   UNL     1      -0.689  11.055  18.532  0.00  0.00    +0.000 A 
ATOM     10  C   UNL     1      -1.201  10.033  17.706  0.00  0.00    +0.000 A 
ATOM     11  C   UNL     1      -2.574   9.908  17.482  0.00  0.00    +0.000 A 
ATOM     12  C   UNL     1      -3.462  10.814  18.056  0.00  0.00    +0.000 A 
ATOM     13  C   UNL     1      -2.977  11.854  18.843  0.00  0.00    +0.000 A 
ATOM     14  C   UNL     1      -1.607  11.968  19.084  0.00  0.00    +0.000 A 
ENDBRANCH   5   9
BRANCH   5  15
ATOM     15  C   UNL     1       1.388   9.615  18.984  0.00  0.00    +0.000 A 
ATOM     16  C   UNL     1       1.250   8.797  20.122  0.00  0.00    +0.000 A 
ATOM     17  C   UNL     1       1.823   7.523  20.165  0.00  0.00    +0.000 A 
ATOM     18  C   UNL     1       2.541   7.035  19.078  0.00  0.00    +0.000 A 
ATOM     19  C   UNL     1       2.670   7.811  17.933  0.00  0.00    +0.000 A 
ATOM     20  C   UNL     1       2.086   9.079  17.882  0.00  0.00    +0.000 A 
ENDBRANCH   5  15
BRANCH   1  21
ATOM     21  C   UNL     1       2.313  13.840  20.990  0.00  0.00    +0.000 C 
BRANCH  21  26
ATOM     22  N   UNL     1       0.651  15.785  20.846  0.00  0.00    +0.000 N 
ATOM     23  N   UNL     1      -0.307  16.322  21.623  0.00  0.00    +0.000 NA
ATOM     24  N   UNL     1      -0.260  15.646  22.758  0.00  0.00    +0.000 NA
ATOM     25  N   UNL     1       0.706  14.677  22.709  0.00  0.00    +0.000 NA
ATOM     26  C   UNL     1       1.275  14.765  21.519  0.00  0.00    +0.000 A 
BRANCH  22  27
ATOM     27  C   UNL     1       0.904  16.370  19.552  0.00  0.00    +0.000 C 
BRANCH  27  29
ATOM     28  C   UNL     1      -0.621  17.409  17.845  0.00  0.00    +0.000 C 
ATOM     29  C   UNL     1      -0.209  16.119  18.540  0.00  0.00    +0.000 C 
ENDBRANCH  27  29
ENDBRANCH  22  27
ENDBRANCH  21  26
ENDBRANCH   1  21
TORSDOF 6
ENDMDL
MODEL 8
REMARK VINA RESULT:      -7.2      0.995      3.856
REMARK  Name = 
REMARK  7 active torsions:
REMARK  status: ('A' for Active; 'I' for Inactive)
REMARK    1  A    between atoms: C_1  and  C_2
REMARK    2  A    between atoms: C_2  and  C_3
REMARK    3  A    between atoms: C_3  and  N_4
REMARK    4  A    between atoms: C_8  and  C_9
REMARK    5  A    between atoms: C_9  and  N_10
REMARK    6  A    between atoms: C_14  and  C_15
REMARK    7  A    between atoms: C_14  and  C_21
REMARK                            x       y       z     vdW  Elec       q    Type
REMARK                         _______ _______ _______ _____ _____    ______ ____
ROOT
ATOM      1  N   UNL     1       5.029   4.470  17.529  0.00  0.00    +0.000 N 
ATOM      2  C   UNL     1       3.939   4.192  16.771  0.00  0.00    +0.000 C 
ATOM      3  O   UNL     1       3.897   3.552  15.734  0.00  0.00    +0.000 OA
ATOM      4  N   UNL     1       2.822   4.675  17.406  0.00  0.00    +0.000 N 
ATOM      5  C   UNL     1       3.088   5.151  18.752  0.00  0.00    +0.000 C 
ATOM      6  C   UNL     1       4.626   4.898  18.763  0.00  0.00    +0.000 C 
ATOM      7  O   UNL     1       5.387   5.068  19.711  0.00  0.00    +0.000 OA
ATOM      8  H   UNL     1       1.901   4.465  17.049  0.00  0.00    +0.000 HD
ENDROOT
BRANCH   5   9
ATOM      9  C   UNL     1       2.710   6.642  18.850  0.00  0.00    +0.000 A 
ATOM     10  C   UNL     1       2.858   7.476  17.723  0.00  0.00    +0.000 A 
ATOM     11  C   UNL     1       2.347   8.776  17.716  0.00  0.00    +0.000 A 
ATOM     12  C   UNL     1       1.703   9.280  18.842  0.00  0.00    +0.000 A 
ATOM     13  C   UNL     1       1.579   8.491  19.980  0.00  0.00    +0.000 A 
ATOM     14  C   UNL     1       2.071   7.184  19.982  0.00  0.00    +0.000 A 
ENDBRANCH   5   9
BRANCH   5  15
ATOM     15  C   UNL     1       2.382   4.284  19.812  0.00  0.00    +0.000 A 
ATOM     16  C   UNL     1       2.910   4.127  21.107  0.00  0.00    +0.000 A 
ATOM     17  C   UNL     1       2.278   3.306  22.046  0.00  0.00    +0.000 A 
ATOM     18  C   UNL     1       1.107   2.630  21.717  0.00  0.00    +0.000 A 
ATOM     19  C   UNL     1       0.552   2.789  20.454  0.00  0.00    +0.000 A 
ATOM     20  C   UNL     1       1.174   3.620  19.519  0.00  0.00    +0.000 A 
ENDBRANCH   5  15
BRANCH   1  21
ATOM     21  C   UNL     1       6.379   4.054  17.222  0.00  0.00    +0.000 C 
BRANCH  21  26
ATOM     22  N   UNL     1       6.876   4.564  14.760  0.00  0.00    +0.000 N 
ATOM     23  N   UNL     1       7.452   5.555  14.056  0.00  0.00    +0.000 NA
ATOM     24  N   UNL     1       7.906   6.409  14.958  0.00  0.00    +0.000 NA
ATOM     25  N   UNL     1       7.614   5.981  16.225  0.00  0.00    +0.000 NA
ATOM     26  C   UNL     1       6.975   4.831  16.102  0.00  0.00    +0.000 A 
BRANCH  22  27
ATOM     27  C   UNL     1       6.350   3.423  14.050  0.00  0.00    +0.000 C 
BRANCH  27  29
ATOM     28  C   UNL     1       5.008   3.235  11.933  0.00  0.00    +0.000 C 
ATOM     29  C   UNL     1       6.361   3.590  12.534  0.00  0.00    +0.000 C 
ENDBRANCH  27  29
ENDBRANCH  22  27
ENDBRANCH  21  26
ENDBRANCH   1  21
TORSDOF 6
ENDMDL
MODEL 9
REMARK VINA RESULT:      -7.2      4.331      7.211
REMARK  Name = 
REMARK  7 active torsions:
REMARK  status: ('A' for Active; 'I' for Inactive)
REMARK    1  A    between atoms: C_1  and  C_2
REMARK    2  A    between atoms: C_2  and  C_3
REMARK    3  A    between atoms: C_3  and  N_4
REMARK    4  A    between atoms: C_8  and  C_9
REMARK    5  A    between atoms: C_9  and  N_10
REMARK    6  A    between atoms: C_14  and  C_15
REMARK    7  A    between atoms: C_14  and  C_21
REMARK                            x       y       z     vdW  Elec       q    Type
REMARK                         _______ _______ _______ _____ _____    ______ ____
ROOT
ATOM      1  N   UNL     1       1.837   8.274  19.382  0.00  0.00    +0.000 N 
ATOM      2  C   UNL     1       1.259   8.502  20.588  0.00  0.00    +0.000 C 
ATOM      3  O   UNL     1       1.468   7.917  21.637  0.00  0.00    +0.000 OA
ATOM      4  N   UNL     1       0.432   9.593  20.484  0.00  0.00    +0.000 N 
ATOM      5  C   UNL     1       0.556  10.289  19.216  0.00  0.00    +0.000 C 
ATOM      6  C   UNL     1       1.603   9.340  18.558  0.00  0.00    +0.000 C 
ATOM      7  O   UNL     1       2.136   9.488  17.463  0.00  0.00    +0.000 OA
ATOM      8  H   UNL     1      -0.002   9.985  21.307  0.00  0.00    +0.000 HD
ENDROOT
BRANCH   5   9
ATOM      9  C   UNL     1      -0.808  10.290  18.497  0.00  0.00    +0.000 A 
ATOM     10  C   UNL     1      -1.837  11.138  18.955  0.00  0.00    +0.000 A 
ATOM     11  C   UNL     1      -3.011  11.309  18.218  0.00  0.00    +0.000 A 
ATOM     12  C   UNL     1      -3.193  10.619  17.023  0.00  0.00    +0.000 A 
ATOM     13  C   UNL     1      -2.209   9.747  16.570  0.00  0.00    +0.000 A 
ATOM     14  C   UNL     1      -1.026   9.590  17.295  0.00  0.00    +0.000 A 
ENDBRANCH   5   9
BRANCH   5  15
ATOM     15  C   UNL     1       1.137  11.703  19.398  0.00  0.00    +0.000 A 
ATOM     16  C   UNL     1       1.334  12.262  20.676  0.00  0.00    +0.000 A 
ATOM     17  C   UNL     1       1.828  13.562  20.823  0.00  0.00    +0.000 A 
ATOM     18  C   UNL     1       2.139  14.330  19.705  0.00  0.00    +0.000 A 
ATOM     19  C   UNL     1       1.978  13.792  18.434  0.00  0.00    +0.000 A 
ATOM     20  C   UNL     1       1.499  12.489  18.285  0.00  0.00    +0.000 A 
ENDBRANCH   5  15
BRANCH   1  21
ATOM     21  C   UNL     1       2.826   7.253  19.118  0.00  0.00    +0.000 C 
BRANCH  21  26
ATOM     22  N   UNL     1       1.839   4.924  19.527  0.00  0.00    +0.000 N 
ATOM     23  N   UNL     1       1.223   3.973  18.801  0.00  0.00    +0.000 NA
ATOM     24  N   UNL     1       1.234   4.420  17.556  0.00  0.00    +0.000 NA
ATOM     25  N   UNL     1       1.837   5.647  17.483  0.00  0.00    +0.000 NA
ATOM     26  C   UNL     1       2.216   5.959  18.709  0.00  0.00    +0.000 A 
BRANCH  22  27
ATOM     27  C   UNL     1       2.060   4.689  20.933  0.00  0.00    +0.000 C 
BRANCH  27  29
ATOM     28  C   UNL     1       2.756   2.359  21.567  0.00  0.00    +0.000 C 
ATOM     29  C   UNL     1       1.586   3.318  21.404  0.00  0.00    +0.000 C 
ENDBRANCH  27  29
ENDBRANCH  22  27
ENDBRANCH  21  26
ENDBRANCH   1  21
TORSDOF 6
ENDMDL
