MODEL 1
REMARK VINA RESULT:      -9.2      0.000      0.000
REMARK  Name = 
REMARK  6 active torsions:
REMARK  status: ('A' for Active; 'I' for Inactive)
REMARK    1  A    between atoms: C_1  and  C_2
REMARK    2  A    between atoms: C_2  and  C_3
REMARK    3  A    between atoms: C_2  and  N_4
REMARK    4  A    between atoms: C_8  and  C_9
REMARK    5  A    between atoms: C_14  and  N_15
REMARK    6  A    between atoms: C_16  and  C_18
REMARK                            x       y       z     vdW  Elec       q    Type
REMARK                         _______ _______ _______ _____ _____    ______ ____
ROOT
ATOM      1  C   UNL     1       3.514   4.813  17.471  0.00  0.00    +0.000 A 
ATOM      2  C   UNL     1       4.440   4.185  16.619  0.00  0.00    +0.000 A 
ATOM      3  C   UNL     1       5.470   4.888  15.994  0.00  0.00    +0.000 A 
ATOM      4  C   UNL     1       5.653   6.227  16.290  0.00  0.00    +0.000 A 
ATOM      5  C   UNL     1       4.842   6.838  17.246  0.00  0.00    +0.000 A 
ATOM      6  C   UNL     1       3.782   6.143  17.856  0.00  0.00    +0.000 A 
ENDROOT
BRANCH   1  11
ATOM      7  N   UNL     1       2.252   3.431  19.224  0.00  0.00    +0.000 N 
ATOM      8  C   UNL     1       0.976   2.947  19.287  0.00  0.00    +0.000 A 
ATOM      9  N   UNL     1       0.375   3.129  18.138  0.00  0.00    +0.000 NA
ATOM     10  N   UNL     1       1.253   3.786  17.312  0.00  0.00    +0.000 NA
ATOM     11  C   UNL     1       2.368   4.039  17.982  0.00  0.00    +0.000 A 
BRANCH   7  13
ATOM     12  C   UNL     1       2.627   2.911  21.620  0.00  0.00    +0.000 C 
ATOM     13  C   UNL     1       3.254   3.276  20.272  0.00  0.00    +0.000 C 
ATOM     14  C   UNL     1       4.367   2.300  19.894  0.00  0.00    +0.000 C 
ENDBRANCH   7  13
ENDBRANCH   1  11
BRANCH   6  15
ATOM     15  N   UNL     1       2.998   6.810  18.828  0.00  0.00    +0.000 N 
ATOM     16  C   UNL     1       2.274   7.970  18.520  0.00  0.00    +0.000 C 
ATOM     17  O   UNL     1       2.277   8.558  17.443  0.00  0.00    +0.000 OA
ATOM     18  H   UNL     1       3.282   6.725  19.800  0.00  0.00    +0.000 HD
BRANCH  16  19
ATOM     19  C   UNL     1       1.505   8.557  19.627  0.00  0.00    +0.000 A 
ATOM     20  C   UNL     1       1.505   7.935  20.877  0.00  0.00    +0.000 A 
ATOM     21  C   UNL     1       0.726   8.473  21.902  0.00  0.00    +0.000 A 
ATOM     22  C   UNL     1       0.067   9.698  21.719  0.00  0.00    +0.000 A 
ATOM     23  C   UNL     1      -0.722  10.257  22.731  0.00  0.00    +0.000 A 
ATOM     24  C   UNL     1      -0.950  11.627  22.753  0.00  0.00    +0.000 A 
ATOM     25  C   UNL     1      -0.617  12.399  21.646  0.00  0.00    +0.000 A 
ATOM     26  C   UNL     1      -0.115  11.780  20.497  0.00  0.00    +0.000 A 
ATOM     27  C   UNL     1       0.256  10.433  20.528  0.00  0.00    +0.000 A 
ATOM     28  C   UNL     1       0.895   9.798  19.456  0.00  0.00    +0.000 A 
ENDBRANCH  16  19
ENDBRANCH   6  15
TORSDOF 4
ENDMDL
MODEL 2
REMARK VINA RESULT:      -8.9      1.973      4.164
REMARK  Name = 
REMARK  6 active torsions:
REMARK  status: ('A' for Active; 'I' for Inactive)
REMARK    1  A    between atoms: C_1  and  C_2
REMARK    2  A    between atoms: C_2  and  C_3
REMARK    3  A    between atoms: C_2  and  N_4
REMARK    4  A    between atoms: C_8  and  C_9
REMARK    5  A    between atoms: C_14  and  N_15
REMARK    6  A    between atoms: C_16  and  C_18
REMARK                            x       y       z     vdW  Elec       q    Type
REMARK                         _______ _______ _______ _____ _____    ______ ____
ROOT
ATOM      1  C   UNL     1       3.916   3.676  18.634  0.00  0.00    +0.000 A 
ATOM      2  C   UNL     1       4.029   2.276  18.558  0.00  0.00    +0.000 A 
ATOM      3  C   UNL     1       2.914   1.439  18.586  0.00  0.00    +0.000 A 
ATOM      4  C   UNL     1       1.648   1.996  18.591  0.00  0.00    +0.000 A 
ATOM      5  C   UNL     1       1.505   3.381  18.515  0.00  0.00    +0.000 A 
ATOM      6  C   UNL     1       2.625   4.232  18.519  0.00  0.00    +0.000 A 
ENDROOT
BRANCH   1  11
ATOM      7  N   UNL     1       5.765   5.209  17.735  0.00  0.00    +0.000 N 
ATOM      8  C   UNL     1       6.779   5.898  18.338  0.00  0.00    +0.000 A 
ATOM      9  N   UNL     1       6.862   5.554  19.599  0.00  0.00    +0.000 NA
ATOM     10  N   UNL     1       5.856   4.653  19.849  0.00  0.00    +0.000 NA
ATOM     11  C   UNL     1       5.140   4.491  18.745  0.00  0.00    +0.000 A 
BRANCH   7  13
ATOM     12  C   UNL     1       5.052   6.632  15.833  0.00  0.00    +0.000 C 
ATOM     13  C   UNL     1       5.472   5.238  16.307  0.00  0.00    +0.000 C 
ATOM     14  C   UNL     1       6.609   4.679  15.453  0.00  0.00    +0.000 C 
ENDBRANCH   7  13
ENDBRANCH   1  11
BRANCH   6  15
ATOM     15  N   UNL     1       2.421   5.630  18.428  0.00  0.00    +0.000 N 
ATOM     16  C   UNL     1       2.109   6.403  19.555  0.00  0.00    +0.000 C 
ATOM     17  O   UNL     1       1.922   5.979  20.691  0.00  0.00    +0.000 OA
ATOM     18  H   UNL     1       2.080   5.999  17.545  0.00  0.00    +0.000 HD
BRANCH  16  19
ATOM     19  C   UNL     1       1.923   7.841  19.313  0.00  0.00    +0.000 A 
ATOM     20  C   UNL     1       2.249   8.382  18.067  0.00  0.00    +0.000 A 
ATOM     21  C   UNL     1       2.121   9.757  17.871  0.00  0.00    +0.000 A 
ATOM     22  C   UNL     1       1.537  10.560  18.863  0.00  0.00    +0.000 A 
ATOM     23  C   UNL     1       1.399  11.942  18.691  0.00  0.00    +0.000 A 
ATOM     24  C   UNL     1       0.422  12.633  19.397  0.00  0.00    +0.000 A 
ATOM     25  C   UNL     1      -0.237  12.010  20.450  0.00  0.00    +0.000 A 
ATOM     26  C   UNL     1       0.135  10.717  20.830  0.00  0.00    +0.000 A 
ATOM     27  C   UNL     1       1.003   9.969  20.029  0.00  0.00    +0.000 A 
ATOM     28  C   UNL     1       1.297   8.624  20.281  0.00  0.00    +0.000 A 
ENDBRANCH  16  19
ENDBRANCH   6  15
TORSDOF 4
ENDMDL
MODEL 3
REMARK VINA RESULT:      -8.9      0.697      1.480
REMARK  Name = 
REMARK  6 active torsions:
REMARK  status: ('A' for Active; 'I' for Inactive)
REMARK    1  A    between atoms: C_1  and  C_2
REMARK    2  A    between atoms: C_2  and  C_3
REMARK    3  A    between atoms: C_2  and  N_4
REMARK    4  A    between atoms: C_8  and  C_9
REMARK    5  A    between atoms: C_14  and  N_15
REMARK    6  A    between atoms: C_16  and  C_18
REMARK                            x       y       z     vdW  Elec       q    Type
REMARK                         _______ _______ _______ _____ _____    ______ ____
ROOT
ATOM      1  C   UNL     1       3.783   4.727  17.638  0.00  0.00    +0.000 A 
ATOM      2  C   UNL     1       4.772   3.933  17.031  0.00  0.00    +0.000 A 
ATOM      3  C   UNL     1       5.930   4.481  16.480  0.00  0.00    +0.000 A 
ATOM      4  C   UNL     1       6.168   5.837  16.614  0.00  0.00    +0.000 A 
ATOM      5  C   UNL     1       5.276   6.623  17.343  0.00  0.00    +0.000 A 
ATOM      6  C   UNL     1       4.091   6.083  17.874  0.00  0.00    +0.000 A 
ENDROOT
BRANCH   1  11
ATOM      7  N   UNL     1       2.232   3.563  19.316  0.00  0.00    +0.000 N 
ATOM      8  C   UNL     1       0.912   3.215  19.279  0.00  0.00    +0.000 A 
ATOM      9  N   UNL     1       0.437   3.404  18.074  0.00  0.00    +0.000 NA
ATOM     10  N   UNL     1       1.448   3.930  17.308  0.00  0.00    +0.000 NA
ATOM     11  C   UNL     1       2.521   4.098  18.069  0.00  0.00    +0.000 A 
BRANCH   7  13
ATOM     12  C   UNL     1       2.339   3.054  21.741  0.00  0.00    +0.000 C 
ATOM     13  C   UNL     1       3.117   3.355  20.457  0.00  0.00    +0.000 C 
ATOM     14  C   UNL     1       4.190   2.300  20.196  0.00  0.00    +0.000 C 
ENDBRANCH   7  13
ENDBRANCH   1  11
BRANCH   6  15
ATOM     15  N   UNL     1       3.228   6.925  18.615  0.00  0.00    +0.000 N 
ATOM     16  C   UNL     1       2.534   7.983  18.011  0.00  0.00    +0.000 C 
ATOM     17  O   UNL     1       2.630   8.332  16.838  0.00  0.00    +0.000 OA
ATOM     18  H   UNL     1       3.427   7.051  19.603  0.00  0.00    +0.000 HD
BRANCH  16  19
ATOM     19  C   UNL     1       1.674   8.776  18.901  0.00  0.00    +0.000 A 
ATOM     20  C   UNL     1       0.665   9.575  18.358  0.00  0.00    +0.000 A 
ATOM     21  C   UNL     1      -0.105  10.365  19.211  0.00  0.00    +0.000 A 
ATOM     22  C   UNL     1       0.037  10.249  20.602  0.00  0.00    +0.000 A 
ATOM     23  C   UNL     1      -0.723  11.033  21.478  0.00  0.00    +0.000 A 
ATOM     24  C   UNL     1      -0.951  10.595  22.777  0.00  0.00    +0.000 A 
ATOM     25  C   UNL     1      -0.223   9.523  23.281  0.00  0.00    +0.000 A 
ATOM     26  C   UNL     1       0.777   8.938  22.498  0.00  0.00    +0.000 A 
ATOM     27  C   UNL     1       0.901   9.274  21.147  0.00  0.00    +0.000 A 
ATOM     28  C   UNL     1       1.785   8.619  20.281  0.00  0.00    +0.000 A 
ENDBRANCH  16  19
ENDBRANCH   6  15
TORSDOF 4
ENDMDL
MODEL 4
REMARK VINA RESULT:      -8.5      2.599      7.800
REMARK  Name = 
REMARK  6 active torsions:
REMARK  status: ('A' for Active; 'I' for Inactive)
REMARK    1  A    between atoms: C_1  and  C_2
REMARK    2  A    between atoms: C_2  and  C_3
REMARK    3  A    between atoms: C_2  and  N_4
REMARK    4  A    between atoms: C_8  and  C_9
REMARK    5  A    between atoms: C_14  and  N_15
REMARK    6  A    between atoms: C_16  and  C_18
REMARK                            x       y       z     vdW  Elec       q    Type
REMARK                         _______ _______ _______ _____ _____    ______ ____
ROOT
ATOM      1  C   UNL     1       3.065   5.943  19.260  0.00  0.00    +0.000 A 
ATOM      2  C   UNL     1       2.248   6.536  20.238  0.00  0.00    +0.000 A 
ATOM      3  C   UNL     1       1.769   7.840  20.115  0.00  0.00    +0.000 A 
ATOM      4  C   UNL     1       2.021   8.548  18.953  0.00  0.00    +0.000 A 
ATOM      5  C   UNL     1       2.701   7.929  17.905  0.00  0.00    +0.000 A 
ATOM      6  C   UNL     1       3.214   6.626  18.035  0.00  0.00    +0.000 A 
ENDROOT
BRANCH   1  11
ATOM      7  N   UNL     1       2.982   3.459  19.894  0.00  0.00    +0.000 N 
ATOM      8  C   UNL     1       3.921   2.466  19.897  0.00  0.00    +0.000 A 
ATOM      9  N   UNL     1       5.105   2.975  19.664  0.00  0.00    +0.000 NA
ATOM     10  N   UNL     1       4.944   4.322  19.457  0.00  0.00    +0.000 NA
ATOM     11  C   UNL     1       3.653   4.616  19.522  0.00  0.00    +0.000 A 
BRANCH   7  13
ATOM     12  C   UNL     1       0.793   2.560  19.155  0.00  0.00    +0.000 C 
ATOM     13  C   UNL     1       1.580   3.281  20.252  0.00  0.00    +0.000 C 
ATOM     14  C   UNL     1       1.392   2.604  21.609  0.00  0.00    +0.000 C 
ENDBRANCH   7  13
ENDBRANCH   1  11
BRANCH   6  15
ATOM     15  N   UNL     1       3.887   6.043  16.934  0.00  0.00    +0.000 N 
ATOM     16  C   UNL     1       5.255   6.254  16.711  0.00  0.00    +0.000 C 
ATOM     17  O   UNL     1       5.990   6.981  17.373  0.00  0.00    +0.000 OA
ATOM     18  H   UNL     1       3.341   5.846  16.100  0.00  0.00    +0.000 HD
BRANCH  16  19
ATOM     19  C   UNL     1       5.821   5.589  15.530  0.00  0.00    +0.000 A 
ATOM     20  C   UNL     1       7.206   5.456  15.406  0.00  0.00    +0.000 A 
ATOM     21  C   UNL     1       7.731   4.874  14.253  0.00  0.00    +0.000 A 
ATOM     22  C   UNL     1       6.876   4.302  13.299  0.00  0.00    +0.000 A 
ATOM     23  C   UNL     1       7.379   3.713  12.132  0.00  0.00    +0.000 A 
ATOM     24  C   UNL     1       6.632   2.749  11.467  0.00  0.00    +0.000 A 
ATOM     25  C   UNL     1       5.297   2.556  11.805  0.00  0.00    +0.000 A 
ATOM     26  C   UNL     1       4.702   3.379  12.767  0.00  0.00    +0.000 A 
ATOM     27  C   UNL     1       5.486   4.239  13.541  0.00  0.00    +0.000 A 
ATOM     28  C   UNL     1       4.970   4.978  14.611  0.00  0.00    +0.000 A 
ENDBRANCH  16  19
ENDBRANCH   6  15
TORSDOF 4
ENDMDL
MODEL 5
REMARK VINA RESULT:      -8.4      1.874      4.284
REMARK  Name = 
REMARK  6 active torsions:
REMARK  status: ('A' for Active; 'I' for Inactive)
REMARK    1  A    between atoms: C_1  and  C_2
REMARK    2  A    between atoms: C_2  and  C_3
REMARK    3  A    between atoms: C_2  and  N_4
REMARK    4  A    between atoms: C_8  and  C_9
REMARK    5  A    between atoms: C_14  and  N_15
REMARK    6  A    between atoms: C_16  and  C_18
REMARK                            x       y       z     vdW  Elec       q    Type
REMARK                         _______ _______ _______ _____ _____    ______ ____
ROOT
ATOM      1  C   UNL     1       4.692   4.198  19.500  0.00  0.00    +0.000 A 
ATOM      2  C   UNL     1       4.872   2.804  19.467  0.00  0.00    +0.000 A 
ATOM      3  C   UNL     1       3.957   1.923  20.043  0.00  0.00    +0.000 A 
ATOM      4  C   UNL     1       2.785   2.420  20.582  0.00  0.00    +0.000 A 
ATOM      5  C   UNL     1       2.511   3.784  20.493  0.00  0.00    +0.000 A 
ATOM      6  C   UNL     1       3.443   4.682  19.943  0.00  0.00    +0.000 A 
ENDROOT
BRANCH   1  11
ATOM      7  N   UNL     1       5.874   5.634  17.735  0.00  0.00    +0.000 N 
ATOM      8  C   UNL     1       6.959   6.463  17.782  0.00  0.00    +0.000 A 
ATOM      9  N   UNL     1       7.556   6.348  18.943  0.00  0.00    +0.000 NA
ATOM     10  N   UNL     1       6.829   5.459  19.695  0.00  0.00    +0.000 NA
ATOM     11  C   UNL     1       5.767   5.075  19.001  0.00  0.00    +0.000 A 
BRANCH   7  13
ATOM     12  C   UNL     1       4.920   6.658  15.688  0.00  0.00    +0.000 C 
ATOM     13  C   UNL     1       5.056   5.401  16.551  0.00  0.00    +0.000 C 
ATOM     14  C   UNL     1       5.529   4.206  15.724  0.00  0.00    +0.000 C 
ENDBRANCH   7  13
ENDBRANCH   1  11
BRANCH   6  15
ATOM     15  N   UNL     1       3.107   6.055  19.868  0.00  0.00    +0.000 N 
ATOM     16  C   UNL     1       2.347   6.571  18.809  0.00  0.00    +0.000 C 
ATOM     17  O   UNL     1       1.950   5.941  17.833  0.00  0.00    +0.000 OA
ATOM     18  H   UNL     1       3.740   6.719  20.306  0.00  0.00    +0.000 HD
BRANCH  16  19
ATOM     19  C   UNL     1       2.075   8.014  18.859  0.00  0.00    +0.000 A 
ATOM     20  C   UNL     1       2.322   8.805  17.734  0.00  0.00    +0.000 A 
ATOM     21  C   UNL     1       2.113  10.182  17.815  0.00  0.00    +0.000 A 
ATOM     22  C   UNL     1       1.529  10.741  18.961  0.00  0.00    +0.000 A 
ATOM     23  C   UNL     1       1.311  12.120  19.066  0.00  0.00    +0.000 A 
ATOM     24  C   UNL     1       0.328  12.602  19.923  0.00  0.00    +0.000 A 
ATOM     25  C   UNL     1      -0.253  11.748  20.854  0.00  0.00    +0.000 A 
ATOM     26  C   UNL     1       0.201  10.430  20.961  0.00  0.00    +0.000 A 
ATOM     27  C   UNL     1       1.074   9.905  20.004  0.00  0.00    +0.000 A 
ATOM     28  C   UNL     1       1.449   8.557  19.979  0.00  0.00    +0.000 A 
ENDBRANCH  16  19
ENDBRANCH   6  15
TORSDOF 4
ENDMDL
MODEL 6
REMARK VINA RESULT:      -8.3      1.061      1.192
REMARK  Name = 
REMARK  6 active torsions:
REMARK  status: ('A' for Active; 'I' for Inactive)
REMARK    1  A    between atoms: C_1  and  C_2
REMARK    2  A    between atoms: C_2  and  C_3
REMARK    3  A    between atoms: C_2  and  N_4
REMARK    4  A    between atoms: C_8  and  C_9
REMARK    5  A    between atoms: C_14  and  N_15
REMARK    6  A    between atoms: C_16  and  C_18
REMARK                            x       y       z     vdW  Elec       q    Type
REMARK                         _______ _______ _______ _____ _____    ______ ____
ROOT
ATOM      1  C   UNL     1       3.350   5.153  18.179  0.00  0.00    +0.000 A 
ATOM      2  C   UNL     1       4.255   4.554  17.285  0.00  0.00    +0.000 A 
ATOM      3  C   UNL     1       4.985   5.297  16.357  0.00  0.00    +0.000 A 
ATOM      4  C   UNL     1       4.895   6.677  16.373  0.00  0.00    +0.000 A 
ATOM      5  C   UNL     1       4.121   7.305  17.348  0.00  0.00    +0.000 A 
ATOM      6  C   UNL     1       3.357   6.562  18.266  0.00  0.00    +0.000 A 
ENDROOT
BRANCH   1  11
ATOM      7  N   UNL     1       2.854   3.080  19.604  0.00  0.00    +0.000 N 
ATOM      8  C   UNL     1       1.803   2.727  20.402  0.00  0.00    +0.000 A 
ATOM      9  N   UNL     1       0.827   3.587  20.256  0.00  0.00    +0.000 NA
ATOM     10  N   UNL     1       1.253   4.553  19.378  0.00  0.00    +0.000 NA
ATOM     11  C   UNL     1       2.507   4.296  19.032  0.00  0.00    +0.000 A 
BRANCH   7  13
ATOM     12  C   UNL     1       4.654   1.801  20.734  0.00  0.00    +0.000 C 
ATOM     13  C   UNL     1       4.056   2.278  19.407  0.00  0.00    +0.000 C 
ATOM     14  C   UNL     1       3.846   1.113  18.441  0.00  0.00    +0.000 C 
ENDBRANCH   7  13
ENDBRANCH   1  11
BRANCH   6  15
ATOM     15  N   UNL     1       2.598   7.251  19.241  0.00  0.00    +0.000 N 
ATOM     16  C   UNL     1       1.760   8.322  18.900  0.00  0.00    +0.000 C 
ATOM     17  O   UNL     1       1.632   8.810  17.781  0.00  0.00    +0.000 OA
ATOM     18  H   UNL     1       2.962   7.276  20.190  0.00  0.00    +0.000 HD
BRANCH  16  19
ATOM     19  C   UNL     1       1.034   8.947  20.014  0.00  0.00    +0.000 A 
ATOM     20  C   UNL     1       1.335   8.583  21.329  0.00  0.00    +0.000 A 
ATOM     21  C   UNL     1       0.599   9.143  22.373  0.00  0.00    +0.000 A 
ATOM     22  C   UNL     1      -0.332  10.160  22.114  0.00  0.00    +0.000 A 
ATOM     23  C   UNL     1      -1.085  10.735  23.144  0.00  0.00    +0.000 A 
ATOM     24  C   UNL     1      -1.604  12.015  22.990  0.00  0.00    +0.000 A 
ATOM     25  C   UNL     1      -1.598  12.615  21.736  0.00  0.00    +0.000 A 
ATOM     26  C   UNL     1      -1.128  11.899  20.630  0.00  0.00    +0.000 A 
ATOM     27  C   UNL     1      -0.468  10.680  20.808  0.00  0.00    +0.000 A 
ATOM     28  C   UNL     1       0.148   9.991  19.757  0.00  0.00    +0.000 A 
ENDBRANCH  16  19
ENDBRANCH   6  15
TORSDOF 4
ENDMDL
MODEL 7
REMARK VINA RESULT:      -8.2      1.143      1.983
REMARK  Name = 
REMARK  6 active torsions:
REMARK  status: ('A' for Active; 'I' for Inactive)
REMARK    1  A    between atoms: C_1  and  C_2
REMARK    2  A    between atoms: C_2  and  C_3
REMARK    3  A    between atoms: C_2  and  N_4
REMARK    4  A    between atoms: C_8  and  C_9
REMARK    5  A    between atoms: C_14  and  N_15
REMARK    6  A    between atoms: C_16  and  C_18
REMARK                            x       y       z     vdW  Elec       q    Type
REMARK                         _______ _______ _______ _____ _____    ______ ____
ROOT
ATOM      1  C   UNL     1       4.765   4.774  17.665  0.00  0.00    +0.000 A 
ATOM      2  C   UNL     1       5.689   4.352  16.694  0.00  0.00    +0.000 A 
ATOM      3  C   UNL     1       5.937   5.087  15.534  0.00  0.00    +0.000 A 
ATOM      4  C   UNL     1       5.330   6.319  15.371  0.00  0.00    +0.000 A 
ATOM      5  C   UNL     1       4.526   6.831  16.389  0.00  0.00    +0.000 A 
ATOM      6  C   UNL     1       4.247   6.081  17.546  0.00  0.00    +0.000 A 
ENDROOT
BRANCH   1  11
ATOM      7  N   UNL     1       3.191   3.593  19.309  0.00  0.00    +0.000 N 
ATOM      8  C   UNL     1       3.386   2.626  20.255  0.00  0.00    +0.000 A 
ATOM      9  N   UNL     1       4.668   2.405  20.405  0.00  0.00    +0.000 NA
ATOM     10  N   UNL     1       5.334   3.207  19.513  0.00  0.00    +0.000 NA
ATOM     11  C   UNL     1       4.447   3.879  18.792  0.00  0.00    +0.000 A 
BRANCH   7  13
ATOM     12  C   UNL     1       1.421   3.787  17.584  0.00  0.00    +0.000 C 
ATOM     13  C   UNL     1       1.901   4.189  18.981  0.00  0.00    +0.000 C 
ATOM     14  C   UNL     1       0.831   3.916  20.037  0.00  0.00    +0.000 C 
ENDBRANCH   7  13
ENDBRANCH   1  11
BRANCH   6  15
ATOM     15  N   UNL     1       3.432   6.654  18.552  0.00  0.00    +0.000 N 
ATOM     16  C   UNL     1       2.585   7.738  18.284  0.00  0.00    +0.000 C 
ATOM     17  O   UNL     1       2.493   8.335  17.215  0.00  0.00    +0.000 OA
ATOM     18  H   UNL     1       3.755   6.588  19.513  0.00  0.00    +0.000 HD
BRANCH  16  19
ATOM     19  C   UNL     1       1.799   8.233  19.423  0.00  0.00    +0.000 A 
ATOM     20  C   UNL     1       1.816   7.534  20.632  0.00  0.00    +0.000 A 
ATOM     21  C   UNL     1       1.020   7.984  21.686  0.00  0.00    +0.000 A 
ATOM     22  C   UNL     1       0.326   9.198  21.578  0.00  0.00    +0.000 A 
ATOM     23  C   UNL     1      -0.480   9.669  22.621  0.00  0.00    +0.000 A 
ATOM     24  C   UNL     1      -0.748  11.029  22.728  0.00  0.00    +0.000 A 
ATOM     25  C   UNL     1      -0.437  11.878  21.672  0.00  0.00    +0.000 A 
ATOM     26  C   UNL     1       0.083  11.346  20.488  0.00  0.00    +0.000 A 
ATOM     27  C   UNL     1       0.494  10.011  20.436  0.00  0.00    +0.000 A 
ATOM     28  C   UNL     1       1.152   9.463  19.328  0.00  0.00    +0.000 A 
ENDBRANCH  16  19
ENDBRANCH   6  15
TORSDOF 4
ENDMDL
MODEL 8
REMARK VINA RESULT:      -8.2      2.448      8.041
REMARK  Name = 
REMARK  6 active torsions:
REMARK  status: ('A' for Active; 'I' for Inactive)
REMARK    1  A    between atoms: C_1  and  C_2
REMARK    2  A    between atoms: C_2  and  C_3
REMARK    3  A    between atoms: C_2  and  N_4
REMARK    4  A    between atoms: C_8  and  C_9
REMARK    5  A    between atoms: C_14  and  N_15
REMARK    6  A    between atoms: C_16  and  C_18
REMARK                            x       y       z     vdW  Elec       q    Type
REMARK                         _______ _______ _______ _____ _____    ______ ____
ROOT
ATOM      1  C   UNL     1       2.397   5.120  19.893  0.00  0.00    +0.000 A 
ATOM      2  C   UNL     1       1.839   4.894  21.163  0.00  0.00    +0.000 A 
ATOM      3  C   UNL     1       1.792   3.624  21.740  0.00  0.00    +0.000 A 
ATOM      4  C   UNL     1       2.397   2.563  21.091  0.00  0.00    +0.000 A 
ATOM      5  C   UNL     1       3.089   2.788  19.901  0.00  0.00    +0.000 A 
ATOM      6  C   UNL     1       3.112   4.059  19.299  0.00  0.00    +0.000 A 
ENDROOT
BRANCH   1  11
ATOM      7  N   UNL     1       1.815   7.618  19.888  0.00  0.00    +0.000 N 
ATOM      8  C   UNL     1       2.014   8.619  18.980  0.00  0.00    +0.000 A 
ATOM      9  N   UNL     1       2.459   8.116  17.856  0.00  0.00    +0.000 NA
ATOM     10  N   UNL     1       2.601   6.763  18.034  0.00  0.00    +0.000 NA
ATOM     11  C   UNL     1       2.283   6.458  19.285  0.00  0.00    +0.000 A 
BRANCH   7  13
ATOM     12  C   UNL     1       1.826   8.948  21.981  0.00  0.00    +0.000 C 
ATOM     13  C   UNL     1       1.199   7.792  21.198  0.00  0.00    +0.000 C 
ATOM     14  C   UNL     1      -0.322   7.926  21.129  0.00  0.00    +0.000 C 
ENDBRANCH   7  13
ENDBRANCH   1  11
BRANCH   6  15
ATOM     15  N   UNL     1       3.840   4.233  18.097  0.00  0.00    +0.000 N 
ATOM     16  C   UNL     1       5.238   4.332  18.090  0.00  0.00    +0.000 C 
ATOM     17  O   UNL     1       5.965   4.341  19.079  0.00  0.00    +0.000 OA
ATOM     18  H   UNL     1       3.372   4.704  17.328  0.00  0.00    +0.000 HD
BRANCH  16  19
ATOM     19  C   UNL     1       5.861   4.512  16.772  0.00  0.00    +0.000 A 
ATOM     20  C   UNL     1       7.176   4.975  16.684  0.00  0.00    +0.000 A 
ATOM     21  C   UNL     1       7.734   5.195  15.424  0.00  0.00    +0.000 A 
ATOM     22  C   UNL     1       7.035   4.820  14.267  0.00  0.00    +0.000 A 
ATOM     23  C   UNL     1       7.573   5.032  12.992  0.00  0.00    +0.000 A 
ATOM     24  C   UNL     1       7.150   4.251  11.924  0.00  0.00    +0.000 A 
ATOM     25  C   UNL     1       6.024   3.448  12.061  0.00  0.00    +0.000 A 
ATOM     26  C   UNL     1       5.292   3.482  13.252  0.00  0.00    +0.000 A 
ATOM     27  C   UNL     1       5.800   4.144  14.373  0.00  0.00    +0.000 A 
ATOM     28  C   UNL     1       5.183   4.092  15.629  0.00  0.00    +0.000 A 
ENDBRANCH  16  19
ENDBRANCH   6  15
TORSDOF 4
ENDMDL
MODEL 9
REMARK VINA RESULT:      -8.1      2.106      4.208
REMARK  Name = 
REMARK  6 active torsions:
REMARK  status: ('A' for Active; 'I' for Inactive)
REMARK    1  A    between atoms: C_1  and  C_2
REMARK    2  A    between atoms: C_2  and  C_3
REMARK    3  A    between atoms: C_2  and  N_4
REMARK    4  A    between atoms: C_8  and  C_9
REMARK    5  A    between atoms: C_14  and  N_15
REMARK    6  A    between atoms: C_16  and  C_18
REMARK                            x       y       z     vdW  Elec       q    Type
REMARK                         _______ _______ _______ _____ _____    ______ ____
ROOT
ATOM      1  C   UNL     1       4.012   3.674  18.576  0.00  0.00    +0.000 A 
ATOM      2  C   UNL     1       4.221   2.315  18.280  0.00  0.00    +0.000 A 
ATOM      3  C   UNL     1       3.183   1.383  18.294  0.00  0.00    +0.000 A 
ATOM      4  C   UNL     1       1.887   1.815  18.512  0.00  0.00    +0.000 A 
ATOM      5  C   UNL     1       1.632   3.178  18.659  0.00  0.00    +0.000 A 
ATOM      6  C   UNL     1       2.677   4.120  18.677  0.00  0.00    +0.000 A 
ENDROOT
BRANCH   1  11
ATOM      7  N   UNL     1       5.759   5.315  17.665  0.00  0.00    +0.000 N 
ATOM      8  C   UNL     1       6.716   6.084  18.264  0.00  0.00    +0.000 A 
ATOM      9  N   UNL     1       6.808   5.770  19.532  0.00  0.00    +0.000 NA
ATOM     10  N   UNL     1       5.865   4.807  19.790  0.00  0.00    +0.000 NA
ATOM     11  C   UNL     1       5.174   4.574  18.683  0.00  0.00    +0.000 A 
BRANCH   7  13
ATOM     12  C   UNL     1       5.056   6.671  15.712  0.00  0.00    +0.000 C 
ATOM     13  C   UNL     1       5.481   5.296  16.234  0.00  0.00    +0.000 C 
ATOM     14  C   UNL     1       6.631   4.719  15.410  0.00  0.00    +0.000 C 
ENDBRANCH   7  13
ENDBRANCH   1  11
BRANCH   6  15
ATOM     15  N   UNL     1       2.359   5.492  18.818  0.00  0.00    +0.000 N 
ATOM     16  C   UNL     1       1.998   6.040  20.057  0.00  0.00    +0.000 C 
ATOM     17  O   UNL     1       1.861   5.421  21.108  0.00  0.00    +0.000 OA
ATOM     18  H   UNL     1       1.977   5.972  18.009  0.00  0.00    +0.000 HD
BRANCH  16  19
ATOM     19  C   UNL     1       1.692   7.477  20.057  0.00  0.00    +0.000 A 
ATOM     20  C   UNL     1       1.287   8.100  21.239  0.00  0.00    +0.000 A 
ATOM     21  C   UNL     1       0.946   9.452  21.210  0.00  0.00    +0.000 A 
ATOM     22  C   UNL     1       1.144  10.206  20.044  0.00  0.00    +0.000 A 
ATOM     23  C   UNL     1       0.807  11.564  19.990  0.00  0.00    +0.000 A 
ATOM     24  C   UNL     1       1.433  12.396  19.069  0.00  0.00    +0.000 A 
ATOM     25  C   UNL     1       2.191  11.842  18.044  0.00  0.00    +0.000 A 
ATOM     26  C   UNL     1       2.264  10.451  17.912  0.00  0.00    +0.000 A 
ATOM     27  C   UNL     1       1.766   9.621  18.920  0.00  0.00    +0.000 A 
ATOM     28  C   UNL     1       1.939   8.231  18.911  0.00  0.00    +0.000 A 
ENDBRANCH  16  19
ENDBRANCH   6  15
TORSDOF 4
ENDMDL
