MODEL 1
REMARK VINA RESULT:      -8.2      0.000      0.000
REMARK  Name = 
REMARK  6 active torsions:
REMARK  status: ('A' for Active; 'I' for Inactive)
REMARK    1  A    between atoms: C_1  and  C_2
REMARK    2  A    between atoms: C_5  and  C_6
REMARK    3  A    between atoms: C_10  and  C_11
REMARK    4  A    between atoms: N_16  and  C_17
REMARK    5  A    between atoms: C_17  and  C_18
REMARK    6  A    between atoms: C_17  and  C_19
REMARK                            x       y       z     vdW  Elec       q    Type
REMARK                         _______ _______ _______ _____ _____    ______ ____
ROOT
ATOM      1  C   UNL     1       0.814   9.142  20.704  0.00  0.00    +0.000 C 
ATOM      2  O   UNL     1       0.436   9.075  21.873  0.00  0.00    +0.000 OA
ATOM      3  N   UNL     1       1.589   8.146  20.104  0.00  0.00    +0.000 N 
ATOM      4  C   UNL     1       2.079   8.129  18.718  0.00  0.00    +0.000 C 
ATOM      5  C   UNL     1       1.911   6.755  18.049  0.00  0.00    +0.000 C 
ATOM      6  N   UNL     1       2.483   5.624  18.813  0.00  0.00    +0.000 NA
ATOM      7  C   UNL     1       1.851   5.664  20.161  0.00  0.00    +0.000 C 
ATOM      8  C   UNL     1       2.015   7.001  20.920  0.00  0.00    +0.000 C 
ENDROOT
BRANCH   1  13
ATOM      9  C   UNL     1      -1.183  11.357  18.333  0.00  0.00    +0.000 A 
ATOM     10  C   UNL     1      -0.602  12.600  18.627  0.00  0.00    +0.000 A 
ATOM     11  C   UNL     1       0.475  12.697  19.510  0.00  0.00    +0.000 A 
ATOM     12  C   UNL     1       0.947  11.554  20.156  0.00  0.00    +0.000 A 
ATOM     13  C   UNL     1       0.349  10.312  19.911  0.00  0.00    +0.000 A 
ATOM     14  C   UNL     1      -0.658  10.210  18.943  0.00  0.00    +0.000 A 
BRANCH   9  19
ATOM     15  C   UNL     1      -3.651  10.110  14.393  0.00  0.00    +0.000 C 
ATOM     16  C   UNL     1      -3.434  10.718  15.715  0.00  0.00    +0.000 A 
ATOM     17  N   UNL     1      -4.289  11.319  16.513  0.00  0.00    +0.000 NA
ATOM     18  N   UNL     1      -3.580  11.682  17.640  0.00  0.00    +0.000 NA
ATOM     19  C   UNL     1      -2.337  11.289  17.446  0.00  0.00    +0.000 A 
ATOM     20  O   UNL     1      -2.169  10.660  16.236  0.00  0.00    +0.000 OA
ENDBRANCH   9  19
ENDBRANCH   1  13
BRANCH   6  21
ATOM     21  C   UNL     1       3.968   5.644  18.860  0.00  0.00    +0.000 C 
ATOM     22  C   UNL     1       4.514   4.510  19.747  0.00  0.00    +0.000 C 
BRANCH  21  23
ATOM     23  C   UNL     1       4.620   5.530  17.478  0.00  0.00    +0.000 A 
ATOM     24  C   UNL     1       4.822   6.653  16.657  0.00  0.00    +0.000 A 
ATOM     25  C   UNL     1       5.410   6.528  15.396  0.00  0.00    +0.000 A 
ATOM     26  C   UNL     1       5.822   5.276  14.938  0.00  0.00    +0.000 A 
ATOM     27  C   UNL     1       5.637   4.164  15.749  0.00  0.00    +0.000 A 
ATOM     28  F   UNL     1       6.043   2.960  15.320  0.00  0.00    +0.000 F 
ATOM     29  C   UNL     1       5.042   4.276  17.003  0.00  0.00    +0.000 A 
ENDBRANCH  21  23
ENDBRANCH   6  21
TORSDOF 4
ENDMDL
MODEL 2
REMARK VINA RESULT:      -8.2      1.196      1.401
REMARK  Name = 
REMARK  6 active torsions:
REMARK  status: ('A' for Active; 'I' for Inactive)
REMARK    1  A    between atoms: C_1  and  C_2
REMARK    2  A    between atoms: C_5  and  C_6
REMARK    3  A    between atoms: C_10  and  C_11
REMARK    4  A    between atoms: N_16  and  C_17
REMARK    5  A    between atoms: C_17  and  C_18
REMARK    6  A    between atoms: C_17  and  C_19
REMARK                            x       y       z     vdW  Elec       q    Type
REMARK                         _______ _______ _______ _____ _____    ______ ____
ROOT
ATOM      1  C   UNL     1       0.742   8.328  20.805  0.00  0.00    +0.000 C 
ATOM      2  O   UNL     1       0.150   8.139  21.866  0.00  0.00    +0.000 OA
ATOM      3  N   UNL     1       1.599   7.380  20.241  0.00  0.00    +0.000 N 
ATOM      4  C   UNL     1       2.341   7.506  18.977  0.00  0.00    +0.000 C 
ATOM      5  C   UNL     1       2.280   6.227  18.127  0.00  0.00    +0.000 C 
ATOM      6  N   UNL     1       2.680   4.993  18.839  0.00  0.00    +0.000 NA
ATOM      7  C   UNL     1       1.807   4.900  20.042  0.00  0.00    +0.000 C 
ATOM      8  C   UNL     1       1.847   6.132  20.975  0.00  0.00    +0.000 C 
ENDROOT
BRANCH   1  13
ATOM      9  C   UNL     1      -0.889  10.939  18.559  0.00  0.00    +0.000 A 
ATOM     10  C   UNL     1      -0.163  12.073  18.952  0.00  0.00    +0.000 A 
ATOM     11  C   UNL     1       0.893  11.969  19.861  0.00  0.00    +0.000 A 
ATOM     12  C   UNL     1       1.196  10.734  20.433  0.00  0.00    +0.000 A 
ATOM     13  C   UNL     1       0.452   9.600  20.088  0.00  0.00    +0.000 A 
ATOM     14  C   UNL     1      -0.532   9.694  19.096  0.00  0.00    +0.000 A 
BRANCH   9  19
ATOM     15  C   UNL     1      -3.436  10.193  14.543  0.00  0.00    +0.000 C 
ATOM     16  C   UNL     1      -3.151  10.733  15.882  0.00  0.00    +0.000 A 
ATOM     17  N   UNL     1      -3.913  11.455  16.675  0.00  0.00    +0.000 NA
ATOM     18  N   UNL     1      -3.180  11.673  17.824  0.00  0.00    +0.000 NA
ATOM     19  C   UNL     1      -2.016  11.081  17.647  0.00  0.00    +0.000 A 
ATOM     20  O   UNL     1      -1.927  10.454  16.428  0.00  0.00    +0.000 OA
ENDBRANCH   9  19
ENDBRANCH   1  13
BRANCH   6  21
ATOM     21  C   UNL     1       4.130   4.951  19.162  0.00  0.00    +0.000 C 
ATOM     22  C   UNL     1       4.503   3.648  19.892  0.00  0.00    +0.000 C 
BRANCH  21  23
ATOM     23  C   UNL     1       5.030   5.084  17.928  0.00  0.00    +0.000 A 
ATOM     24  C   UNL     1       4.846   4.286  16.785  0.00  0.00    +0.000 A 
ATOM     25  C   UNL     1       5.682   4.416  15.673  0.00  0.00    +0.000 A 
ATOM     26  C   UNL     1       6.711   5.358  15.679  0.00  0.00    +0.000 A 
ATOM     27  C   UNL     1       6.890   6.158  16.799  0.00  0.00    +0.000 A 
ATOM     28  F   UNL     1       7.869   7.076  16.804  0.00  0.00    +0.000 F 
ATOM     29  C   UNL     1       6.070   6.030  17.917  0.00  0.00    +0.000 A 
ENDBRANCH  21  23
ENDBRANCH   6  21
TORSDOF 4
ENDMDL
MODEL 3
REMARK VINA RESULT:      -8.0      0.927      1.056
REMARK  Name = 
REMARK  6 active torsions:
REMARK  status: ('A' for Active; 'I' for Inactive)
REMARK    1  A    between atoms: C_1  and  C_2
REMARK    2  A    between atoms: C_5  and  C_6
REMARK    3  A    between atoms: C_10  and  C_11
REMARK    4  A    between atoms: N_16  and  C_17
REMARK    5  A    between atoms: C_17  and  C_18
REMARK    6  A    between atoms: C_17  and  C_19
REMARK                            x       y       z     vdW  Elec       q    Type
REMARK                         _______ _______ _______ _____ _____    ______ ____
ROOT
ATOM      1  C   UNL     1       0.848   9.158  20.645  0.00  0.00    +0.000 C 
ATOM      2  O   UNL     1       0.477   9.111  21.817  0.00  0.00    +0.000 OA
ATOM      3  N   UNL     1       1.618   8.151  20.058  0.00  0.00    +0.000 N 
ATOM      4  C   UNL     1       2.100   8.108  18.669  0.00  0.00    +0.000 C 
ATOM      5  C   UNL     1       1.928   6.723  18.027  0.00  0.00    +0.000 C 
ATOM      6  N   UNL     1       2.503   5.605  18.807  0.00  0.00    +0.000 NA
ATOM      7  C   UNL     1       1.880   5.670  20.158  0.00  0.00    +0.000 C 
ATOM      8  C   UNL     1       2.049   7.020  20.891  0.00  0.00    +0.000 C 
ENDROOT
BRANCH   1  13
ATOM      9  C   UNL     1      -1.223  11.366  18.332  0.00  0.00    +0.000 A 
ATOM     10  C   UNL     1      -0.560  12.588  18.516  0.00  0.00    +0.000 A 
ATOM     11  C   UNL     1       0.590  12.667  19.306  0.00  0.00    +0.000 A 
ATOM     12  C   UNL     1       1.055  11.531  19.969  0.00  0.00    +0.000 A 
ATOM     13  C   UNL     1       0.378  10.314  19.833  0.00  0.00    +0.000 A 
ATOM     14  C   UNL     1      -0.708  10.221  18.954  0.00  0.00    +0.000 A 
BRANCH   9  19
ATOM     15  C   UNL     1      -5.916  11.946  17.429  0.00  0.00    +0.000 C 
ATOM     16  C   UNL     1      -4.517  11.598  17.137  0.00  0.00    +0.000 A 
ATOM     17  N   UNL     1      -3.968  11.210  16.006  0.00  0.00    +0.000 NA
ATOM     18  N   UNL     1      -2.624  11.038  16.267  0.00  0.00    +0.000 NA
ATOM     19  C   UNL     1      -2.448  11.319  17.543  0.00  0.00    +0.000 A 
ATOM     20  O   UNL     1      -3.615  11.691  18.163  0.00  0.00    +0.000 OA
ENDBRANCH   9  19
ENDBRANCH   1  13
BRANCH   6  21
ATOM     21  C   UNL     1       3.989   5.625  18.845  0.00  0.00    +0.000 C 
ATOM     22  C   UNL     1       4.541   4.493  19.730  0.00  0.00    +0.000 C 
BRANCH  21  23
ATOM     23  C   UNL     1       4.632   5.508  17.459  0.00  0.00    +0.000 A 
ATOM     24  C   UNL     1       4.834   6.631  16.637  0.00  0.00    +0.000 A 
ATOM     25  C   UNL     1       5.415   6.502  15.372  0.00  0.00    +0.000 A 
ATOM     26  C   UNL     1       5.818   5.248  14.912  0.00  0.00    +0.000 A 
ATOM     27  C   UNL     1       5.632   4.138  15.723  0.00  0.00    +0.000 A 
ATOM     28  F   UNL     1       6.030   2.931  15.292  0.00  0.00    +0.000 F 
ATOM     29  C   UNL     1       5.045   4.252  16.981  0.00  0.00    +0.000 A 
ENDBRANCH  21  23
ENDBRANCH   6  21
TORSDOF 4
ENDMDL
MODEL 4
REMARK VINA RESULT:      -7.9      1.418      1.666
REMARK  Name = 
REMARK  6 active torsions:
REMARK  status: ('A' for Active; 'I' for Inactive)
REMARK    1  A    between atoms: C_1  and  C_2
REMARK    2  A    between atoms: C_5  and  C_6
REMARK    3  A    between atoms: C_10  and  C_11
REMARK    4  A    between atoms: N_16  and  C_17
REMARK    5  A    between atoms: C_17  and  C_18
REMARK    6  A    between atoms: C_17  and  C_19
REMARK                            x       y       z     vdW  Elec       q    Type
REMARK                         _______ _______ _______ _____ _____    ______ ____
ROOT
ATOM      1  C   UNL     1       0.699   8.548  20.690  0.00  0.00    +0.000 C 
ATOM      2  O   UNL     1       0.127   8.417  21.771  0.00  0.00    +0.000 OA
ATOM      3  N   UNL     1       1.563   7.579  20.173  0.00  0.00    +0.000 N 
ATOM      4  C   UNL     1       2.283   7.636  18.891  0.00  0.00    +0.000 C 
ATOM      5  C   UNL     1       2.229   6.305  18.125  0.00  0.00    +0.000 C 
ATOM      6  N   UNL     1       2.660   5.125  18.907  0.00  0.00    +0.000 NA
ATOM      7  C   UNL     1       1.808   5.095  20.128  0.00  0.00    +0.000 C 
ATOM      8  C   UNL     1       1.843   6.384  20.980  0.00  0.00    +0.000 C 
ENDROOT
BRANCH   1  13
ATOM      9  C   UNL     1      -1.039  11.004  18.352  0.00  0.00    +0.000 A 
ATOM     10  C   UNL     1      -0.285  12.157  18.620  0.00  0.00    +0.000 A 
ATOM     11  C   UNL     1       0.819  12.109  19.475  0.00  0.00    +0.000 A 
ATOM     12  C   UNL     1       1.146  10.916  20.118  0.00  0.00    +0.000 A 
ATOM     13  C   UNL     1       0.377   9.767  19.898  0.00  0.00    +0.000 A 
ATOM     14  C   UNL     1      -0.660   9.798  18.958  0.00  0.00    +0.000 A 
BRANCH   9  19
ATOM     15  C   UNL     1      -5.566  12.138  17.174  0.00  0.00    +0.000 C 
ATOM     16  C   UNL     1      -4.207  11.613  16.967  0.00  0.00    +0.000 A 
ATOM     17  N   UNL     1      -3.650  11.134  15.877  0.00  0.00    +0.000 NA
ATOM     18  N   UNL     1      -2.354  10.803  16.216  0.00  0.00    +0.000 NA
ATOM     19  C   UNL     1      -2.214  11.091  17.495  0.00  0.00    +0.000 A 
ATOM     20  O   UNL     1      -3.358  11.618  18.042  0.00  0.00    +0.000 OA
ENDBRANCH   9  19
ENDBRANCH   1  13
BRANCH   6  21
ATOM     21  C   UNL     1       4.116   5.126  19.207  0.00  0.00    +0.000 C 
ATOM     22  C   UNL     1       4.520   3.879  20.016  0.00  0.00    +0.000 C 
BRANCH  21  23
ATOM     23  C   UNL     1       4.994   5.190  17.953  0.00  0.00    +0.000 A 
ATOM     24  C   UNL     1       4.785   4.336  16.856  0.00  0.00    +0.000 A 
ATOM     25  C   UNL     1       5.602   4.404  15.724  0.00  0.00    +0.000 A 
ATOM     26  C   UNL     1       6.635   5.339  15.663  0.00  0.00    +0.000 A 
ATOM     27  C   UNL     1       6.839   6.194  16.737  0.00  0.00    +0.000 A 
ATOM     28  F   UNL     1       7.822   7.105  16.678  0.00  0.00    +0.000 F 
ATOM     29  C   UNL     1       6.038   6.128  17.874  0.00  0.00    +0.000 A 
ENDBRANCH  21  23
ENDBRANCH   6  21
TORSDOF 4
ENDMDL
MODEL 5
REMARK VINA RESULT:      -7.6      3.228      3.929
REMARK  Name = 
REMARK  6 active torsions:
REMARK  status: ('A' for Active; 'I' for Inactive)
REMARK    1  A    between atoms: C_1  and  C_2
REMARK    2  A    between atoms: C_5  and  C_6
REMARK    3  A    between atoms: C_10  and  C_11
REMARK    4  A    between atoms: N_16  and  C_17
REMARK    5  A    between atoms: C_17  and  C_18
REMARK    6  A    between atoms: C_17  and  C_19
REMARK                            x       y       z     vdW  Elec       q    Type
REMARK                         _______ _______ _______ _____ _____    ______ ____
ROOT
ATOM      1  C   UNL     1       1.087   7.867  20.678  0.00  0.00    +0.000 C 
ATOM      2  O   UNL     1       0.313   7.716  21.622  0.00  0.00    +0.000 OA
ATOM      3  N   UNL     1       1.839   6.818  20.145  0.00  0.00    +0.000 N 
ATOM      4  C   UNL     1       2.780   6.894  19.017  0.00  0.00    +0.000 C 
ATOM      5  C   UNL     1       2.626   5.718  18.040  0.00  0.00    +0.000 C 
ATOM      6  N   UNL     1       2.683   4.380  18.670  0.00  0.00    +0.000 NA
ATOM      7  C   UNL     1       1.631   4.366  19.724  0.00  0.00    +0.000 C 
ATOM      8  C   UNL     1       1.744   5.494  20.775  0.00  0.00    +0.000 C 
ENDROOT
BRANCH   1  13
ATOM      9  C   UNL     1       1.123  11.650  20.223  0.00  0.00    +0.000 A 
ATOM     10  C   UNL     1       1.481  11.721  18.868  0.00  0.00    +0.000 A 
ATOM     11  C   UNL     1       1.618  10.561  18.102  0.00  0.00    +0.000 A 
ATOM     12  C   UNL     1       1.455   9.311  18.700  0.00  0.00    +0.000 A 
ATOM     13  C   UNL     1       1.144   9.221  20.062  0.00  0.00    +0.000 A 
ATOM     14  C   UNL     1       0.902  10.389  20.795  0.00  0.00    +0.000 A 
BRANCH   9  19
ATOM     15  C   UNL     1      -0.981  14.945  23.032  0.00  0.00    +0.000 C 
ATOM     16  C   UNL     1       0.111  14.315  22.273  0.00  0.00    +0.000 A 
ATOM     17  N   UNL     1       1.373  14.668  22.171  0.00  0.00    +0.000 NA
ATOM     18  N   UNL     1       1.975  13.727  21.360  0.00  0.00    +0.000 NA
ATOM     19  C   UNL     1       1.034  12.871  21.013  0.00  0.00    +0.000 A 
ATOM     20  O   UNL     1      -0.185  13.181  21.564  0.00  0.00    +0.000 OA
ENDBRANCH   9  19
ENDBRANCH   1  13
BRANCH   6  21
ATOM     21  C   UNL     1       4.034   4.037  19.186  0.00  0.00    +0.000 C 
ATOM     22  C   UNL     1       4.107   2.564  19.627  0.00  0.00    +0.000 C 
BRANCH  21  23
ATOM     23  C   UNL     1       5.153   4.290  18.169  0.00  0.00    +0.000 A 
ATOM     24  C   UNL     1       6.316   5.005  18.506  0.00  0.00    +0.000 A 
ATOM     25  C   UNL     1       7.321   5.232  17.563  0.00  0.00    +0.000 A 
ATOM     26  C   UNL     1       7.187   4.735  16.266  0.00  0.00    +0.000 A 
ATOM     27  C   UNL     1       6.048   4.018  15.930  0.00  0.00    +0.000 A 
ATOM     28  F   UNL     1       5.920   3.526  14.688  0.00  0.00    +0.000 F 
ATOM     29  C   UNL     1       5.035   3.795  16.858  0.00  0.00    +0.000 A 
ENDBRANCH  21  23
ENDBRANCH   6  21
TORSDOF 4
ENDMDL
MODEL 6
REMARK VINA RESULT:      -7.6      4.520      9.590
REMARK  Name = 
REMARK  6 active torsions:
REMARK  status: ('A' for Active; 'I' for Inactive)
REMARK    1  A    between atoms: C_1  and  C_2
REMARK    2  A    between atoms: C_5  and  C_6
REMARK    3  A    between atoms: C_10  and  C_11
REMARK    4  A    between atoms: N_16  and  C_17
REMARK    5  A    between atoms: C_17  and  C_18
REMARK    6  A    between atoms: C_17  and  C_19
REMARK                            x       y       z     vdW  Elec       q    Type
REMARK                         _______ _______ _______ _____ _____    ______ ____
ROOT
ATOM      1  C   UNL     1       1.994   8.734  18.294  0.00  0.00    +0.000 C 
ATOM      2  O   UNL     1       2.061   9.128  17.130  0.00  0.00    +0.000 OA
ATOM      3  N   UNL     1       1.304   9.433  19.287  0.00  0.00    +0.000 N 
ATOM      4  C   UNL     1       1.156   9.042  20.697  0.00  0.00    +0.000 C 
ATOM      5  C   UNL     1      -0.278   9.234  21.216  0.00  0.00    +0.000 C 
ATOM      6  N   UNL     1      -0.838  10.586  20.994  0.00  0.00    +0.000 NA
ATOM      7  C   UNL     1      -0.739  10.848  19.532  0.00  0.00    +0.000 C 
ATOM      8  C   UNL     1       0.683  10.719  18.940  0.00  0.00    +0.000 C 
ENDROOT
BRANCH   1  13
ATOM      9  C   UNL     1       4.339   5.732  18.233  0.00  0.00    +0.000 A 
ATOM     10  C   UNL     1       3.885   5.056  19.375  0.00  0.00    +0.000 A 
ATOM     11  C   UNL     1       2.782   5.523  20.094  0.00  0.00    +0.000 A 
ATOM     12  C   UNL     1       2.156   6.708  19.709  0.00  0.00    +0.000 A 
ATOM     13  C   UNL     1       2.625   7.421  18.599  0.00  0.00    +0.000 A 
ATOM     14  C   UNL     1       3.661   6.888  17.823  0.00  0.00    +0.000 A 
BRANCH   9  19
ATOM     15  C   UNL     1       7.106   4.744  14.419  0.00  0.00    +0.000 C 
ATOM     16  C   UNL     1       6.752   4.836  15.845  0.00  0.00    +0.000 A 
ATOM     17  N   UNL     1       7.479   4.570  16.908  0.00  0.00    +0.000 NA
ATOM     18  N   UNL     1       6.683   4.847  18.001  0.00  0.00    +0.000 NA
ATOM     19  C   UNL     1       5.521   5.251  17.529  0.00  0.00    +0.000 A 
ATOM     20  O   UNL     1       5.492   5.275  16.155  0.00  0.00    +0.000 OA
ENDBRANCH   9  19
ENDBRANCH   1  13
BRANCH   6  21
ATOM     21  C   UNL     1      -0.182  11.631  21.823  0.00  0.00    +0.000 C 
ATOM     22  C   UNL     1       0.618  12.615  20.951  0.00  0.00    +0.000 C 
BRANCH  21  23
ATOM     23  C   UNL     1      -1.169  12.437  22.675  0.00  0.00    +0.000 A 
ATOM     24  C   UNL     1      -0.969  13.800  22.954  0.00  0.00    +0.000 A 
ATOM     25  C   UNL     1      -1.876  14.516  23.740  0.00  0.00    +0.000 A 
ATOM     26  C   UNL     1      -3.010  13.883  24.250  0.00  0.00    +0.000 A 
ATOM     27  C   UNL     1      -3.220  12.540  23.968  0.00  0.00    +0.000 A 
ATOM     28  F   UNL     1      -4.316  11.930  24.444  0.00  0.00    +0.000 F 
ATOM     29  C   UNL     1      -2.318  11.814  23.195  0.00  0.00    +0.000 A 
ENDBRANCH  21  23
ENDBRANCH   6  21
TORSDOF 4
ENDMDL
MODEL 7
REMARK VINA RESULT:      -7.6      3.222      4.013
REMARK  Name = 
REMARK  6 active torsions:
REMARK  status: ('A' for Active; 'I' for Inactive)
REMARK    1  A    between atoms: C_1  and  C_2
REMARK    2  A    between atoms: C_5  and  C_6
REMARK    3  A    between atoms: C_10  and  C_11
REMARK    4  A    between atoms: N_16  and  C_17
REMARK    5  A    between atoms: C_17  and  C_18
REMARK    6  A    between atoms: C_17  and  C_19
REMARK                            x       y       z     vdW  Elec       q    Type
REMARK                         _______ _______ _______ _____ _____    ______ ____
ROOT
ATOM      1  C   UNL     1       1.142   7.943  20.740  0.00  0.00    +0.000 C 
ATOM      2  O   UNL     1       0.476   7.758  21.759  0.00  0.00    +0.000 OA
ATOM      3  N   UNL     1       1.877   6.928  20.126  0.00  0.00    +0.000 N 
ATOM      4  C   UNL     1       2.691   7.045  18.906  0.00  0.00    +0.000 C 
ATOM      5  C   UNL     1       2.485   5.865  17.943  0.00  0.00    +0.000 C 
ATOM      6  N   UNL     1       2.663   4.530  18.556  0.00  0.00    +0.000 NA
ATOM      7  C   UNL     1       1.728   4.470  19.713  0.00  0.00    +0.000 C 
ATOM      8  C   UNL     1       1.902   5.600  20.754  0.00  0.00    +0.000 C 
ENDROOT
BRANCH   1  13
ATOM      9  C   UNL     1       0.966  11.725  20.307  0.00  0.00    +0.000 A 
ATOM     10  C   UNL     1       1.185  11.814  18.924  0.00  0.00    +0.000 A 
ATOM     11  C   UNL     1       1.297  10.663  18.141  0.00  0.00    +0.000 A 
ATOM     12  C   UNL     1       1.249   9.406  18.744  0.00  0.00    +0.000 A 
ATOM     13  C   UNL     1       1.077   9.300  20.130  0.00  0.00    +0.000 A 
ATOM     14  C   UNL     1       0.858  10.455  20.890  0.00  0.00    +0.000 A 
BRANCH   9  19
ATOM     15  C   UNL     1      -1.078  15.041  23.137  0.00  0.00    +0.000 C 
ATOM     16  C   UNL     1       0.004  14.392  22.378  0.00  0.00    +0.000 A 
ATOM     17  N   UNL     1       1.275  14.715  22.289  0.00  0.00    +0.000 NA
ATOM     18  N   UNL     1       1.860  13.768  21.473  0.00  0.00    +0.000 NA
ATOM     19  C   UNL     1       0.901  12.940  21.109  0.00  0.00    +0.000 A 
ATOM     20  O   UNL     1      -0.315  13.274  21.655  0.00  0.00    +0.000 OA
ENDBRANCH   9  19
ENDBRANCH   1  13
BRANCH   6  21
ATOM     21  C   UNL     1       4.074   4.243  18.926  0.00  0.00    +0.000 C 
ATOM     22  C   UNL     1       4.246   2.783  19.384  0.00  0.00    +0.000 C 
BRANCH  21  23
ATOM     23  C   UNL     1       5.065   4.509  17.788  0.00  0.00    +0.000 A 
ATOM     24  C   UNL     1       5.047   3.762  16.597  0.00  0.00    +0.000 A 
ATOM     25  C   UNL     1       5.966   4.014  15.575  0.00  0.00    +0.000 A 
ATOM     26  C   UNL     1       6.911   5.030  15.718  0.00  0.00    +0.000 A 
ATOM     27  C   UNL     1       6.926   5.780  16.886  0.00  0.00    +0.000 A 
ATOM     28  F   UNL     1       7.824   6.768  17.025  0.00  0.00    +0.000 F 
ATOM     29  C   UNL     1       6.023   5.531  17.917  0.00  0.00    +0.000 A 
ENDBRANCH  21  23
ENDBRANCH   6  21
TORSDOF 4
ENDMDL
MODEL 8
REMARK VINA RESULT:      -7.6      3.011      4.261
REMARK  Name = 
REMARK  6 active torsions:
REMARK  status: ('A' for Active; 'I' for Inactive)
REMARK    1  A    between atoms: C_1  and  C_2
REMARK    2  A    between atoms: C_5  and  C_6
REMARK    3  A    between atoms: C_10  and  C_11
REMARK    4  A    between atoms: N_16  and  C_17
REMARK    5  A    between atoms: C_17  and  C_18
REMARK    6  A    between atoms: C_17  and  C_19
REMARK                            x       y       z     vdW  Elec       q    Type
REMARK                         _______ _______ _______ _____ _____    ______ ____
ROOT
ATOM      1  C   UNL     1       0.858   8.197  20.811  0.00  0.00    +0.000 C 
ATOM      2  O   UNL     1       0.166   7.948  21.797  0.00  0.00    +0.000 OA
ATOM      3  N   UNL     1       1.674   7.240  20.202  0.00  0.00    +0.000 N 
ATOM      4  C   UNL     1       2.526   7.435  19.019  0.00  0.00    +0.000 C 
ATOM      5  C   UNL     1       2.425   6.271  18.020  0.00  0.00    +0.000 C 
ATOM      6  N   UNL     1       2.655   4.933  18.608  0.00  0.00    +0.000 NA
ATOM      7  C   UNL     1       1.681   4.790  19.724  0.00  0.00    +0.000 C 
ATOM      8  C   UNL     1       1.750   5.900  20.798  0.00  0.00    +0.000 C 
ENDROOT
BRANCH   1  13
ATOM      9  C   UNL     1       1.159  11.960  20.295  0.00  0.00    +0.000 A 
ATOM     10  C   UNL     1       0.679  12.057  18.981  0.00  0.00    +0.000 A 
ATOM     11  C   UNL     1       0.185  10.933  18.314  0.00  0.00    +0.000 A 
ATOM     12  C   UNL     1       0.221   9.686  18.936  0.00  0.00    +0.000 A 
ATOM     13  C   UNL     1       0.740   9.563  20.231  0.00  0.00    +0.000 A 
ATOM     14  C   UNL     1       1.132  10.711  20.930  0.00  0.00    +0.000 A 
BRANCH   9  19
ATOM     15  C   UNL     1       4.093  15.738  20.840  0.00  0.00    +0.000 C 
ATOM     16  C   UNL     1       2.995  14.819  21.180  0.00  0.00    +0.000 A 
ATOM     17  N   UNL     1       2.134  14.873  22.173  0.00  0.00    +0.000 NA
ATOM     18  N   UNL     1       1.297  13.787  22.021  0.00  0.00    +0.000 NA
ATOM     19  C   UNL     1       1.713  13.137  20.952  0.00  0.00    +0.000 A 
ATOM     20  O   UNL     1       2.794  13.743  20.358  0.00  0.00    +0.000 OA
ENDBRANCH   9  19
ENDBRANCH   1  13
BRANCH   6  21
ATOM     21  C   UNL     1       4.065   4.716  19.027  0.00  0.00    +0.000 C 
ATOM     22  C   UNL     1       4.253   3.321  19.652  0.00  0.00    +0.000 C 
BRANCH  21  23
ATOM     23  C   UNL     1       5.069   4.867  17.879  0.00  0.00    +0.000 A 
ATOM     24  C   UNL     1       5.048   4.020  16.758  0.00  0.00    +0.000 A 
ATOM     25  C   UNL     1       5.978   4.169  15.725  0.00  0.00    +0.000 A 
ATOM     26  C   UNL     1       6.938   5.179  15.789  0.00  0.00    +0.000 A 
ATOM     27  C   UNL     1       6.956   6.027  16.887  0.00  0.00    +0.000 A 
ATOM     28  F   UNL     1       7.868   7.010  16.948  0.00  0.00    +0.000 F 
ATOM     29  C   UNL     1       6.041   5.882  17.927  0.00  0.00    +0.000 A 
ENDBRANCH  21  23
ENDBRANCH   6  21
TORSDOF 4
ENDMDL
MODEL 9
REMARK VINA RESULT:      -7.6      2.869      4.166
REMARK  Name = 
REMARK  6 active torsions:
REMARK  status: ('A' for Active; 'I' for Inactive)
REMARK    1  A    between atoms: C_1  and  C_2
REMARK    2  A    between atoms: C_5  and  C_6
REMARK    3  A    between atoms: C_10  and  C_11
REMARK    4  A    between atoms: N_16  and  C_17
REMARK    5  A    between atoms: C_17  and  C_18
REMARK    6  A    between atoms: C_17  and  C_19
REMARK                            x       y       z     vdW  Elec       q    Type
REMARK                         _______ _______ _______ _____ _____    ______ ____
ROOT
ATOM      1  C   UNL     1       0.830   8.221  20.802  0.00  0.00    +0.000 C 
ATOM      2  O   UNL     1       0.114   7.935  21.761  0.00  0.00    +0.000 OA
ATOM      3  N   UNL     1       1.674   7.292  20.189  0.00  0.00    +0.000 N 
ATOM      4  C   UNL     1       2.556   7.531  19.036  0.00  0.00    +0.000 C 
ATOM      5  C   UNL     1       2.497   6.397  18.002  0.00  0.00    +0.000 C 
ATOM      6  N   UNL     1       2.727   5.044  18.556  0.00  0.00    +0.000 NA
ATOM      7  C   UNL     1       1.725   4.857  19.640  0.00  0.00    +0.000 C 
ATOM      8  C   UNL     1       1.750   5.936  20.748  0.00  0.00    +0.000 C 
ENDROOT
BRANCH   1  13
ATOM      9  C   UNL     1       1.161  11.992  20.370  0.00  0.00    +0.000 A 
ATOM     10  C   UNL     1       0.643  12.127  19.072  0.00  0.00    +0.000 A 
ATOM     11  C   UNL     1       0.116  11.025  18.394  0.00  0.00    +0.000 A 
ATOM     12  C   UNL     1       0.156   9.763  18.985  0.00  0.00    +0.000 A 
ATOM     13  C   UNL     1       0.712   9.602  20.259  0.00  0.00    +0.000 A 
ATOM     14  C   UNL     1       1.137  10.728  20.975  0.00  0.00    +0.000 A 
BRANCH   9  19
ATOM     15  C   UNL     1       4.416  15.451  21.157  0.00  0.00    +0.000 C 
ATOM     16  C   UNL     1       3.175  14.688  21.371  0.00  0.00    +0.000 A 
ATOM     17  N   UNL     1       2.188  14.912  22.210  0.00  0.00    +0.000 NA
ATOM     18  N   UNL     1       1.258  13.916  21.988  0.00  0.00    +0.000 NA
ATOM     19  C   UNL     1       1.748  13.146  21.037  0.00  0.00    +0.000 A 
ATOM     20  O   UNL     1       2.972  13.582  20.589  0.00  0.00    +0.000 OA
ENDBRANCH   9  19
ENDBRANCH   1  13
BRANCH   6  21
ATOM     21  C   UNL     1       4.127   4.831  19.008  0.00  0.00    +0.000 C 
ATOM     22  C   UNL     1       4.307   3.433  19.630  0.00  0.00    +0.000 C 
BRANCH  21  23
ATOM     23  C   UNL     1       5.158   4.994  17.886  0.00  0.00    +0.000 A 
ATOM     24  C   UNL     1       6.128   6.011  17.910  0.00  0.00    +0.000 A 
ATOM     25  C   UNL     1       7.054   6.149  16.873  0.00  0.00    +0.000 A 
ATOM     26  C   UNL     1       7.036   5.260  15.798  0.00  0.00    +0.000 A 
ATOM     27  C   UNL     1       6.089   4.246  15.774  0.00  0.00    +0.000 A 
ATOM     28  F   UNL     1       6.076   3.380  14.749  0.00  0.00    +0.000 F 
ATOM     29  C   UNL     1       5.155   4.106  16.796  0.00  0.00    +0.000 A 
ENDBRANCH  21  23
ENDBRANCH   6  21
TORSDOF 4
ENDMDL
