MODEL 1
REMARK VINA RESULT:      -8.0      0.000      0.000
REMARK  Name = 
REMARK  2 active torsions:
REMARK  status: ('A' for Active; 'I' for Inactive)
REMARK    1  A    between atoms: C_2  and  C_3
REMARK    2  A    between atoms: C_17  and  C_18
REMARK                            x       y       z     vdW  Elec       q    Type
REMARK                         _______ _______ _______ _____ _____    ______ ____
ROOT
ATOM      1  O   UNL     1      -0.374   8.121  21.618  0.00  0.00    +0.000 OA
ATOM      2  C   UNL     1       0.118   9.082  21.020  0.00  0.00    +0.000 C 
ATOM      3  N   UNL     1       1.233   8.923  20.191  0.00  0.00    +0.000 N 
ATOM      4  C   UNL     1       1.718   9.897  19.214  0.00  0.00    +0.000 C 
ATOM      5  C   UNL     1       1.775   9.300  17.817  0.00  0.00    +0.000 C 
ATOM      6  C   UNL     1       2.600   8.026  17.796  0.00  0.00    +0.000 C 
ATOM      7  C   UNL     1       2.102   7.011  18.845  0.00  0.00    +0.000 C 
ATOM      8  C   UNL     1       1.995   7.670  20.234  0.00  0.00    +0.000 C 
ENDROOT
BRANCH   2   9
ATOM      9  C   UNL     1      -0.492  10.396  21.141  0.00  0.00    +0.000 A 
ATOM     10  C   UNL     1      -1.191  11.187  20.243  0.00  0.00    +0.000 A 
ATOM     11  C   UNL     1      -1.710  12.310  20.931  0.00  0.00    +0.000 A 
ATOM     12  C   UNL     1      -2.594  13.343  20.573  0.00  0.00    +0.000 A 
ATOM     13  C   UNL     1      -2.852  14.354  21.499  0.00  0.00    +0.000 A 
ATOM     14 BR   UNL     1      -4.027  15.758  21.024  0.00  0.00    +0.000 Br
ATOM     15  C   UNL     1      -2.250  14.350  22.756  0.00  0.00    +0.000 A 
ATOM     16  C   UNL     1      -1.391  13.311  23.140  0.00  0.00    +0.000 A 
ATOM     17  C   UNL     1      -1.152  12.296  22.207  0.00  0.00    +0.000 A 
ATOM     18  N   UNL     1      -0.387  11.153  22.293  0.00  0.00    +0.000 N 
ATOM     19  H   UNL     1       0.141  10.863  23.107  0.00  0.00    +0.000 HD
ENDBRANCH   2   9
BRANCH   7  20
ATOM     20  C   UNL     1       3.023   5.831  18.880  0.00  0.00    +0.000 A 
ATOM     21  N   UNL     1       4.337   5.875  19.000  0.00  0.00    +0.000 NA
ATOM     22  N   UNL     1       4.824   4.594  18.983  0.00  0.00    +0.000 NA
ATOM     23  C   UNL     1       3.799   3.781  18.865  0.00  0.00    +0.000 A 
ATOM     24  C   UNL     1       3.700   2.363  18.814  0.00  0.00    +0.000 A 
ATOM     25  C   UNL     1       2.487   1.789  18.690  0.00  0.00    +0.000 A 
ATOM     26  C   UNL     1       1.273   2.587  18.605  0.00  0.00    +0.000 A 
ATOM     27  C   UNL     1       1.364   3.928  18.661  0.00  0.00    +0.000 A 
ATOM     28  N   UNL     1       2.624   4.515  18.790  0.00  0.00    +0.000 N 
ENDBRANCH   7  20
TORSDOF 2
ENDMDL
MODEL 2
REMARK VINA RESULT:      -7.9      0.925      1.368
REMARK  Name = 
REMARK  2 active torsions:
REMARK  status: ('A' for Active; 'I' for Inactive)
REMARK    1  A    between atoms: C_2  and  C_3
REMARK    2  A    between atoms: C_17  and  C_18
REMARK                            x       y       z     vdW  Elec       q    Type
REMARK                         _______ _______ _______ _____ _____    ______ ____
ROOT
ATOM      1  O   UNL     1      -0.232   7.844  21.578  0.00  0.00    +0.000 OA
ATOM      2  C   UNL     1       0.193   8.900  21.101  0.00  0.00    +0.000 C 
ATOM      3  N   UNL     1       1.249   8.904  20.182  0.00  0.00    +0.000 N 
ATOM      4  C   UNL     1       1.639  10.028  19.333  0.00  0.00    +0.000 C 
ATOM      5  C   UNL     1       1.607   9.649  17.861  0.00  0.00    +0.000 C 
ATOM      6  C   UNL     1       2.457   8.420  17.590  0.00  0.00    +0.000 C 
ATOM      7  C   UNL     1       2.060   7.244  18.506  0.00  0.00    +0.000 C 
ATOM      8  C   UNL     1       2.040   7.684  19.982  0.00  0.00    +0.000 C 
ENDROOT
BRANCH   2   9
ATOM      9  C   UNL     1      -0.435  10.160  21.460  0.00  0.00    +0.000 A 
ATOM     10  C   UNL     1      -0.592  10.813  22.673  0.00  0.00    +0.000 A 
ATOM     11  C   UNL     1      -1.138  12.097  22.433  0.00  0.00    +0.000 A 
ATOM     12  C   UNL     1      -1.371  13.219  23.248  0.00  0.00    +0.000 A 
ATOM     13  C   UNL     1      -1.999  14.332  22.689  0.00  0.00    +0.000 A 
ATOM     14 BR   UNL     1      -2.331  15.843  23.779  0.00  0.00    +0.000 Br
ATOM     15  C   UNL     1      -2.392  14.342  21.352  0.00  0.00    +0.000 A 
ATOM     16  C   UNL     1      -2.139  13.244  20.519  0.00  0.00    +0.000 A 
ATOM     17  C   UNL     1      -1.496  12.139  21.088  0.00  0.00    +0.000 A 
ATOM     18  N   UNL     1      -1.100  10.941  20.533  0.00  0.00    +0.000 N 
ATOM     19  H   UNL     1      -1.221  10.678  19.564  0.00  0.00    +0.000 HD
ENDBRANCH   2   9
BRANCH   7  20
ATOM     20  C   UNL     1       3.007   6.103  18.298  0.00  0.00    +0.000 A 
ATOM     21  N   UNL     1       4.306   6.202  18.085  0.00  0.00    +0.000 NA
ATOM     22  N   UNL     1       4.824   4.942  17.935  0.00  0.00    +0.000 NA
ATOM     23  C   UNL     1       3.837   4.087  18.070  0.00  0.00    +0.000 A 
ATOM     24  C   UNL     1       3.786   2.666  18.033  0.00  0.00    +0.000 A 
ATOM     25  C   UNL     1       2.605   2.042  18.212  0.00  0.00    +0.000 A 
ATOM     26  C   UNL     1       1.376   2.789  18.442  0.00  0.00    +0.000 A 
ATOM     27  C   UNL     1       1.425   4.133  18.484  0.00  0.00    +0.000 A 
ATOM     28  N   UNL     1       2.652   4.772  18.299  0.00  0.00    +0.000 N 
ENDBRANCH   7  20
TORSDOF 2
ENDMDL
MODEL 3
REMARK VINA RESULT:      -7.9      3.661      9.271
REMARK  Name = 
REMARK  2 active torsions:
REMARK  status: ('A' for Active; 'I' for Inactive)
REMARK    1  A    between atoms: C_2  and  C_3
REMARK    2  A    between atoms: C_17  and  C_18
REMARK                            x       y       z     vdW  Elec       q    Type
REMARK                         _______ _______ _______ _____ _____    ______ ____
ROOT
ATOM      1  O   UNL     1       1.752   7.477  20.977  0.00  0.00    +0.000 OA
ATOM      2  C   UNL     1       1.790   7.896  19.817  0.00  0.00    +0.000 C 
ATOM      3  N   UNL     1       1.137   9.080  19.455  0.00  0.00    +0.000 N 
ATOM      4  C   UNL     1       1.347   9.829  18.217  0.00  0.00    +0.000 C 
ATOM      5  C   UNL     1       1.770  11.262  18.500  0.00  0.00    +0.000 C 
ATOM      6  C   UNL     1       0.777  11.957  19.415  0.00  0.00    +0.000 C 
ATOM      7  C   UNL     1       0.537  11.151  20.708  0.00  0.00    +0.000 C 
ATOM      8  C   UNL     1       0.176   9.690  20.382  0.00  0.00    +0.000 C 
ENDROOT
BRANCH   2   9
ATOM      9  C   UNL     1       2.560   7.179  18.814  0.00  0.00    +0.000 A 
ATOM     10  C   UNL     1       3.434   7.605  17.826  0.00  0.00    +0.000 A 
ATOM     11  C   UNL     1       4.039   6.471  17.233  0.00  0.00    +0.000 A 
ATOM     12  C   UNL     1       5.082   6.305  16.305  0.00  0.00    +0.000 A 
ATOM     13  C   UNL     1       5.395   5.014  15.875  0.00  0.00    +0.000 A 
ATOM     14 BR   UNL     1       6.786   4.777  14.615  0.00  0.00    +0.000 Br
ATOM     15  C   UNL     1       4.694   3.907  16.349  0.00  0.00    +0.000 A 
ATOM     16  C   UNL     1       3.673   4.054  17.298  0.00  0.00    +0.000 A 
ATOM     17  C   UNL     1       3.379   5.352  17.731  0.00  0.00    +0.000 A 
ATOM     18  N   UNL     1       2.461   5.809  18.652  0.00  0.00    +0.000 N 
ATOM     19  H   UNL     1       1.831   5.227  19.189  0.00  0.00    +0.000 HD
ENDBRANCH   2   9
BRANCH   7  20
ATOM     20  C   UNL     1      -0.542  11.804  21.515  0.00  0.00    +0.000 A 
ATOM     21  N   UNL     1      -0.458  12.154  22.785  0.00  0.00    +0.000 NA
ATOM     22  N   UNL     1      -1.650  12.712  23.168  0.00  0.00    +0.000 NA
ATOM     23  C   UNL     1      -2.445  12.707  22.122  0.00  0.00    +0.000 A 
ATOM     24  C   UNL     1      -3.776  13.169  21.927  0.00  0.00    +0.000 A 
ATOM     25  C   UNL     1      -4.352  13.032  20.716  0.00  0.00    +0.000 A 
ATOM     26  C   UNL     1      -3.644  12.419  19.602  0.00  0.00    +0.000 A 
ATOM     27  C   UNL     1      -2.383  11.988  19.784  0.00  0.00    +0.000 A 
ATOM     28  N   UNL     1      -1.793  12.134  21.040  0.00  0.00    +0.000 N 
ENDBRANCH   7  20
TORSDOF 2
ENDMDL
MODEL 4
REMARK VINA RESULT:      -7.8      3.712      9.565
REMARK  Name = 
REMARK  2 active torsions:
REMARK  status: ('A' for Active; 'I' for Inactive)
REMARK    1  A    between atoms: C_2  and  C_3
REMARK    2  A    between atoms: C_17  and  C_18
REMARK                            x       y       z     vdW  Elec       q    Type
REMARK                         _______ _______ _______ _____ _____    ______ ____
ROOT
ATOM      1  O   UNL     1       0.533  10.996  18.657  0.00  0.00    +0.000 OA
ATOM      2  C   UNL     1       0.989  10.177  19.459  0.00  0.00    +0.000 C 
ATOM      3  N   UNL     1       0.798  10.332  20.837  0.00  0.00    +0.000 N 
ATOM      4  C   UNL     1       1.019   9.304  21.852  0.00  0.00    +0.000 C 
ATOM      5  C   UNL     1      -0.240   9.044  22.663  0.00  0.00    +0.000 C 
ATOM      6  C   UNL     1      -0.778  10.327  23.271  0.00  0.00    +0.000 C 
ATOM      7  C   UNL     1      -0.986  11.418  22.201  0.00  0.00    +0.000 C 
ATOM      8  C   UNL     1       0.290  11.607  21.359  0.00  0.00    +0.000 C 
ENDROOT
BRANCH   2   9
ATOM      9  C   UNL     1       1.701   9.007  18.971  0.00  0.00    +0.000 A 
ATOM     10  C   UNL     1       2.403   8.761  17.802  0.00  0.00    +0.000 A 
ATOM     11  C   UNL     1       3.042   7.503  17.910  0.00  0.00    +0.000 A 
ATOM     12  C   UNL     1       3.978   6.820  17.113  0.00  0.00    +0.000 A 
ATOM     13  C   UNL     1       4.362   5.533  17.488  0.00  0.00    +0.000 A 
ATOM     14 BR   UNL     1       5.609   4.597  16.416  0.00  0.00    +0.000 Br
ATOM     15  C   UNL     1       3.836   4.926  18.627  0.00  0.00    +0.000 A 
ATOM     16  C   UNL     1       2.926   5.606  19.449  0.00  0.00    +0.000 A 
ATOM     17  C   UNL     1       2.559   6.902  19.069  0.00  0.00    +0.000 A 
ATOM     18  N   UNL     1       1.718   7.814  19.669  0.00  0.00    +0.000 N 
ATOM     19  H   UNL     1       1.218   7.665  20.537  0.00  0.00    +0.000 HD
ENDBRANCH   2   9
BRANCH   7  20
ATOM     20  C   UNL     1      -1.387  12.701  22.862  0.00  0.00    +0.000 A 
ATOM     21  N   UNL     1      -0.570  13.579  23.412  0.00  0.00    +0.000 NA
ATOM     22  N   UNL     1      -1.312  14.614  23.918  0.00  0.00    +0.000 NA
ATOM     23  C   UNL     1      -2.575  14.362  23.660  0.00  0.00    +0.000 A 
ATOM     24  C   UNL     1      -3.771  15.082  23.927  0.00  0.00    +0.000 A 
ATOM     25  C   UNL     1      -4.953  14.569  23.532  0.00  0.00    +0.000 A 
ATOM     26  C   UNL     1      -5.036  13.291  22.840  0.00  0.00    +0.000 A 
ATOM     27  C   UNL     1      -3.904  12.612  22.581  0.00  0.00    +0.000 A 
ATOM     28  N   UNL     1      -2.683  13.150  22.991  0.00  0.00    +0.000 N 
ENDBRANCH   7  20
TORSDOF 2
ENDMDL
MODEL 5
REMARK VINA RESULT:      -7.8      3.459      9.699
REMARK  Name = 
REMARK  2 active torsions:
REMARK  status: ('A' for Active; 'I' for Inactive)
REMARK    1  A    between atoms: C_2  and  C_3
REMARK    2  A    between atoms: C_17  and  C_18
REMARK                            x       y       z     vdW  Elec       q    Type
REMARK                         _______ _______ _______ _____ _____    ______ ____
ROOT
ATOM      1  O   UNL     1       1.539   9.237  22.664  0.00  0.00    +0.000 OA
ATOM      2  C   UNL     1       1.003   9.087  21.563  0.00  0.00    +0.000 C 
ATOM      3  N   UNL     1      -0.182   9.757  21.239  0.00  0.00    +0.000 N 
ATOM      4  C   UNL     1      -0.744   9.899  19.897  0.00  0.00    +0.000 C 
ATOM      5  C   UNL     1      -0.927  11.361  19.524  0.00  0.00    +0.000 C 
ATOM      6  C   UNL     1      -1.759  12.094  20.562  0.00  0.00    +0.000 C 
ATOM      7  C   UNL     1      -1.178  11.920  21.979  0.00  0.00    +0.000 C 
ATOM      8  C   UNL     1      -0.946  10.431  22.296  0.00  0.00    +0.000 C 
ENDROOT
BRANCH   2   9
ATOM      9  C   UNL     1       1.630   8.236  20.565  0.00  0.00    +0.000 A 
ATOM     10  C   UNL     1       2.086   8.484  19.280  0.00  0.00    +0.000 A 
ATOM     11  C   UNL     1       2.765   7.335  18.807  0.00  0.00    +0.000 A 
ATOM     12  C   UNL     1       3.536   7.068  17.663  0.00  0.00    +0.000 A 
ATOM     13  C   UNL     1       4.022   5.774  17.470  0.00  0.00    +0.000 A 
ATOM     14 BR   UNL     1       5.048   5.397  15.926  0.00  0.00    +0.000 Br
ATOM     15  C   UNL     1       3.753   4.760  18.388  0.00  0.00    +0.000 A 
ATOM     16  C   UNL     1       3.012   5.018  19.549  0.00  0.00    +0.000 A 
ATOM     17  C   UNL     1       2.543   6.323  19.737  0.00  0.00    +0.000 A 
ATOM     18  N   UNL     1       1.819   6.881  20.768  0.00  0.00    +0.000 N 
ATOM     19  H   UNL     1       1.509   6.391  21.597  0.00  0.00    +0.000 HD
ENDBRANCH   2   9
BRANCH   7  20
ATOM     20  C   UNL     1      -2.100  12.544  22.981  0.00  0.00    +0.000 A 
ATOM     21  N   UNL     1      -3.220  12.016  23.439  0.00  0.00    +0.000 NA
ATOM     22  N   UNL     1      -3.786  12.890  24.331  0.00  0.00    +0.000 NA
ATOM     23  C   UNL     1      -2.997  13.937  24.417  0.00  0.00    +0.000 A 
ATOM     24  C   UNL     1      -3.066  15.129  25.188  0.00  0.00    +0.000 A 
ATOM     25  C   UNL     1      -2.088  16.049  25.072  0.00  0.00    +0.000 A 
ATOM     26  C   UNL     1      -0.962  15.853  24.171  0.00  0.00    +0.000 A 
ATOM     27  C   UNL     1      -0.892  14.722  23.446  0.00  0.00    +0.000 A 
ATOM     28  N   UNL     1      -1.908  13.773  23.573  0.00  0.00    +0.000 N 
ENDBRANCH   7  20
TORSDOF 2
ENDMDL
MODEL 6
REMARK VINA RESULT:      -7.7      2.242      3.381
REMARK  Name = 
REMARK  2 active torsions:
REMARK  status: ('A' for Active; 'I' for Inactive)
REMARK    1  A    between atoms: C_2  and  C_3
REMARK    2  A    between atoms: C_17  and  C_18
REMARK                            x       y       z     vdW  Elec       q    Type
REMARK                         _______ _______ _______ _____ _____    ______ ____
ROOT
ATOM      1  O   UNL     1       0.159  10.322  23.036  0.00  0.00    +0.000 OA
ATOM      2  C   UNL     1      -0.362  11.174  22.310  0.00  0.00    +0.000 C 
ATOM      3  N   UNL     1      -0.119  11.194  20.931  0.00  0.00    +0.000 N 
ATOM      4  C   UNL     1      -0.889  11.941  19.939  0.00  0.00    +0.000 C 
ATOM      5  C   UNL     1      -1.456  11.021  18.869  0.00  0.00    +0.000 C 
ATOM      6  C   UNL     1      -0.361  10.190  18.222  0.00  0.00    +0.000 C 
ATOM      7  C   UNL     1       0.465   9.424  19.274  0.00  0.00    +0.000 C 
ATOM      8  C   UNL     1       0.966  10.378  20.375  0.00  0.00    +0.000 C 
ENDROOT
BRANCH   2   9
ATOM      9  C   UNL     1      -1.279  12.147  22.880  0.00  0.00    +0.000 A 
ATOM     10  C   UNL     1      -1.101  13.448  23.325  0.00  0.00    +0.000 A 
ATOM     11  C   UNL     1      -2.367  14.001  23.634  0.00  0.00    +0.000 A 
ATOM     12  C   UNL     1      -2.802  15.292  23.980  0.00  0.00    +0.000 A 
ATOM     13  C   UNL     1      -4.149  15.484  24.290  0.00  0.00    +0.000 A 
ATOM     14 BR   UNL     1      -4.744  17.214  24.772  0.00  0.00    +0.000 Br
ATOM     15  C   UNL     1      -5.053  14.424  24.259  0.00  0.00    +0.000 A 
ATOM     16  C   UNL     1      -4.642  13.138  23.885  0.00  0.00    +0.000 A 
ATOM     17  C   UNL     1      -3.291  12.962  23.564  0.00  0.00    +0.000 A 
ATOM     18  N   UNL     1      -2.601  11.844  23.148  0.00  0.00    +0.000 N 
ATOM     19  H   UNL     1      -3.006  10.928  22.999  0.00  0.00    +0.000 HD
ENDBRANCH   2   9
BRANCH   7  20
ATOM     20  C   UNL     1       1.610   8.727  18.606  0.00  0.00    +0.000 A 
ATOM     21  N   UNL     1       2.239   9.137  17.520  0.00  0.00    +0.000 NA
ATOM     22  N   UNL     1       3.220   8.230  17.212  0.00  0.00    +0.000 NA
ATOM     23  C   UNL     1       3.186   7.283  18.121  0.00  0.00    +0.000 A 
ATOM     24  C   UNL     1       3.969   6.113  18.317  0.00  0.00    +0.000 A 
ATOM     25  C   UNL     1       3.703   5.307  19.364  0.00  0.00    +0.000 A 
ATOM     26  C   UNL     1       2.629   5.605  20.300  0.00  0.00    +0.000 A 
ATOM     27  C   UNL     1       1.892   6.715  20.119  0.00  0.00    +0.000 A 
ATOM     28  N   UNL     1       2.174   7.546  19.033  0.00  0.00    +0.000 N 
ENDBRANCH   7  20
TORSDOF 2
ENDMDL
MODEL 7
REMARK VINA RESULT:      -7.5      3.491      9.459
REMARK  Name = 
REMARK  2 active torsions:
REMARK  status: ('A' for Active; 'I' for Inactive)
REMARK    1  A    between atoms: C_2  and  C_3
REMARK    2  A    between atoms: C_17  and  C_18
REMARK                            x       y       z     vdW  Elec       q    Type
REMARK                         _______ _______ _______ _____ _____    ______ ____
ROOT
ATOM      1  O   UNL     1       1.709   9.285  22.824  0.00  0.00    +0.000 OA
ATOM      2  C   UNL     1       1.129   9.116  21.748  0.00  0.00    +0.000 C 
ATOM      3  N   UNL     1       0.073   9.948  21.358  0.00  0.00    +0.000 N 
ATOM      4  C   UNL     1      -0.487  10.044  20.012  0.00  0.00    +0.000 C 
ATOM      5  C   UNL     1      -0.417  11.467  19.481  0.00  0.00    +0.000 C 
ATOM      6  C   UNL     1      -1.081  12.443  20.437  0.00  0.00    +0.000 C 
ATOM      7  C   UNL     1      -0.506  12.321  21.862  0.00  0.00    +0.000 C 
ATOM      8  C   UNL     1      -0.534  10.857  22.339  0.00  0.00    +0.000 C 
ENDROOT
BRANCH   2   9
ATOM      9  C   UNL     1       1.571   8.065  20.847  0.00  0.00    +0.000 A 
ATOM     10  C   UNL     1       2.082   8.093  19.559  0.00  0.00    +0.000 A 
ATOM     11  C   UNL     1       2.507   6.789  19.208  0.00  0.00    +0.000 A 
ATOM     12  C   UNL     1       3.215   6.263  18.114  0.00  0.00    +0.000 A 
ATOM     13  C   UNL     1       3.417   4.884  18.048  0.00  0.00    +0.000 A 
ATOM     14 BR   UNL     1       4.356   4.161  16.573  0.00  0.00    +0.000 Br
ATOM     15  C   UNL     1       2.929   4.037  19.042  0.00  0.00    +0.000 A 
ATOM     16  C   UNL     1       2.249   4.549  20.154  0.00  0.00    +0.000 A 
ATOM     17  C   UNL     1       2.066   5.936  20.215  0.00  0.00    +0.000 A 
ATOM     18  N   UNL     1       1.465   6.725  21.172  0.00  0.00    +0.000 N 
ATOM     19  H   UNL     1       1.050   6.389  22.031  0.00  0.00    +0.000 HD
ENDBRANCH   2   9
BRANCH   7  20
ATOM     20  C   UNL     1      -1.278  13.203  22.794  0.00  0.00    +0.000 A 
ATOM     21  N   UNL     1      -0.764  14.021  23.693  0.00  0.00    +0.000 NA
ATOM     22  N   UNL     1      -1.788  14.648  24.355  0.00  0.00    +0.000 NA
ATOM     23  C   UNL     1      -2.916  14.215  23.842  0.00  0.00    +0.000 A 
ATOM     24  C   UNL     1      -4.276  14.526  24.117  0.00  0.00    +0.000 A 
ATOM     25  C   UNL     1      -5.249  13.914  23.413  0.00  0.00    +0.000 A 
ATOM     26  C   UNL     1      -4.941  12.938  22.378  0.00  0.00    +0.000 A 
ATOM     27  C   UNL     1      -3.655  12.648  22.113  0.00  0.00    +0.000 A 
ATOM     28  N   UNL     1      -2.653  13.287  22.845  0.00  0.00    +0.000 N 
ENDBRANCH   7  20
TORSDOF 2
ENDMDL
MODEL 8
REMARK VINA RESULT:      -7.5      1.217      1.580
REMARK  Name = 
REMARK  2 active torsions:
REMARK  status: ('A' for Active; 'I' for Inactive)
REMARK    1  A    between atoms: C_2  and  C_3
REMARK    2  A    between atoms: C_17  and  C_18
REMARK                            x       y       z     vdW  Elec       q    Type
REMARK                         _______ _______ _______ _____ _____    ______ ____
ROOT
ATOM      1  O   UNL     1      -0.496   8.179  21.910  0.00  0.00    +0.000 OA
ATOM      2  C   UNL     1      -0.067   9.214  21.393  0.00  0.00    +0.000 C 
ATOM      3  N   UNL     1       1.009   9.182  20.498  0.00  0.00    +0.000 N 
ATOM      4  C   UNL     1       1.411  10.267  19.605  0.00  0.00    +0.000 C 
ATOM      5  C   UNL     1       1.414   9.819  18.153  0.00  0.00    +0.000 C 
ATOM      6  C   UNL     1       2.277   8.585  17.960  0.00  0.00    +0.000 C 
ATOM      7  C   UNL     1       1.866   7.451  18.921  0.00  0.00    +0.000 C 
ATOM      8  C   UNL     1       1.812   7.959  20.373  0.00  0.00    +0.000 C 
ENDROOT
BRANCH   2   9
ATOM      9  C   UNL     1      -0.711  10.486  21.679  0.00  0.00    +0.000 A 
ATOM     10  C   UNL     1      -0.926  11.179  22.859  0.00  0.00    +0.000 A 
ATOM     11  C   UNL     1      -1.458  12.454  22.550  0.00  0.00    +0.000 A 
ATOM     12  C   UNL     1      -1.728  13.602  23.314  0.00  0.00    +0.000 A 
ATOM     13  C   UNL     1      -2.326  14.696  22.688  0.00  0.00    +0.000 A 
ATOM     14 BR   UNL     1      -2.710  16.243  23.709  0.00  0.00    +0.000 Br
ATOM     15  C   UNL     1      -2.653  14.661  21.334  0.00  0.00    +0.000 A 
ATOM     16  C   UNL     1      -2.361  13.536  20.552  0.00  0.00    +0.000 A 
ATOM     17  C   UNL     1      -1.748  12.451  21.188  0.00  0.00    +0.000 A 
ATOM     18  N   UNL     1      -1.327  11.235  20.694  0.00  0.00    +0.000 N 
ATOM     19  H   UNL     1      -1.400  10.939  19.729  0.00  0.00    +0.000 HD
ENDBRANCH   2   9
BRANCH   7  20
ATOM     20  C   UNL     1       2.825   6.307  18.788  0.00  0.00    +0.000 A 
ATOM     21  N   UNL     1       3.871   6.261  17.984  0.00  0.00    +0.000 NA
ATOM     22  N   UNL     1       4.494   5.050  18.142  0.00  0.00    +0.000 NA
ATOM     23  C   UNL     1       3.827   4.375  19.050  0.00  0.00    +0.000 A 
ATOM     24  C   UNL     1       4.020   3.089  19.623  0.00  0.00    +0.000 A 
ATOM     25  C   UNL     1       3.159   2.646  20.560  0.00  0.00    +0.000 A 
ATOM     26  C   UNL     1       2.031   3.455  21.000  0.00  0.00    +0.000 A 
ATOM     27  C   UNL     1       1.851   4.675  20.463  0.00  0.00    +0.000 A 
ATOM     28  N   UNL     1       2.748   5.127  19.494  0.00  0.00    +0.000 N 
ENDBRANCH   7  20
TORSDOF 2
ENDMDL
MODEL 9
REMARK VINA RESULT:      -7.4      3.600      9.634
REMARK  Name = 
REMARK  2 active torsions:
REMARK  status: ('A' for Active; 'I' for Inactive)
REMARK    1  A    between atoms: C_2  and  C_3
REMARK    2  A    between atoms: C_17  and  C_18
REMARK                            x       y       z     vdW  Elec       q    Type
REMARK                         _______ _______ _______ _____ _____    ______ ____
ROOT
ATOM      1  O   UNL     1       1.043  10.007  18.546  0.00  0.00    +0.000 OA
ATOM      2  C   UNL     1       1.331   9.288  19.507  0.00  0.00    +0.000 C 
ATOM      3  N   UNL     1       1.071   9.700  20.820  0.00  0.00    +0.000 N 
ATOM      4  C   UNL     1       1.084   8.843  22.003  0.00  0.00    +0.000 C 
ATOM      5  C   UNL     1      -0.250   8.882  22.731  0.00  0.00    +0.000 C 
ATOM      6  C   UNL     1      -0.648  10.306  23.075  0.00  0.00    +0.000 C 
ATOM      7  C   UNL     1      -0.635  11.214  21.828  0.00  0.00    +0.000 C 
ATOM      8  C   UNL     1       0.707  11.098  21.082  0.00  0.00    +0.000 C 
ENDROOT
BRANCH   2   9
ATOM      9  C   UNL     1       1.908   7.974  19.280  0.00  0.00    +0.000 A 
ATOM     10  C   UNL     1       1.749   6.759  19.929  0.00  0.00    +0.000 A 
ATOM     11  C   UNL     1       2.421   5.756  19.190  0.00  0.00    +0.000 A 
ATOM     12  C   UNL     1       2.480   4.355  19.289  0.00  0.00    +0.000 A 
ATOM     13  C   UNL     1       3.312   3.657  18.414  0.00  0.00    +0.000 A 
ATOM     14 BR   UNL     1       3.411   1.772  18.546  0.00  0.00    +0.000 Br
ATOM     15  C   UNL     1       4.074   4.325  17.457  0.00  0.00    +0.000 A 
ATOM     16  C   UNL     1       4.003   5.718  17.325  0.00  0.00    +0.000 A 
ATOM     17  C   UNL     1       3.154   6.406  18.200  0.00  0.00    +0.000 A 
ATOM     18  N   UNL     1       2.860   7.748  18.303  0.00  0.00    +0.000 N 
ATOM     19  H   UNL     1       3.238   8.477  17.711  0.00  0.00    +0.000 HD
ENDBRANCH   2   9
BRANCH   7  20
ATOM     20  C   UNL     1      -0.902  12.631  22.235  0.00  0.00    +0.000 A 
ATOM     21  N   UNL     1       0.010  13.558  22.461  0.00  0.00    +0.000 NA
ATOM     22  N   UNL     1      -0.623  14.720  22.819  0.00  0.00    +0.000 NA
ATOM     23  C   UNL     1      -1.916  14.492  22.796  0.00  0.00    +0.000 A 
ATOM     24  C   UNL     1      -3.041  15.321  23.054  0.00  0.00    +0.000 A 
ATOM     25  C   UNL     1      -4.282  14.805  22.947  0.00  0.00    +0.000 A 
ATOM     26  C   UNL     1      -4.498  13.415  22.574  0.00  0.00    +0.000 A 
ATOM     27  C   UNL     1      -3.434  12.631  22.322  0.00  0.00    +0.000 A 
ATOM     28  N   UNL     1      -2.152  13.173  22.434  0.00  0.00    +0.000 N 
ENDBRANCH   7  20
TORSDOF 2
ENDMDL
