MODEL 1
REMARK VINA RESULT:      -9.0      0.000      0.000
REMARK  Name = 
REMARK  4 active torsions:
REMARK  status: ('A' for Active; 'I' for Inactive)
REMARK    1  A    between atoms: C_1  and  C_2
REMARK    2  A    between atoms: C_4  and  C_5
REMARK    3  A    between atoms: N_15  and  C_16
REMARK    4  A    between atoms: C_16  and  C_17
REMARK                            x       y       z     vdW  Elec       q    Type
REMARK                         _______ _______ _______ _____ _____    ______ ____
ROOT
ATOM      1  C   UNL     1       7.071   5.351  14.909  0.00  0.00    +0.000 C 
ATOM      2  C   UNL     1       5.939   5.149  15.833  0.00  0.00    +0.000 A 
ATOM      3  N   UNL     1       5.377   6.187  16.512  0.00  0.00    +0.000 NA
ATOM      4  C   UNL     1       4.344   5.652  17.143  0.00  0.00    +0.000 A 
ATOM      5  N   UNL     1       4.344   4.296  16.878  0.00  0.00    +0.000 N 
ATOM      6  N   UNL     1       5.387   3.957  16.077  0.00  0.00    +0.000 NA
ENDROOT
BRANCH   4   7
ATOM      7  C   UNL     1       3.409   6.428  17.960  0.00  0.00    +0.000 A 
ATOM      8  C   UNL     1       3.110   5.991  19.261  0.00  0.00    +0.000 A 
ATOM      9  C   UNL     1       2.321   6.758  20.121  0.00  0.00    +0.000 A 
ATOM     10  C   UNL     1       1.813   7.996  19.702  0.00  0.00    +0.000 A 
ATOM     11  C   UNL     1       1.068   8.824  20.556  0.00  0.00    +0.000 A 
ATOM     12  C   UNL     1       0.599  10.064  20.115  0.00  0.00    +0.000 A 
ATOM     13  C   UNL     1       0.856  10.487  18.814  0.00  0.00    +0.000 A 
ATOM     14  C   UNL     1       1.595   9.677  17.955  0.00  0.00    +0.000 A 
ATOM     15  C   UNL     1       2.087   8.440  18.392  0.00  0.00    +0.000 A 
ATOM     16  C   UNL     1       2.882   7.655  17.547  0.00  0.00    +0.000 A 
ENDBRANCH   4   7
BRANCH   5  17
ATOM     17  C   UNL     1       3.506   3.241  17.423  0.00  0.00    +0.000 C 
BRANCH  17  18
ATOM     18  C   UNL     1       3.841   2.928  18.870  0.00  0.00    +0.000 C 
ATOM     19  O   UNL     1       4.997   2.919  19.296  0.00  0.00    +0.000 OA
ATOM     20  N   UNL     1       2.787   2.626  19.715  0.00  0.00    +0.000 N 
ATOM     21  C   UNL     1       1.376   2.497  19.406  0.00  0.00    +0.000 C 
ATOM     22  C   UNL     1       0.727   3.234  20.562  0.00  0.00    +0.000 C 
ATOM     23  C   UNL     1       1.614   2.877  21.756  0.00  0.00    +0.000 C 
ATOM     24  C   UNL     1       2.989   2.590  21.154  0.00  0.00    +0.000 C 
ENDBRANCH  17  18
ENDBRANCH   5  17
TORSDOF 3
ENDMDL
MODEL 2
REMARK VINA RESULT:      -8.8      1.724      4.329
REMARK  Name = 
REMARK  4 active torsions:
REMARK  status: ('A' for Active; 'I' for Inactive)
REMARK    1  A    between atoms: C_1  and  C_2
REMARK    2  A    between atoms: C_4  and  C_5
REMARK    3  A    between atoms: N_15  and  C_16
REMARK    4  A    between atoms: C_16  and  C_17
REMARK                            x       y       z     vdW  Elec       q    Type
REMARK                         _______ _______ _______ _____ _____    ______ ____
ROOT
ATOM      1  C   UNL     1       2.425   1.961  18.094  0.00  0.00    +0.000 C 
ATOM      2  C   UNL     1       2.955   3.310  18.368  0.00  0.00    +0.000 A 
ATOM      3  N   UNL     1       2.139   4.397  18.439  0.00  0.00    +0.000 NA
ATOM      4  C   UNL     1       2.937   5.390  18.800  0.00  0.00    +0.000 A 
ATOM      5  N   UNL     1       4.223   4.890  18.880  0.00  0.00    +0.000 N 
ATOM      6  N   UNL     1       4.251   3.569  18.562  0.00  0.00    +0.000 NA
ENDROOT
BRANCH   4   7
ATOM      7  C   UNL     1       2.464   6.753  19.054  0.00  0.00    +0.000 A 
ATOM      8  C   UNL     1       2.406   7.666  17.990  0.00  0.00    +0.000 A 
ATOM      9  C   UNL     1       1.851   8.937  18.154  0.00  0.00    +0.000 A 
ATOM     10  C   UNL     1       1.328   9.328  19.395  0.00  0.00    +0.000 A 
ATOM     11  C   UNL     1       0.706  10.571  19.585  0.00  0.00    +0.000 A 
ATOM     12  C   UNL     1       0.171  10.918  20.829  0.00  0.00    +0.000 A 
ATOM     13  C   UNL     1       0.262  10.034  21.900  0.00  0.00    +0.000 A 
ATOM     14  C   UNL     1       0.874   8.795  21.726  0.00  0.00    +0.000 A 
ATOM     15  C   UNL     1       1.397   8.428  20.479  0.00  0.00    +0.000 A 
ATOM     16  C   UNL     1       1.957   7.158  20.292  0.00  0.00    +0.000 A 
ENDBRANCH   4   7
BRANCH   5  17
ATOM     17  C   UNL     1       5.479   5.583  19.111  0.00  0.00    +0.000 C 
BRANCH  17  18
ATOM     18  C   UNL     1       6.592   5.077  18.212  0.00  0.00    +0.000 C 
ATOM     19  O   UNL     1       7.562   4.452  18.644  0.00  0.00    +0.000 OA
ATOM     20  N   UNL     1       6.493   5.360  16.861  0.00  0.00    +0.000 N 
ATOM     21  C   UNL     1       5.493   6.143  16.161  0.00  0.00    +0.000 C 
ATOM     22  C   UNL     1       5.217   5.290  14.938  0.00  0.00    +0.000 C 
ATOM     23  C   UNL     1       6.590   4.717  14.584  0.00  0.00    +0.000 C 
ATOM     24  C   UNL     1       7.356   4.682  15.906  0.00  0.00    +0.000 C 
ENDBRANCH  17  18
ENDBRANCH   5  17
TORSDOF 3
ENDMDL
MODEL 3
REMARK VINA RESULT:      -8.7      1.378      2.062
REMARK  Name = 
REMARK  4 active torsions:
REMARK  status: ('A' for Active; 'I' for Inactive)
REMARK    1  A    between atoms: C_1  and  C_2
REMARK    2  A    between atoms: C_4  and  C_5
REMARK    3  A    between atoms: N_15  and  C_16
REMARK    4  A    between atoms: C_16  and  C_17
REMARK                            x       y       z     vdW  Elec       q    Type
REMARK                         _______ _______ _______ _____ _____    ______ ____
ROOT
ATOM      1  C   UNL     1       7.200   4.593  17.446  0.00  0.00    +0.000 C 
ATOM      2  C   UNL     1       5.766   4.897  17.612  0.00  0.00    +0.000 A 
ATOM      3  N   UNL     1       5.344   6.077  18.146  0.00  0.00    +0.000 NA
ATOM      4  C   UNL     1       4.025   6.039  18.037  0.00  0.00    +0.000 A 
ATOM      5  N   UNL     1       3.681   4.814  17.497  0.00  0.00    +0.000 N 
ATOM      6  N   UNL     1       4.786   4.060  17.262  0.00  0.00    +0.000 NA
ENDROOT
BRANCH   4   7
ATOM      7  C   UNL     1       3.151   7.143  18.441  0.00  0.00    +0.000 A 
ATOM      8  C   UNL     1       2.829   8.137  17.503  0.00  0.00    +0.000 A 
ATOM      9  C   UNL     1       1.905   9.142  17.801  0.00  0.00    +0.000 A 
ATOM     10  C   UNL     1       1.269   9.174  19.050  0.00  0.00    +0.000 A 
ATOM     11  C   UNL     1       0.291  10.129  19.366  0.00  0.00    +0.000 A 
ATOM     12  C   UNL     1      -0.343  10.115  20.611  0.00  0.00    +0.000 A 
ATOM     13  C   UNL     1       0.001   9.157  21.560  0.00  0.00    +0.000 A 
ATOM     14  C   UNL     1       0.968   8.201  21.261  0.00  0.00    +0.000 A 
ATOM     15  C   UNL     1       1.597   8.193  20.009  0.00  0.00    +0.000 A 
ATOM     16  C   UNL     1       2.525   7.194  19.689  0.00  0.00    +0.000 A 
ENDBRANCH   4   7
BRANCH   5  17
ATOM     17  C   UNL     1       2.370   4.223  17.291  0.00  0.00    +0.000 C 
BRANCH  17  18
ATOM     18  C   UNL     1       2.186   2.938  18.079  0.00  0.00    +0.000 C 
ATOM     19  O   UNL     1       2.424   1.828  17.602  0.00  0.00    +0.000 OA
ATOM     20  N   UNL     1       1.715   3.052  19.375  0.00  0.00    +0.000 N 
ATOM     21  C   UNL     1       1.297   4.239  20.096  0.00  0.00    +0.000 C 
ATOM     22  C   UNL     1       1.935   4.029  21.456  0.00  0.00    +0.000 C 
ATOM     23  C   UNL     1       1.808   2.521  21.680  0.00  0.00    +0.000 C 
ATOM     24  C   UNL     1       1.777   1.914  20.278  0.00  0.00    +0.000 C 
ENDBRANCH  17  18
ENDBRANCH   5  17
TORSDOF 3
ENDMDL
MODEL 4
REMARK VINA RESULT:      -8.5      1.743      4.152
REMARK  Name = 
REMARK  4 active torsions:
REMARK  status: ('A' for Active; 'I' for Inactive)
REMARK    1  A    between atoms: C_1  and  C_2
REMARK    2  A    between atoms: C_4  and  C_5
REMARK    3  A    between atoms: N_15  and  C_16
REMARK    4  A    between atoms: C_16  and  C_17
REMARK                            x       y       z     vdW  Elec       q    Type
REMARK                         _______ _______ _______ _____ _____    ______ ____
ROOT
ATOM      1  C   UNL     1       3.290   1.380  18.526  0.00  0.00    +0.000 C 
ATOM      2  C   UNL     1       3.569   2.819  18.698  0.00  0.00    +0.000 A 
ATOM      3  N   UNL     1       2.567   3.728  18.848  0.00  0.00    +0.000 NA
ATOM      4  C   UNL     1       3.187   4.873  19.082  0.00  0.00    +0.000 A 
ATOM      5  N   UNL     1       4.547   4.639  19.008  0.00  0.00    +0.000 N 
ATOM      6  N   UNL     1       4.800   3.336  18.720  0.00  0.00    +0.000 NA
ENDROOT
BRANCH   4   7
ATOM      7  C   UNL     1       2.485   6.128  19.363  0.00  0.00    +0.000 A 
ATOM      8  C   UNL     1       1.867   6.301  20.612  0.00  0.00    +0.000 A 
ATOM      9  C   UNL     1       1.291   7.521  20.973  0.00  0.00    +0.000 A 
ATOM     10  C   UNL     1       1.325   8.610  20.091  0.00  0.00    +0.000 A 
ATOM     11  C   UNL     1       0.813   9.869  20.439  0.00  0.00    +0.000 A 
ATOM     12  C   UNL     1       0.888  10.941  19.546  0.00  0.00    +0.000 A 
ATOM     13  C   UNL     1       1.463  10.766  18.290  0.00  0.00    +0.000 A 
ATOM     14  C   UNL     1       1.977   9.524  17.930  0.00  0.00    +0.000 A 
ATOM     15  C   UNL     1       1.925   8.446  18.825  0.00  0.00    +0.000 A 
ATOM     16  C   UNL     1       2.498   7.215  18.484  0.00  0.00    +0.000 A 
ENDBRANCH   4   7
BRANCH   5  17
ATOM     17  C   UNL     1       5.657   5.575  19.062  0.00  0.00    +0.000 C 
BRANCH  17  18
ATOM     18  C   UNL     1       6.790   5.180  18.132  0.00  0.00    +0.000 C 
ATOM     19  O   UNL     1       7.856   4.720  18.544  0.00  0.00    +0.000 OA
ATOM     20  N   UNL     1       6.594   5.372  16.776  0.00  0.00    +0.000 N 
ATOM     21  C   UNL     1       5.465   5.970  16.091  0.00  0.00    +0.000 C 
ATOM     22  C   UNL     1       5.259   5.022  14.925  0.00  0.00    +0.000 C 
ATOM     23  C   UNL     1       6.682   4.627  14.531  0.00  0.00    +0.000 C 
ATOM     24  C   UNL     1       7.502   4.770  15.812  0.00  0.00    +0.000 C 
ENDBRANCH  17  18
ENDBRANCH   5  17
TORSDOF 3
ENDMDL
MODEL 5
REMARK VINA RESULT:      -8.3      1.391      4.752
REMARK  Name = 
REMARK  4 active torsions:
REMARK  status: ('A' for Active; 'I' for Inactive)
REMARK    1  A    between atoms: C_1  and  C_2
REMARK    2  A    between atoms: C_4  and  C_5
REMARK    3  A    between atoms: N_15  and  C_16
REMARK    4  A    between atoms: C_16  and  C_17
REMARK                            x       y       z     vdW  Elec       q    Type
REMARK                         _______ _______ _______ _____ _____    ______ ____
ROOT
ATOM      1  C   UNL     1       1.432   2.493  21.732  0.00  0.00    +0.000 C 
ATOM      2  C   UNL     1       2.044   3.564  20.922  0.00  0.00    +0.000 A 
ATOM      3  N   UNL     1       1.433   4.769  20.753  0.00  0.00    +0.000 NA
ATOM      4  C   UNL     1       2.308   5.494  20.075  0.00  0.00    +0.000 A 
ATOM      5  N   UNL     1       3.399   4.692  19.801  0.00  0.00    +0.000 N 
ATOM      6  N   UNL     1       3.220   3.442  20.301  0.00  0.00    +0.000 NA
ENDROOT
BRANCH   4   7
ATOM      7  C   UNL     1       2.087   6.897  19.717  0.00  0.00    +0.000 A 
ATOM      8  C   UNL     1       2.324   7.312  18.397  0.00  0.00    +0.000 A 
ATOM      9  C   UNL     1       2.015   8.607  17.976  0.00  0.00    +0.000 A 
ATOM     10  C   UNL     1       1.448   9.527  18.871  0.00  0.00    +0.000 A 
ATOM     11  C   UNL     1       1.065  10.817  18.472  0.00  0.00    +0.000 A 
ATOM     12  C   UNL     1       0.478  11.699  19.383  0.00  0.00    +0.000 A 
ATOM     13  C   UNL     1       0.277  11.309  20.704  0.00  0.00    +0.000 A 
ATOM     14  C   UNL     1       0.649  10.031  21.114  0.00  0.00    +0.000 A 
ATOM     15  C   UNL     1       1.222   9.131  20.206  0.00  0.00    +0.000 A 
ATOM     16  C   UNL     1       1.539   7.827  20.605  0.00  0.00    +0.000 A 
ENDBRANCH   4   7
BRANCH   5  17
ATOM     17  C   UNL     1       4.570   4.960  18.984  0.00  0.00    +0.000 C 
BRANCH  17  18
ATOM     18  C   UNL     1       4.448   4.373  17.589  0.00  0.00    +0.000 C 
ATOM     19  O   UNL     1       3.377   3.972  17.130  0.00  0.00    +0.000 OA
ATOM     20  N   UNL     1       5.604   4.282  16.836  0.00  0.00    +0.000 N 
ATOM     21  C   UNL     1       6.967   4.612  17.208  0.00  0.00    +0.000 C 
ATOM     22  C   UNL     1       7.466   5.344  15.977  0.00  0.00    +0.000 C 
ATOM     23  C   UNL     1       6.809   4.589  14.821  0.00  0.00    +0.000 C 
ATOM     24  C   UNL     1       5.530   3.998  15.411  0.00  0.00    +0.000 C 
ENDBRANCH  17  18
ENDBRANCH   5  17
TORSDOF 3
ENDMDL
MODEL 6
REMARK VINA RESULT:      -8.1      1.551      2.574
REMARK  Name = 
REMARK  4 active torsions:
REMARK  status: ('A' for Active; 'I' for Inactive)
REMARK    1  A    between atoms: C_1  and  C_2
REMARK    2  A    between atoms: C_4  and  C_5
REMARK    3  A    between atoms: N_15  and  C_16
REMARK    4  A    between atoms: C_16  and  C_17
REMARK                            x       y       z     vdW  Elec       q    Type
REMARK                         _______ _______ _______ _____ _____    ______ ____
ROOT
ATOM      1  C   UNL     1       6.238   5.989  16.623  0.00  0.00    +0.000 C 
ATOM      2  C   UNL     1       4.863   6.111  17.142  0.00  0.00    +0.000 A 
ATOM      3  N   UNL     1       4.454   7.213  17.829  0.00  0.00    +0.000 NA
ATOM      4  C   UNL     1       3.161   7.017  18.034  0.00  0.00    +0.000 A 
ATOM      5  N   UNL     1       2.835   5.778  17.519  0.00  0.00    +0.000 N 
ATOM      6  N   UNL     1       3.927   5.171  16.985  0.00  0.00    +0.000 NA
ENDROOT
BRANCH   4   7
ATOM      7  C   UNL     1       2.293   7.993  18.698  0.00  0.00    +0.000 A 
ATOM      8  C   UNL     1       1.577   8.914  17.917  0.00  0.00    +0.000 A 
ATOM      9  C   UNL     1       0.647   9.783  18.491  0.00  0.00    +0.000 A 
ATOM     10  C   UNL     1       0.401   9.748  19.871  0.00  0.00    +0.000 A 
ATOM     11  C   UNL     1      -0.570  10.560  20.477  0.00  0.00    +0.000 A 
ATOM     12  C   UNL     1      -0.809  10.480  21.852  0.00  0.00    +0.000 A 
ATOM     13  C   UNL     1      -0.074   9.598  22.639  0.00  0.00    +0.000 A 
ATOM     14  C   UNL     1       0.891   8.784  22.052  0.00  0.00    +0.000 A 
ATOM     15  C   UNL     1       1.127   8.841  20.672  0.00  0.00    +0.000 A 
ATOM     16  C   UNL     1       2.054   7.978  20.075  0.00  0.00    +0.000 A 
ENDBRANCH   4   7
BRANCH   5  17
ATOM     17  C   UNL     1       1.587   5.037  17.594  0.00  0.00    +0.000 C 
BRANCH  17  18
ATOM     18  C   UNL     1       1.777   3.642  18.161  0.00  0.00    +0.000 C 
ATOM     19  O   UNL     1       2.021   2.665  17.451  0.00  0.00    +0.000 OA
ATOM     20  N   UNL     1       1.649   3.490  19.530  0.00  0.00    +0.000 N 
ATOM     21  C   UNL     1       1.287   4.477  20.529  0.00  0.00    +0.000 C 
ATOM     22  C   UNL     1       2.277   4.186  21.641  0.00  0.00    +0.000 C 
ATOM     23  C   UNL     1       2.403   2.662  21.616  0.00  0.00    +0.000 C 
ATOM     24  C   UNL     1       2.086   2.263  20.176  0.00  0.00    +0.000 C 
ENDBRANCH  17  18
ENDBRANCH   5  17
TORSDOF 3
ENDMDL
MODEL 7
REMARK VINA RESULT:      -8.1      1.118      4.605
REMARK  Name = 
REMARK  4 active torsions:
REMARK  status: ('A' for Active; 'I' for Inactive)
REMARK    1  A    between atoms: C_1  and  C_2
REMARK    2  A    between atoms: C_4  and  C_5
REMARK    3  A    between atoms: N_15  and  C_16
REMARK    4  A    between atoms: C_16  and  C_17
REMARK                            x       y       z     vdW  Elec       q    Type
REMARK                         _______ _______ _______ _____ _____    ______ ____
ROOT
ATOM      1  C   UNL     1       1.519   2.244  22.145  0.00  0.00    +0.000 C 
ATOM      2  C   UNL     1       1.930   3.108  21.022  0.00  0.00    +0.000 A 
ATOM      3  N   UNL     1       1.601   4.428  20.979  0.00  0.00    +0.000 NA
ATOM      4  C   UNL     1       2.220   4.891  19.905  0.00  0.00    +0.000 A 
ATOM      5  N   UNL     1       2.857   3.828  19.294  0.00  0.00    +0.000 N 
ATOM      6  N   UNL     1       2.640   2.674  19.977  0.00  0.00    +0.000 NA
ENDROOT
BRANCH   4   7
ATOM      7  C   UNL     1       2.190   6.299  19.501  0.00  0.00    +0.000 A 
ATOM      8  C   UNL     1       2.599   6.647  18.204  0.00  0.00    +0.000 A 
ATOM      9  C   UNL     1       2.476   7.955  17.731  0.00  0.00    +0.000 A 
ATOM     10  C   UNL     1       1.927   8.955  18.546  0.00  0.00    +0.000 A 
ATOM     11  C   UNL     1       1.729  10.267  18.088  0.00  0.00    +0.000 A 
ATOM     12  C   UNL     1       1.154  11.233  18.918  0.00  0.00    +0.000 A 
ATOM     13  C   UNL     1       0.783  10.905  20.219  0.00  0.00    +0.000 A 
ATOM     14  C   UNL     1       0.972   9.608  20.688  0.00  0.00    +0.000 A 
ATOM     15  C   UNL     1       1.529   8.625  19.859  0.00  0.00    +0.000 A 
ATOM     16  C   UNL     1       1.661   7.307  20.312  0.00  0.00    +0.000 A 
ENDBRANCH   4   7
BRANCH   5  17
ATOM     17  C   UNL     1       3.565   3.771  18.026  0.00  0.00    +0.000 C 
BRANCH  17  18
ATOM     18  C   UNL     1       5.040   4.099  18.174  0.00  0.00    +0.000 C 
ATOM     19  O   UNL     1       5.674   3.854  19.201  0.00  0.00    +0.000 OA
ATOM     20  N   UNL     1       5.663   4.712  17.102  0.00  0.00    +0.000 N 
ATOM     21  C   UNL     1       5.092   5.160  15.846  0.00  0.00    +0.000 C 
ATOM     22  C   UNL     1       6.127   4.695  14.840  0.00  0.00    +0.000 C 
ATOM     23  C   UNL     1       7.455   4.910  15.567  0.00  0.00    +0.000 C 
ATOM     24  C   UNL     1       7.114   4.804  17.053  0.00  0.00    +0.000 C 
ENDBRANCH  17  18
ENDBRANCH   5  17
TORSDOF 3
ENDMDL
MODEL 8
REMARK VINA RESULT:      -7.9      1.241      2.046
REMARK  Name = 
REMARK  4 active torsions:
REMARK  status: ('A' for Active; 'I' for Inactive)
REMARK    1  A    between atoms: C_1  and  C_2
REMARK    2  A    between atoms: C_4  and  C_5
REMARK    3  A    between atoms: N_15  and  C_16
REMARK    4  A    between atoms: C_16  and  C_17
REMARK                            x       y       z     vdW  Elec       q    Type
REMARK                         _______ _______ _______ _____ _____    ______ ____
ROOT
ATOM      1  C   UNL     1       6.024   5.324  14.906  0.00  0.00    +0.000 C 
ATOM      2  C   UNL     1       5.379   5.614  16.201  0.00  0.00    +0.000 A 
ATOM      3  N   UNL     1       4.606   6.720  16.382  0.00  0.00    +0.000 NA
ATOM      4  C   UNL     1       4.120   6.590  17.606  0.00  0.00    +0.000 A 
ATOM      5  N   UNL     1       4.658   5.442  18.154  0.00  0.00    +0.000 N 
ATOM      6  N   UNL     1       5.500   4.834  17.278  0.00  0.00    +0.000 NA
ENDROOT
BRANCH   4   7
ATOM      7  C   UNL     1       3.178   7.540  18.204  0.00  0.00    +0.000 A 
ATOM      8  C   UNL     1       2.742   8.639  17.448  0.00  0.00    +0.000 A 
ATOM      9  C   UNL     1       1.756   9.504  17.928  0.00  0.00    +0.000 A 
ATOM     10  C   UNL     1       1.170   9.285  19.182  0.00  0.00    +0.000 A 
ATOM     11  C   UNL     1       0.133  10.093  19.673  0.00  0.00    +0.000 A 
ATOM     12  C   UNL     1      -0.448   9.830  20.917  0.00  0.00    +0.000 A 
ATOM     13  C   UNL     1       0.007   8.767  21.690  0.00  0.00    +0.000 A 
ATOM     14  C   UNL     1       1.034   7.954  21.216  0.00  0.00    +0.000 A 
ATOM     15  C   UNL     1       1.611   8.195  19.962  0.00  0.00    +0.000 A 
ATOM     16  C   UNL     1       2.601   7.340  19.461  0.00  0.00    +0.000 A 
ENDBRANCH   4   7
BRANCH   5  17
ATOM     17  C   UNL     1       4.550   4.916  19.504  0.00  0.00    +0.000 C 
BRANCH  17  18
ATOM     18  C   UNL     1       4.182   3.443  19.522  0.00  0.00    +0.000 C 
ATOM     19  O   UNL     1       4.965   2.569  19.898  0.00  0.00    +0.000 OA
ATOM     20  N   UNL     1       2.918   3.100  19.077  0.00  0.00    +0.000 N 
ATOM     21  C   UNL     1       1.884   3.949  18.518  0.00  0.00    +0.000 C 
ATOM     22  C   UNL     1       0.638   3.437  19.217  0.00  0.00    +0.000 C 
ATOM     23  C   UNL     1       0.874   1.928  19.306  0.00  0.00    +0.000 C 
ATOM     24  C   UNL     1       2.393   1.766  19.320  0.00  0.00    +0.000 C 
ENDBRANCH  17  18
ENDBRANCH   5  17
TORSDOF 3
ENDMDL
MODEL 9
REMARK VINA RESULT:      -7.7      2.215      5.438
REMARK  Name = 
REMARK  4 active torsions:
REMARK  status: ('A' for Active; 'I' for Inactive)
REMARK    1  A    between atoms: C_1  and  C_2
REMARK    2  A    between atoms: C_4  and  C_5
REMARK    3  A    between atoms: N_15  and  C_16
REMARK    4  A    between atoms: C_16  and  C_17
REMARK                            x       y       z     vdW  Elec       q    Type
REMARK                         _______ _______ _______ _____ _____    ______ ____
ROOT
ATOM      1  C   UNL     1       0.830   9.670  20.200  0.00  0.00    +0.000 C 
ATOM      2  C   UNL     1       1.410   8.320  20.068  0.00  0.00    +0.000 A 
ATOM      3  N   UNL     1       2.075   7.935  18.944  0.00  0.00    +0.000 NA
ATOM      4  C   UNL     1       2.537   6.728  19.227  0.00  0.00    +0.000 A 
ATOM      5  N   UNL     1       2.089   6.390  20.490  0.00  0.00    +0.000 N 
ATOM      6  N   UNL     1       1.331   7.385  21.018  0.00  0.00    +0.000 NA
ENDROOT
BRANCH   4   7
ATOM      7  C   UNL     1       3.372   5.948  18.310  0.00  0.00    +0.000 A 
ATOM      8  C   UNL     1       2.785   4.915  17.562  0.00  0.00    +0.000 A 
ATOM      9  C   UNL     1       3.509   4.224  16.587  0.00  0.00    +0.000 A 
ATOM     10  C   UNL     1       4.846   4.556  16.328  0.00  0.00    +0.000 A 
ATOM     11  C   UNL     1       5.589   3.929  15.317  0.00  0.00    +0.000 A 
ATOM     12  C   UNL     1       6.912   4.304  15.067  0.00  0.00    +0.000 A 
ATOM     13  C   UNL     1       7.513   5.299  15.832  0.00  0.00    +0.000 A 
ATOM     14  C   UNL     1       6.789   5.932  16.838  0.00  0.00    +0.000 A 
ATOM     15  C   UNL     1       5.455   5.579  17.086  0.00  0.00    +0.000 A 
ATOM     16  C   UNL     1       4.711   6.260  18.057  0.00  0.00    +0.000 A 
ENDBRANCH   4   7
BRANCH   5  17
ATOM     17  C   UNL     1       2.207   5.137  21.215  0.00  0.00    +0.000 C 
BRANCH  17  18
ATOM     18  C   UNL     1       1.602   3.970  20.454  0.00  0.00    +0.000 C 
ATOM     19  O   UNL     1       0.424   3.954  20.093  0.00  0.00    +0.000 OA
ATOM     20  N   UNL     1       2.426   2.892  20.186  0.00  0.00    +0.000 N 
ATOM     21  C   UNL     1       3.802   2.670  20.588  0.00  0.00    +0.000 C 
ATOM     22  C   UNL     1       4.424   2.128  19.315  0.00  0.00    +0.000 C 
ATOM     23  C   UNL     1       3.314   1.262  18.717  0.00  0.00    +0.000 C 
ATOM     24  C   UNL     1       2.013   1.873  19.234  0.00  0.00    +0.000 C 
ENDBRANCH  17  18
ENDBRANCH   5  17
TORSDOF 3
ENDMDL
