MODEL 1
REMARK VINA RESULT:      -9.1      0.000      0.000
REMARK  Name = 
REMARK  6 active torsions:
REMARK  status: ('A' for Active; 'I' for Inactive)
REMARK    1  A    between atoms: C_1  and  N_2
REMARK    2  A    between atoms: C_6  and  C_7
REMARK    3  A    between atoms: C_7  and  C_8
REMARK    4  A    between atoms: C_8  and  C_9
REMARK    5  A    between atoms: C_13  and  N_14
REMARK    6  A    between atoms: C_18  and  C_19
REMARK                            x       y       z     vdW  Elec       q    Type
REMARK                         _______ _______ _______ _____ _____    ______ ____
ROOT
ATOM      1  C   UNL     1       4.527   4.904  17.237  0.00  0.00    +0.000 A 
ATOM      2  C   UNL     1       3.811   3.726  17.546  0.00  0.00    +0.000 A 
ATOM      3  C   UNL     1       2.528   3.758  18.092  0.00  0.00    +0.000 A 
ATOM      4  C   UNL     1       1.931   4.981  18.365  0.00  0.00    +0.000 A 
ATOM      5  C   UNL     1       2.594   6.170  18.059  0.00  0.00    +0.000 A 
ATOM      6  C   UNL     1       3.854   6.125  17.459  0.00  0.00    +0.000 A 
ENDROOT
BRANCH   5   7
ATOM      7  N   UNL     1       2.048   7.394  18.517  0.00  0.00    +0.000 N 
ATOM      8  C   UNL     1       2.248   8.617  17.754  0.00  0.00    +0.000 C 
ATOM      9  C   UNL     1       1.073   9.570  17.994  0.00  0.00    +0.000 C 
ATOM     10  C   UNL     1       0.859   9.753  19.474  0.00  0.00    +0.000 C 
ATOM     11  C   UNL     1       1.254   8.830  20.367  0.00  0.00    +0.000 C 
ATOM     12  C   UNL     1       1.700   7.475  19.867  0.00  0.00    +0.000 C 
ATOM     13  O   UNL     1       1.737   6.527  20.653  0.00  0.00    +0.000 OA
BRANCH  11  14
ATOM     14  C   UNL     1       1.271   9.011  21.754  0.00  0.00    +0.000 C 
ATOM     15  C   UNL     1       0.552   9.324  22.798  0.00  0.00    +0.000 C 
ATOM     16  N   UNL     1       2.016   8.993  22.836  0.00  0.00    +0.000 N 
ATOM     17  H   UNL     1       2.505   9.871  23.028  0.00  0.00    +0.000 HD
ENDBRANCH  11  14
ENDBRANCH   5   7
BRANCH   1  18
ATOM     18  C   UNL     1       6.060   4.865  16.751  0.00  0.00    +0.000 C 
ATOM     19  C   UNL     1       6.817   6.223  16.645  0.00  0.00    +0.000 C 
ATOM     20  O   UNL     1       7.834   5.799  17.578  0.00  0.00    +0.000 OA
ATOM     21  C   UNL     1       7.111   4.588  17.868  0.00  0.00    +0.000 C 
BRANCH  18  22
ATOM     22  C   UNL     1       6.239   3.925  15.541  0.00  0.00    +0.000 C 
BRANCH  22  28
ATOM     23  C   UNL     1       5.800   3.294  12.490  0.00  0.00    +0.000 C 
ATOM     24  N   UNL     1       6.709   4.256  13.052  0.00  0.00    +0.000 N 
ATOM     25  C   UNL     1       7.555   5.047  12.336  0.00  0.00    +0.000 A 
ATOM     26  N   UNL     1       8.267   5.784  13.154  0.00  0.00    +0.000 NA
ATOM     27  N   UNL     1       7.891   5.461  14.433  0.00  0.00    +0.000 NA
ATOM     28  C   UNL     1       6.934   4.554  14.375  0.00  0.00    +0.000 A 
ENDBRANCH  22  28
ENDBRANCH  18  22
ENDBRANCH   1  18
TORSDOF 5
ENDMDL
MODEL 2
REMARK VINA RESULT:      -8.9      0.954      1.149
REMARK  Name = 
REMARK  6 active torsions:
REMARK  status: ('A' for Active; 'I' for Inactive)
REMARK    1  A    between atoms: C_1  and  N_2
REMARK    2  A    between atoms: C_6  and  C_7
REMARK    3  A    between atoms: C_7  and  C_8
REMARK    4  A    between atoms: C_8  and  C_9
REMARK    5  A    between atoms: C_13  and  N_14
REMARK    6  A    between atoms: C_18  and  C_19
REMARK                            x       y       z     vdW  Elec       q    Type
REMARK                         _______ _______ _______ _____ _____    ______ ____
ROOT
ATOM      1  C   UNL     1       5.261   5.506  17.907  0.00  0.00    +0.000 A 
ATOM      2  C   UNL     1       4.650   4.237  18.017  0.00  0.00    +0.000 A 
ATOM      3  C   UNL     1       3.284   4.088  18.258  0.00  0.00    +0.000 A 
ATOM      4  C   UNL     1       2.492   5.215  18.418  0.00  0.00    +0.000 A 
ATOM      5  C   UNL     1       3.049   6.490  18.300  0.00  0.00    +0.000 A 
ATOM      6  C   UNL     1       4.406   6.625  18.001  0.00  0.00    +0.000 A 
ENDROOT
BRANCH   5   7
ATOM      7  N   UNL     1       2.263   7.614  18.652  0.00  0.00    +0.000 N 
ATOM      8  C   UNL     1       2.317   8.826  17.847  0.00  0.00    +0.000 C 
ATOM      9  C   UNL     1       0.980   9.567  17.946  0.00  0.00    +0.000 C 
ATOM     10  C   UNL     1       0.610   9.762  19.393  0.00  0.00    +0.000 C 
ATOM     11  C   UNL     1       1.078   8.954  20.359  0.00  0.00    +0.000 C 
ATOM     12  C   UNL     1       1.791   7.681  19.965  0.00  0.00    +0.000 C 
ATOM     13  O   UNL     1       1.922   6.782  20.797  0.00  0.00    +0.000 OA
BRANCH  11  14
ATOM     14  C   UNL     1       0.944   9.184  21.732  0.00  0.00    +0.000 C 
ATOM     15  C   UNL     1       0.128   9.574  22.674  0.00  0.00    +0.000 C 
ATOM     16  N   UNL     1       1.554   9.163  22.896  0.00  0.00    +0.000 N 
ATOM     17  H   UNL     1       2.070  10.019  23.118  0.00  0.00    +0.000 HD
ENDBRANCH  11  14
ENDBRANCH   5   7
BRANCH   1  18
ATOM     18  C   UNL     1       6.856   5.674  17.781  0.00  0.00    +0.000 C 
ATOM     19  C   UNL     1       7.408   7.100  17.484  0.00  0.00    +0.000 C 
ATOM     20  O   UNL     1       8.207   7.108  18.687  0.00  0.00    +0.000 OA
ATOM     21  C   UNL     1       7.619   5.869  19.125  0.00  0.00    +0.000 C 
BRANCH  18  22
ATOM     22  C   UNL     1       7.470   4.547  16.925  0.00  0.00    +0.000 C 
BRANCH  22  28
ATOM     23  C   UNL     1       5.416   2.979  15.130  0.00  0.00    +0.000 C 
ATOM     24  N   UNL     1       6.331   4.004  14.704  0.00  0.00    +0.000 N 
ATOM     25  C   UNL     1       6.467   4.450  13.425  0.00  0.00    +0.000 A 
ATOM     26  N   UNL     1       7.409   5.361  13.375  0.00  0.00    +0.000 NA
ATOM     27  N   UNL     1       7.909   5.507  14.645  0.00  0.00    +0.000 NA
ATOM     28  C   UNL     1       7.245   4.704  15.454  0.00  0.00    +0.000 A 
ENDBRANCH  22  28
ENDBRANCH  18  22
ENDBRANCH   1  18
TORSDOF 5
ENDMDL
MODEL 3
REMARK VINA RESULT:      -8.9      1.572      2.260
REMARK  Name = 
REMARK  6 active torsions:
REMARK  status: ('A' for Active; 'I' for Inactive)
REMARK    1  A    between atoms: C_1  and  N_2
REMARK    2  A    between atoms: C_6  and  C_7
REMARK    3  A    between atoms: C_7  and  C_8
REMARK    4  A    between atoms: C_8  and  C_9
REMARK    5  A    between atoms: C_13  and  N_14
REMARK    6  A    between atoms: C_18  and  C_19
REMARK                            x       y       z     vdW  Elec       q    Type
REMARK                         _______ _______ _______ _____ _____    ______ ____
ROOT
ATOM      1  C   UNL     1       4.917   5.585  17.559  0.00  0.00    +0.000 A 
ATOM      2  C   UNL     1       4.191   4.423  17.215  0.00  0.00    +0.000 A 
ATOM      3  C   UNL     1       2.823   4.303  17.455  0.00  0.00    +0.000 A 
ATOM      4  C   UNL     1       2.143   5.345  18.072  0.00  0.00    +0.000 A 
ATOM      5  C   UNL     1       2.817   6.519  18.412  0.00  0.00    +0.000 A 
ATOM      6  C   UNL     1       4.174   6.650  18.114  0.00  0.00    +0.000 A 
ENDROOT
BRANCH   5   7
ATOM      7  N   UNL     1       2.148   7.484  19.204  0.00  0.00    +0.000 N 
ATOM      8  C   UNL     1       1.601   7.115  20.501  0.00  0.00    +0.000 C 
ATOM      9  C   UNL     1       1.588   8.341  21.420  0.00  0.00    +0.000 C 
ATOM     10  C   UNL     1       0.905   9.491  20.728  0.00  0.00    +0.000 C 
ATOM     11  C   UNL     1       0.837   9.573  19.389  0.00  0.00    +0.000 C 
ATOM     12  C   UNL     1       1.671   8.626  18.556  0.00  0.00    +0.000 C 
ATOM     13  O   UNL     1       1.887   8.896  17.374  0.00  0.00    +0.000 OA
BRANCH  11  14
ATOM     14  C   UNL     1       0.059  10.493  18.679  0.00  0.00    +0.000 C 
ATOM     15  C   UNL     1      -1.051  10.661  18.012  0.00  0.00    +0.000 C 
ATOM     16  N   UNL     1      -0.024  11.730  18.244  0.00  0.00    +0.000 N 
ATOM     17  H   UNL     1       0.433  11.892  17.342  0.00  0.00    +0.000 HD
ENDBRANCH  11  14
ENDBRANCH   5   7
BRANCH   1  18
ATOM     18  C   UNL     1       6.518   5.661  17.419  0.00  0.00    +0.000 C 
ATOM     19  C   UNL     1       7.150   7.052  17.118  0.00  0.00    +0.000 C 
ATOM     20  O   UNL     1       7.957   7.013  18.314  0.00  0.00    +0.000 OA
ATOM     21  C   UNL     1       7.302   5.810  18.757  0.00  0.00    +0.000 C 
BRANCH  18  22
ATOM     22  C   UNL     1       7.059   4.500  16.558  0.00  0.00    +0.000 C 
BRANCH  22  28
ATOM     23  C   UNL     1       5.379   3.557  14.070  0.00  0.00    +0.000 C 
ATOM     24  N   UNL     1       6.522   4.430  14.061  0.00  0.00    +0.000 N 
ATOM     25  C   UNL     1       7.079   4.980  12.947  0.00  0.00    +0.000 A 
ATOM     26  N   UNL     1       8.124   5.696  13.286  0.00  0.00    +0.000 NA
ATOM     27  N   UNL     1       8.263   5.604  14.648  0.00  0.00    +0.000 NA
ATOM     28  C   UNL     1       7.283   4.858  15.122  0.00  0.00    +0.000 A 
ENDBRANCH  22  28
ENDBRANCH  18  22
ENDBRANCH   1  18
TORSDOF 5
ENDMDL
MODEL 4
REMARK VINA RESULT:      -8.9      3.853      5.709
REMARK  Name = 
REMARK  6 active torsions:
REMARK  status: ('A' for Active; 'I' for Inactive)
REMARK    1  A    between atoms: C_1  and  N_2
REMARK    2  A    between atoms: C_6  and  C_7
REMARK    3  A    between atoms: C_7  and  C_8
REMARK    4  A    between atoms: C_8  and  C_9
REMARK    5  A    between atoms: C_13  and  N_14
REMARK    6  A    between atoms: C_18  and  C_19
REMARK                            x       y       z     vdW  Elec       q    Type
REMARK                         _______ _______ _______ _____ _____    ______ ____
ROOT
ATOM      1  C   UNL     1       2.558   7.310  18.642  0.00  0.00    +0.000 A 
ATOM      2  C   UNL     1       2.502   8.143  17.501  0.00  0.00    +0.000 A 
ATOM      3  C   UNL     1       1.891   9.396  17.526  0.00  0.00    +0.000 A 
ATOM      4  C   UNL     1       1.296   9.844  18.697  0.00  0.00    +0.000 A 
ATOM      5  C   UNL     1       1.343   9.063  19.853  0.00  0.00    +0.000 A 
ATOM      6  C   UNL     1       2.008   7.835  19.831  0.00  0.00    +0.000 A 
ENDROOT
BRANCH   5   7
ATOM      7  N   UNL     1       0.572   9.455  20.974  0.00  0.00    +0.000 N 
ATOM      8  C   UNL     1      -0.465   8.575  21.493  0.00  0.00    +0.000 C 
ATOM      9  C   UNL     1      -0.645   8.825  22.994  0.00  0.00    +0.000 C 
ATOM     10  C   UNL     1      -0.851  10.295  23.246  0.00  0.00    +0.000 C 
ATOM     11  C   UNL     1      -0.403  11.231  22.392  0.00  0.00    +0.000 C 
ATOM     12  C   UNL     1       0.537  10.817  21.283  0.00  0.00    +0.000 C 
ATOM     13  O   UNL     1       1.214  11.676  20.717  0.00  0.00    +0.000 OA
BRANCH  11  14
ATOM     14  C   UNL     1      -0.724  12.591  22.451  0.00  0.00    +0.000 C 
ATOM     15  C   UNL     1      -1.623  13.460  22.827  0.00  0.00    +0.000 C 
ATOM     16  N   UNL     1      -0.328  13.808  22.155  0.00  0.00    +0.000 N 
ATOM     17  H   UNL     1      -0.566  14.111  21.207  0.00  0.00    +0.000 HD
ENDBRANCH  11  14
ENDBRANCH   5   7
BRANCH   1  18
ATOM     18  C   UNL     1       3.127   5.807  18.570  0.00  0.00    +0.000 C 
ATOM     19  C   UNL     1       4.097   5.459  17.402  0.00  0.00    +0.000 C 
ATOM     20  O   UNL     1       5.149   5.068  18.311  0.00  0.00    +0.000 OA
ATOM     21  C   UNL     1       4.387   5.524  19.443  0.00  0.00    +0.000 C 
BRANCH  18  22
ATOM     22  C   UNL     1       2.008   4.774  18.817  0.00  0.00    +0.000 C 
BRANCH  22  28
ATOM     23  C   UNL     1       3.365   1.941  19.003  0.00  0.00    +0.000 C 
ATOM     24  N   UNL     1       2.811   2.707  20.087  0.00  0.00    +0.000 N 
ATOM     25  C   UNL     1       2.768   2.307  21.387  0.00  0.00    +0.000 A 
ATOM     26  N   UNL     1       2.169   3.223  22.109  0.00  0.00    +0.000 NA
ATOM     27  N   UNL     1       1.799   4.238  21.263  0.00  0.00    +0.000 NA
ATOM     28  C   UNL     1       2.206   3.940  20.044  0.00  0.00    +0.000 A 
ENDBRANCH  22  28
ENDBRANCH  18  22
ENDBRANCH   1  18
TORSDOF 5
ENDMDL
MODEL 5
REMARK VINA RESULT:      -8.7      1.296      2.082
REMARK  Name = 
REMARK  6 active torsions:
REMARK  status: ('A' for Active; 'I' for Inactive)
REMARK    1  A    between atoms: C_1  and  N_2
REMARK    2  A    between atoms: C_6  and  C_7
REMARK    3  A    between atoms: C_7  and  C_8
REMARK    4  A    between atoms: C_8  and  C_9
REMARK    5  A    between atoms: C_13  and  N_14
REMARK    6  A    between atoms: C_18  and  C_19
REMARK                            x       y       z     vdW  Elec       q    Type
REMARK                         _______ _______ _______ _____ _____    ______ ____
ROOT
ATOM      1  C   UNL     1       4.436   4.899  17.108  0.00  0.00    +0.000 A 
ATOM      2  C   UNL     1       3.599   3.772  16.947  0.00  0.00    +0.000 A 
ATOM      3  C   UNL     1       2.285   3.751  17.415  0.00  0.00    +0.000 A 
ATOM      4  C   UNL     1       1.779   4.857  18.082  0.00  0.00    +0.000 A 
ATOM      5  C   UNL     1       2.565   5.999  18.247  0.00  0.00    +0.000 A 
ATOM      6  C   UNL     1       3.858   6.030  17.723  0.00  0.00    +0.000 A 
ENDROOT
BRANCH   5   7
ATOM      7  N   UNL     1       2.093   7.036  19.089  0.00  0.00    +0.000 N 
ATOM      8  C   UNL     1       1.370   6.716  20.310  0.00  0.00    +0.000 C 
ATOM      9  C   UNL     1       1.587   7.829  21.341  0.00  0.00    +0.000 C 
ATOM     10  C   UNL     1       1.266   9.165  20.725  0.00  0.00    +0.000 C 
ATOM     11  C   UNL     1       1.329   9.368  19.398  0.00  0.00    +0.000 C 
ATOM     12  C   UNL     1       1.967   8.309  18.528  0.00  0.00    +0.000 C 
ATOM     13  O   UNL     1       2.337   8.608  17.392  0.00  0.00    +0.000 OA
BRANCH  11  14
ATOM     14  C   UNL     1       0.860  10.508  18.737  0.00  0.00    +0.000 C 
ATOM     15  C   UNL     1       1.173  11.707  18.328  0.00  0.00    +0.000 C 
ATOM     16  N   UNL     1      -0.172  11.067  18.147  0.00  0.00    +0.000 N 
ATOM     17  H   UNL     1      -0.810  11.552  18.782  0.00  0.00    +0.000 HD
ENDBRANCH  11  14
ENDBRANCH   5   7
BRANCH   1  18
ATOM     18  C   UNL     1       5.993   4.866  16.702  0.00  0.00    +0.000 C 
ATOM     19  C   UNL     1       6.741   6.229  16.605  0.00  0.00    +0.000 C 
ATOM     20  O   UNL     1       7.712   5.836  17.599  0.00  0.00    +0.000 OA
ATOM     21  C   UNL     1       6.988   4.625  17.878  0.00  0.00    +0.000 C 
BRANCH  18  22
ATOM     22  C   UNL     1       6.243   3.901  15.525  0.00  0.00    +0.000 C 
BRANCH  22  28
ATOM     23  C   UNL     1       5.696   3.349  12.476  0.00  0.00    +0.000 C 
ATOM     24  N   UNL     1       6.652   4.270  13.030  0.00  0.00    +0.000 N 
ATOM     25  C   UNL     1       7.501   5.048  12.305  0.00  0.00    +0.000 A 
ATOM     26  N   UNL     1       8.261   5.744  13.116  0.00  0.00    +0.000 NA
ATOM     27  N   UNL     1       7.911   5.406  14.399  0.00  0.00    +0.000 NA
ATOM     28  C   UNL     1       6.924   4.532  14.351  0.00  0.00    +0.000 A 
ENDBRANCH  22  28
ENDBRANCH  18  22
ENDBRANCH   1  18
TORSDOF 5
ENDMDL
MODEL 6
REMARK VINA RESULT:      -8.6      2.478      7.968
REMARK  Name = 
REMARK  6 active torsions:
REMARK  status: ('A' for Active; 'I' for Inactive)
REMARK    1  A    between atoms: C_1  and  N_2
REMARK    2  A    between atoms: C_6  and  C_7
REMARK    3  A    between atoms: C_7  and  C_8
REMARK    4  A    between atoms: C_8  and  C_9
REMARK    5  A    between atoms: C_13  and  N_14
REMARK    6  A    between atoms: C_18  and  C_19
REMARK                            x       y       z     vdW  Elec       q    Type
REMARK                         _______ _______ _______ _____ _____    ______ ____
ROOT
ATOM      1  C   UNL     1       4.718   5.659  17.874  0.00  0.00    +0.000 A 
ATOM      2  C   UNL     1       5.626   5.202  18.856  0.00  0.00    +0.000 A 
ATOM      3  C   UNL     1       6.908   4.759  18.534  0.00  0.00    +0.000 A 
ATOM      4  C   UNL     1       7.312   4.741  17.206  0.00  0.00    +0.000 A 
ATOM      5  C   UNL     1       6.455   5.200  16.204  0.00  0.00    +0.000 A 
ATOM      6  C   UNL     1       5.195   5.696  16.546  0.00  0.00    +0.000 A 
ENDROOT
BRANCH   5   7
ATOM      7  N   UNL     1       6.816   4.997  14.850  0.00  0.00    +0.000 N 
ATOM      8  C   UNL     1       7.381   6.089  14.071  0.00  0.00    +0.000 C 
ATOM      9  C   UNL     1       8.300   5.522  12.985  0.00  0.00    +0.000 C 
ATOM     10  C   UNL     1       7.568   4.469  12.195  0.00  0.00    +0.000 C 
ATOM     11  C   UNL     1       6.530   3.789  12.711  0.00  0.00    +0.000 C 
ATOM     12  C   UNL     1       6.245   3.905  14.191  0.00  0.00    +0.000 C 
ATOM     13  O   UNL     1       5.540   3.055  14.736  0.00  0.00    +0.000 OA
BRANCH  11  14
ATOM     14  C   UNL     1       5.681   2.947  11.985  0.00  0.00    +0.000 C 
ATOM     15  C   UNL     1       4.549   2.874  11.339  0.00  0.00    +0.000 C 
ATOM     16  N   UNL     1       5.499   1.728  11.530  0.00  0.00    +0.000 N 
ATOM     17  H   UNL     1       5.053   1.091  12.194  0.00  0.00    +0.000 HD
ENDBRANCH  11  14
ENDBRANCH   5   7
BRANCH   1  18
ATOM     18  C   UNL     1       3.193   6.025  18.231  0.00  0.00    +0.000 C 
ATOM     19  C   UNL     1       2.901   6.586  19.655  0.00  0.00    +0.000 C 
ATOM     20  O   UNL     1       2.334   7.804  19.125  0.00  0.00    +0.000 OA
ATOM     21  C   UNL     1       2.722   7.443  17.787  0.00  0.00    +0.000 C 
BRANCH  18  22
ATOM     22  C   UNL     1       2.227   4.920  17.756  0.00  0.00    +0.000 C 
BRANCH  22  28
ATOM     23  C   UNL     1       3.551   2.089  18.122  0.00  0.00    +0.000 C 
ATOM     24  N   UNL     1       2.515   2.670  18.933  0.00  0.00    +0.000 N 
ATOM     25  C   UNL     1       1.919   2.064  19.996  0.00  0.00    +0.000 A 
ATOM     26  N   UNL     1       0.996   2.852  20.491  0.00  0.00    +0.000 NA
ATOM     27  N   UNL     1       0.977   3.994  19.730  0.00  0.00    +0.000 NA
ATOM     28  C   UNL     1       1.909   3.896  18.800  0.00  0.00    +0.000 A 
ENDBRANCH  22  28
ENDBRANCH  18  22
ENDBRANCH   1  18
TORSDOF 5
ENDMDL
MODEL 7
REMARK VINA RESULT:      -8.6      2.605      7.826
REMARK  Name = 
REMARK  6 active torsions:
REMARK  status: ('A' for Active; 'I' for Inactive)
REMARK    1  A    between atoms: C_1  and  N_2
REMARK    2  A    between atoms: C_6  and  C_7
REMARK    3  A    between atoms: C_7  and  C_8
REMARK    4  A    between atoms: C_8  and  C_9
REMARK    5  A    between atoms: C_13  and  N_14
REMARK    6  A    between atoms: C_18  and  C_19
REMARK                            x       y       z     vdW  Elec       q    Type
REMARK                         _______ _______ _______ _____ _____    ______ ____
ROOT
ATOM      1  C   UNL     1       4.742   5.699  17.874  0.00  0.00    +0.000 A 
ATOM      2  C   UNL     1       5.671   5.290  18.857  0.00  0.00    +0.000 A 
ATOM      3  C   UNL     1       6.961   4.873  18.532  0.00  0.00    +0.000 A 
ATOM      4  C   UNL     1       7.352   4.834  17.200  0.00  0.00    +0.000 A 
ATOM      5  C   UNL     1       6.473   5.246  16.197  0.00  0.00    +0.000 A 
ATOM      6  C   UNL     1       5.204   5.716  16.540  0.00  0.00    +0.000 A 
ENDROOT
BRANCH   5   7
ATOM      7  N   UNL     1       6.827   5.019  14.845  0.00  0.00    +0.000 N 
ATOM      8  C   UNL     1       7.420   6.087  14.054  0.00  0.00    +0.000 C 
ATOM      9  C   UNL     1       8.321   5.484  12.972  0.00  0.00    +0.000 C 
ATOM     10  C   UNL     1       7.559   4.444  12.193  0.00  0.00    +0.000 C 
ATOM     11  C   UNL     1       6.504   3.798  12.718  0.00  0.00    +0.000 C 
ATOM     12  C   UNL     1       6.225   3.937  14.198  0.00  0.00    +0.000 C 
ATOM     13  O   UNL     1       5.498   3.112  14.752  0.00  0.00    +0.000 OA
BRANCH  11  14
ATOM     14  C   UNL     1       5.631   2.973  12.002  0.00  0.00    +0.000 C 
ATOM     15  C   UNL     1       4.456   2.898  11.437  0.00  0.00    +0.000 C 
ATOM     16  N   UNL     1       5.455   1.779  11.481  0.00  0.00    +0.000 N 
ATOM     17  H   UNL     1       5.082   1.084  12.133  0.00  0.00    +0.000 HD
ENDBRANCH  11  14
ENDBRANCH   5   7
BRANCH   1  18
ATOM     18  C   UNL     1       3.211   6.034  18.237  0.00  0.00    +0.000 C 
ATOM     19  C   UNL     1       2.893   6.448  19.705  0.00  0.00    +0.000 C 
ATOM     20  O   UNL     1       2.339   7.716  19.292  0.00  0.00    +0.000 OA
ATOM     21  C   UNL     1       2.751   7.491  17.931  0.00  0.00    +0.000 C 
BRANCH  18  22
ATOM     22  C   UNL     1       2.252   4.986  17.635  0.00  0.00    +0.000 C 
BRANCH  22  28
ATOM     23  C   UNL     1       0.891   3.558  20.086  0.00  0.00    +0.000 C 
ATOM     24  N   UNL     1       1.869   2.997  19.192  0.00  0.00    +0.000 N 
ATOM     25  C   UNL     1       2.384   1.740  19.283  0.00  0.00    +0.000 A 
ATOM     26  N   UNL     1       3.273   1.560  18.337  0.00  0.00    +0.000 NA
ATOM     27  N   UNL     1       3.353   2.727  17.618  0.00  0.00    +0.000 NA
ATOM     28  C   UNL     1       2.489   3.590  18.119  0.00  0.00    +0.000 A 
ENDBRANCH  22  28
ENDBRANCH  18  22
ENDBRANCH   1  18
TORSDOF 5
ENDMDL
MODEL 8
REMARK VINA RESULT:      -8.6      1.775      2.957
REMARK  Name = 
REMARK  6 active torsions:
REMARK  status: ('A' for Active; 'I' for Inactive)
REMARK    1  A    between atoms: C_1  and  N_2
REMARK    2  A    between atoms: C_6  and  C_7
REMARK    3  A    between atoms: C_7  and  C_8
REMARK    4  A    between atoms: C_8  and  C_9
REMARK    5  A    between atoms: C_13  and  N_14
REMARK    6  A    between atoms: C_18  and  C_19
REMARK                            x       y       z     vdW  Elec       q    Type
REMARK                         _______ _______ _______ _____ _____    ______ ____
ROOT
ATOM      1  C   UNL     1       4.467   4.533  17.157  0.00  0.00    +0.000 A 
ATOM      2  C   UNL     1       4.009   3.427  17.907  0.00  0.00    +0.000 A 
ATOM      3  C   UNL     1       2.951   3.528  18.810  0.00  0.00    +0.000 A 
ATOM      4  C   UNL     1       2.332   4.755  19.003  0.00  0.00    +0.000 A 
ATOM      5  C   UNL     1       2.740   5.871  18.270  0.00  0.00    +0.000 A 
ATOM      6  C   UNL     1       3.761   5.744  17.327  0.00  0.00    +0.000 A 
ENDROOT
BRANCH   5   7
ATOM      7  N   UNL     1       2.223   7.143  18.619  0.00  0.00    +0.000 N 
ATOM      8  C   UNL     1       2.548   8.311  17.814  0.00  0.00    +0.000 C 
ATOM      9  C   UNL     1       1.410   9.332  17.908  0.00  0.00    +0.000 C 
ATOM     10  C   UNL     1       1.087   9.606  19.354  0.00  0.00    +0.000 C 
ATOM     11  C   UNL     1       1.360   8.714  20.322  0.00  0.00    +0.000 C 
ATOM     12  C   UNL     1       1.773   7.314  19.930  0.00  0.00    +0.000 C 
ATOM     13  O   UNL     1       1.697   6.410  20.762  0.00  0.00    +0.000 OA
BRANCH  11  14
ATOM     14  C   UNL     1       1.275   8.970  21.694  0.00  0.00    +0.000 C 
ATOM     15  C   UNL     1       0.486   9.351  22.662  0.00  0.00    +0.000 C 
ATOM     16  N   UNL     1       1.934   8.997  22.831  0.00  0.00    +0.000 N 
ATOM     17  H   UNL     1       2.427   9.875  23.013  0.00  0.00    +0.000 HD
ENDBRANCH  11  14
ENDBRANCH   5   7
BRANCH   1  18
ATOM     18  C   UNL     1       5.781   4.449  16.232  0.00  0.00    +0.000 C 
ATOM     19  C   UNL     1       5.807   3.363  15.116  0.00  0.00    +0.000 C 
ATOM     20  O   UNL     1       5.994   4.348  14.077  0.00  0.00    +0.000 OA
ATOM     21  C   UNL     1       5.810   5.423  15.017  0.00  0.00    +0.000 C 
BRANCH  18  22
ATOM     22  C   UNL     1       7.067   4.542  17.080  0.00  0.00    +0.000 C 
BRANCH  22  28
ATOM     23  C   UNL     1       7.978   5.623  19.890  0.00  0.00    +0.000 C 
ATOM     24  N   UNL     1       7.870   6.374  18.668  0.00  0.00    +0.000 N 
ATOM     25  C   UNL     1       8.131   7.704  18.540  0.00  0.00    +0.000 A 
ATOM     26  N   UNL     1       7.902   8.081  17.305  0.00  0.00    +0.000 NA
ATOM     27  N   UNL     1       7.470   6.978  16.612  0.00  0.00    +0.000 NA
ATOM     28  C   UNL     1       7.470   5.940  17.427  0.00  0.00    +0.000 A 
ENDBRANCH  22  28
ENDBRANCH  18  22
ENDBRANCH   1  18
TORSDOF 5
ENDMDL
MODEL 9
REMARK VINA RESULT:      -8.6      3.011      4.872
REMARK  Name = 
REMARK  6 active torsions:
REMARK  status: ('A' for Active; 'I' for Inactive)
REMARK    1  A    between atoms: C_1  and  N_2
REMARK    2  A    between atoms: C_6  and  C_7
REMARK    3  A    between atoms: C_7  and  C_8
REMARK    4  A    between atoms: C_8  and  C_9
REMARK    5  A    between atoms: C_13  and  N_14
REMARK    6  A    between atoms: C_18  and  C_19
REMARK                            x       y       z     vdW  Elec       q    Type
REMARK                         _______ _______ _______ _____ _____    ______ ____
ROOT
ATOM      1  C   UNL     1       2.467   6.763  19.015  0.00  0.00    +0.000 A 
ATOM      2  C   UNL     1       2.601   7.466  17.797  0.00  0.00    +0.000 A 
ATOM      3  C   UNL     1       2.177   8.787  17.651  0.00  0.00    +0.000 A 
ATOM      4  C   UNL     1       1.582   9.436  18.723  0.00  0.00    +0.000 A 
ATOM      5  C   UNL     1       1.445   8.786  19.951  0.00  0.00    +0.000 A 
ATOM      6  C   UNL     1       1.926   7.484  20.101  0.00  0.00    +0.000 A 
ENDROOT
BRANCH   5   7
ATOM      7  N   UNL     1       0.671   9.399  20.965  0.00  0.00    +0.000 N 
ATOM      8  C   UNL     1      -0.373   8.648  21.645  0.00  0.00    +0.000 C 
ATOM      9  C   UNL     1      -0.559   9.195  23.064  0.00  0.00    +0.000 C 
ATOM     10  C   UNL     1      -0.758  10.687  23.014  0.00  0.00    +0.000 C 
ATOM     11  C   UNL     1      -0.300  11.429  21.992  0.00  0.00    +0.000 C 
ATOM     12  C   UNL     1       0.643  10.796  20.994  0.00  0.00    +0.000 C 
ATOM     13  O   UNL     1       1.327  11.520  20.270  0.00  0.00    +0.000 OA
BRANCH  11  14
ATOM     14  C   UNL     1      -0.613  12.775  21.774  0.00  0.00    +0.000 C 
ATOM     15  C   UNL     1      -1.404  13.755  22.118  0.00  0.00    +0.000 C 
ATOM     16  N   UNL     1      -0.317  13.856  21.088  0.00  0.00    +0.000 N 
ATOM     17  H   UNL     1      -0.784  13.922  20.181  0.00  0.00    +0.000 HD
ENDBRANCH  11  14
ENDBRANCH   5   7
BRANCH   1  18
ATOM     18  C   UNL     1       2.817   5.197  19.136  0.00  0.00    +0.000 C 
ATOM     19  C   UNL     1       2.935   4.594  20.568  0.00  0.00    +0.000 C 
ATOM     20  O   UNL     1       1.896   3.625  20.310  0.00  0.00    +0.000 OA
ATOM     21  C   UNL     1       1.602   4.228  19.037  0.00  0.00    +0.000 C 
BRANCH  18  22
ATOM     22  C   UNL     1       3.953   4.802  18.169  0.00  0.00    +0.000 C 
BRANCH  22  28
ATOM     23  C   UNL     1       5.994   6.740  16.762  0.00  0.00    +0.000 C 
ATOM     24  N   UNL     1       6.182   6.039  18.004  0.00  0.00    +0.000 N 
ATOM     25  C   UNL     1       7.306   6.090  18.770  0.00  0.00    +0.000 A 
ATOM     26  N   UNL     1       7.163   5.311  19.814  0.00  0.00    +0.000 NA
ATOM     27  N   UNL     1       5.924   4.727  19.725  0.00  0.00    +0.000 NA
ATOM     28  C   UNL     1       5.320   5.182  18.644  0.00  0.00    +0.000 A 
ENDBRANCH  22  28
ENDBRANCH  18  22
ENDBRANCH   1  18
TORSDOF 5
ENDMDL
