MODEL 1
REMARK VINA RESULT:      -8.2      0.000      0.000
REMARK  Name = 
REMARK  1 active torsions:
REMARK  status: ('A' for Active; 'I' for Inactive)
REMARK    1  A    between atoms: C_5  and  C_7
REMARK                            x       y       z     vdW  Elec       q    Type
REMARK                         _______ _______ _______ _____ _____    ______ ____
ROOT
ATOM      1  O   UNL     1       2.887   8.014  17.644  0.00  0.00    +0.000 OA
ATOM      2  C   UNL     1       2.992   6.888  18.125  0.00  0.00    +0.000 C 
ATOM      3  C   UNL     1       3.478   5.693  17.325  0.00  0.00    +0.000 C 
ATOM      4  N   UNL     1       4.054   4.603  18.137  0.00  0.00    +0.000 N 
ATOM      5  C   UNL     1       5.282   3.967  17.855  0.00  0.00    +0.000 C 
ATOM      6  O   UNL     1       5.842   3.175  18.621  0.00  0.00    +0.000 OA
ATOM      7  C   UNL     1       3.317   4.313  19.337  0.00  0.00    +0.000 A 
ATOM      8  C   UNL     1       3.340   3.060  19.959  0.00  0.00    +0.000 A 
ATOM      9  C   UNL     1       2.616   2.833  21.135  0.00  0.00    +0.000 A 
ATOM     10  C   UNL     1       1.880   3.861  21.721  0.00  0.00    +0.000 A 
ATOM     11  C   UNL     1       1.853   5.118  21.124  0.00  0.00    +0.000 A 
ATOM     12  C   UNL     1       2.547   5.334  19.932  0.00  0.00    +0.000 A 
ATOM     13  N   UNL     1       2.498   6.613  19.367  0.00  0.00    +0.000 N 
ATOM     14  H   UNL     1       2.065   7.382  19.859  0.00  0.00    +0.000 HD
ENDROOT
BRANCH   5  15
ATOM     15  C   UNL     1       6.043   4.305  16.618  0.00  0.00    +0.000 A 
ATOM     16  C   UNL     1       6.939   5.362  16.644  0.00  0.00    +0.000 A 
ATOM     17  N   UNL     1       7.586   5.798  15.530  0.00  0.00    +0.000 NA
ATOM     18  C   UNL     1       7.304   5.148  14.383  0.00  0.00    +0.000 A 
ATOM     19  C   UNL     1       7.874   5.569  13.187  0.00  0.00    +0.000 A 
ATOM     20  C   UNL     1       7.576   4.934  11.978  0.00  0.00    +0.000 A 
ATOM     21  C   UNL     1       6.698   3.859  11.965  0.00  0.00    +0.000 A 
ATOM     22  C   UNL     1       6.125   3.423  13.159  0.00  0.00    +0.000 A 
ATOM     23  C   UNL     1       6.414   4.043  14.367  0.00  0.00    +0.000 A 
ATOM     24  N   UNL     1       5.810   3.601  15.483  0.00  0.00    +0.000 NA
ENDBRANCH   5  15
TORSDOF 1
ENDMDL
MODEL 2
REMARK VINA RESULT:      -7.6      1.336      2.632
REMARK  Name = 
REMARK  1 active torsions:
REMARK  status: ('A' for Active; 'I' for Inactive)
REMARK    1  A    between atoms: C_5  and  C_7
REMARK                            x       y       z     vdW  Elec       q    Type
REMARK                         _______ _______ _______ _____ _____    ______ ____
ROOT
ATOM      1  O   UNL     1       3.741   1.099  18.214  0.00  0.00    +0.000 OA
ATOM      2  C   UNL     1       3.591   2.280  18.517  0.00  0.00    +0.000 C 
ATOM      3  C   UNL     1       4.622   3.349  18.201  0.00  0.00    +0.000 C 
ATOM      4  N   UNL     1       4.081   4.721  18.125  0.00  0.00    +0.000 N 
ATOM      5  C   UNL     1       4.356   5.625  17.077  0.00  0.00    +0.000 C 
ATOM      6  O   UNL     1       3.776   6.706  16.928  0.00  0.00    +0.000 OA
ATOM      7  C   UNL     1       3.129   5.033  19.157  0.00  0.00    +0.000 A 
ATOM      8  C   UNL     1       2.892   6.339  19.601  0.00  0.00    +0.000 A 
ATOM      9  C   UNL     1       1.944   6.593  20.598  0.00  0.00    +0.000 A 
ATOM     10  C   UNL     1       1.199   5.551  21.147  0.00  0.00    +0.000 A 
ATOM     11  C   UNL     1       1.411   4.246  20.710  0.00  0.00    +0.000 A 
ATOM     12  C   UNL     1       2.383   3.990  19.740  0.00  0.00    +0.000 A 
ATOM     13  N   UNL     1       2.561   2.665  19.326  0.00  0.00    +0.000 N 
ATOM     14  H   UNL     1       1.936   1.935  19.637  0.00  0.00    +0.000 HD
ENDROOT
BRANCH   5  15
ATOM     15  C   UNL     1       5.326   5.266  16.002  0.00  0.00    +0.000 A 
ATOM     16  C   UNL     1       6.596   5.819  16.028  0.00  0.00    +0.000 A 
ATOM     17  N   UNL     1       7.496   5.625  15.027  0.00  0.00    +0.000 NA
ATOM     18  C   UNL     1       7.084   4.866  13.992  0.00  0.00    +0.000 A 
ATOM     19  C   UNL     1       7.919   4.669  12.898  0.00  0.00    +0.000 A 
ATOM     20  C   UNL     1       7.507   3.912  11.798  0.00  0.00    +0.000 A 
ATOM     21  C   UNL     1       6.242   3.340  11.792  0.00  0.00    +0.000 A 
ATOM     22  C   UNL     1       5.397   3.525  12.886  0.00  0.00    +0.000 A 
ATOM     23  C   UNL     1       5.796   4.272  13.986  0.00  0.00    +0.000 A 
ATOM     24  N   UNL     1       4.930   4.443  15.001  0.00  0.00    +0.000 NA
ENDBRANCH   5  15
TORSDOF 1
ENDMDL
MODEL 3
REMARK VINA RESULT:      -7.3      3.314      5.165
REMARK  Name = 
REMARK  1 active torsions:
REMARK  status: ('A' for Active; 'I' for Inactive)
REMARK    1  A    between atoms: C_5  and  C_7
REMARK                            x       y       z     vdW  Elec       q    Type
REMARK                         _______ _______ _______ _____ _____    ______ ____
ROOT
ATOM      1  O   UNL     1       2.482  11.186  17.394  0.00  0.00    +0.000 OA
ATOM      2  C   UNL     1       1.933  10.575  18.309  0.00  0.00    +0.000 C 
ATOM      3  C   UNL     1       1.573   9.103  18.217  0.00  0.00    +0.000 C 
ATOM      4  N   UNL     1       1.446   8.419  19.519  0.00  0.00    +0.000 N 
ATOM      5  C   UNL     1       2.045   7.179  19.826  0.00  0.00    +0.000 C 
ATOM      6  O   UNL     1       2.076   6.689  20.960  0.00  0.00    +0.000 OA
ATOM      7  C   UNL     1       0.753   9.187  20.519  0.00  0.00    +0.000 A 
ATOM      8  C   UNL     1       0.073   8.600  21.591  0.00  0.00    +0.000 A 
ATOM      9  C   UNL     1      -0.573   9.392  22.546  0.00  0.00    +0.000 A 
ATOM     10  C   UNL     1      -0.527  10.782  22.460  0.00  0.00    +0.000 A 
ATOM     11  C   UNL     1       0.155  11.386  21.408  0.00  0.00    +0.000 A 
ATOM     12  C   UNL     1       0.769  10.594  20.435  0.00  0.00    +0.000 A 
ATOM     13  N   UNL     1       1.448  11.241  19.397  0.00  0.00    +0.000 N 
ATOM     14  H   UNL     1       1.581  12.242  19.407  0.00  0.00    +0.000 HD
ENDROOT
BRANCH   5  15
ATOM     15  C   UNL     1       2.783   6.415  18.779  0.00  0.00    +0.000 A 
ATOM     16  C   UNL     1       2.268   5.208  18.336  0.00  0.00    +0.000 A 
ATOM     17  N   UNL     1       2.936   4.404  17.466  0.00  0.00    +0.000 NA
ATOM     18  C   UNL     1       4.144   4.842  17.056  0.00  0.00    +0.000 A 
ATOM     19  C   UNL     1       4.921   4.054  16.215  0.00  0.00    +0.000 A 
ATOM     20  C   UNL     1       6.189   4.468  15.799  0.00  0.00    +0.000 A 
ATOM     21  C   UNL     1       6.687   5.692  16.227  0.00  0.00    +0.000 A 
ATOM     22  C   UNL     1       5.914   6.495  17.065  0.00  0.00    +0.000 A 
ATOM     23  C   UNL     1       4.652   6.096  17.483  0.00  0.00    +0.000 A 
ATOM     24  N   UNL     1       3.963   6.896  18.315  0.00  0.00    +0.000 NA
ENDBRANCH   5  15
TORSDOF 1
ENDMDL
MODEL 4
REMARK VINA RESULT:      -7.3      2.916      7.649
REMARK  Name = 
REMARK  1 active torsions:
REMARK  status: ('A' for Active; 'I' for Inactive)
REMARK    1  A    between atoms: C_5  and  C_7
REMARK                            x       y       z     vdW  Elec       q    Type
REMARK                         _______ _______ _______ _____ _____    ______ ____
ROOT
ATOM      1  O   UNL     1       1.888   3.272  19.414  0.00  0.00    +0.000 OA
ATOM      2  C   UNL     1       2.579   3.902  18.617  0.00  0.00    +0.000 C 
ATOM      3  C   UNL     1       2.136   5.219  18.004  0.00  0.00    +0.000 C 
ATOM      4  N   UNL     1       3.239   6.082  17.537  0.00  0.00    +0.000 N 
ATOM      5  C   UNL     1       3.351   7.457  17.831  0.00  0.00    +0.000 C 
ATOM      6  O   UNL     1       4.351   8.138  17.581  0.00  0.00    +0.000 OA
ATOM      7  C   UNL     1       4.284   5.374  16.847  0.00  0.00    +0.000 A 
ATOM      8  C   UNL     1       5.116   5.982  15.900  0.00  0.00    +0.000 A 
ATOM      9  C   UNL     1       6.128   5.253  15.267  0.00  0.00    +0.000 A 
ATOM     10  C   UNL     1       6.343   3.914  15.589  0.00  0.00    +0.000 A 
ATOM     11  C   UNL     1       5.534   3.294  16.537  0.00  0.00    +0.000 A 
ATOM     12  C   UNL     1       4.501   4.013  17.142  0.00  0.00    +0.000 A 
ATOM     13  N   UNL     1       3.714   3.353  18.093  0.00  0.00    +0.000 N 
ATOM     14  H   UNL     1       3.951   2.424  18.410  0.00  0.00    +0.000 HD
ENDROOT
BRANCH   5  15
ATOM     15  C   UNL     1       2.266   8.163  18.573  0.00  0.00    +0.000 A 
ATOM     16  C   UNL     1       1.461   9.063  17.896  0.00  0.00    +0.000 A 
ATOM     17  N   UNL     1       0.525   9.823  18.526  0.00  0.00    +0.000 NA
ATOM     18  C   UNL     1       0.424   9.661  19.861  0.00  0.00    +0.000 A 
ATOM     19  C   UNL     1      -0.463  10.443  20.591  0.00  0.00    +0.000 A 
ATOM     20  C   UNL     1      -0.567  10.317  21.980  0.00  0.00    +0.000 A 
ATOM     21  C   UNL     1       0.226   9.393  22.647  0.00  0.00    +0.000 A 
ATOM     22  C   UNL     1       1.115   8.599  21.925  0.00  0.00    +0.000 A 
ATOM     23  C   UNL     1       1.226   8.711  20.546  0.00  0.00    +0.000 A 
ATOM     24  N   UNL     1       2.121   7.941  19.903  0.00  0.00    +0.000 NA
ENDBRANCH   5  15
TORSDOF 1
ENDMDL
MODEL 5
REMARK VINA RESULT:      -7.1      3.851      6.541
REMARK  Name = 
REMARK  1 active torsions:
REMARK  status: ('A' for Active; 'I' for Inactive)
REMARK    1  A    between atoms: C_5  and  C_7
REMARK                            x       y       z     vdW  Elec       q    Type
REMARK                         _______ _______ _______ _____ _____    ______ ____
ROOT
ATOM      1  O   UNL     1      -0.509   7.845  21.935  0.00  0.00    +0.000 OA
ATOM      2  C   UNL     1       0.014   8.657  21.176  0.00  0.00    +0.000 C 
ATOM      3  C   UNL     1       1.392   8.452  20.573  0.00  0.00    +0.000 C 
ATOM      4  N   UNL     1       1.630   9.192  19.317  0.00  0.00    +0.000 N 
ATOM      5  C   UNL     1       2.182   8.621  18.151  0.00  0.00    +0.000 C 
ATOM      6  O   UNL     1       2.227   9.192  17.057  0.00  0.00    +0.000 OA
ATOM      7  C   UNL     1       1.130  10.541  19.329  0.00  0.00    +0.000 A 
ATOM      8  C   UNL     1       1.663  11.555  18.526  0.00  0.00    +0.000 A 
ATOM      9  C   UNL     1       1.131  12.849  18.563  0.00  0.00    +0.000 A 
ATOM     10  C   UNL     1       0.041  13.141  19.381  0.00  0.00    +0.000 A 
ATOM     11  C   UNL     1      -0.512  12.144  20.178  0.00  0.00    +0.000 A 
ATOM     12  C   UNL     1       0.043  10.862  20.167  0.00  0.00    +0.000 A 
ATOM     13  N   UNL     1      -0.546   9.887  20.979  0.00  0.00    +0.000 N 
ATOM     14  H   UNL     1      -1.407  10.072  21.474  0.00  0.00    +0.000 HD
ENDROOT
BRANCH   5  15
ATOM     15  C   UNL     1       2.668   7.210  18.156  0.00  0.00    +0.000 A 
ATOM     16  C   UNL     1       3.994   6.953  17.853  0.00  0.00    +0.000 A 
ATOM     17  N   UNL     1       4.483   5.689  17.732  0.00  0.00    +0.000 NA
ATOM     18  C   UNL     1       3.600   4.687  17.916  0.00  0.00    +0.000 A 
ATOM     19  C   UNL     1       4.002   3.367  17.749  0.00  0.00    +0.000 A 
ATOM     20  C   UNL     1       3.101   2.309  17.902  0.00  0.00    +0.000 A 
ATOM     21  C   UNL     1       1.779   2.576  18.232  0.00  0.00    +0.000 A 
ATOM     22  C   UNL     1       1.365   3.896  18.409  0.00  0.00    +0.000 A 
ATOM     23  C   UNL     1       2.250   4.955  18.261  0.00  0.00    +0.000 A 
ATOM     24  N   UNL     1       1.791   6.209  18.414  0.00  0.00    +0.000 NA
ENDBRANCH   5  15
TORSDOF 1
ENDMDL
MODEL 6
REMARK VINA RESULT:      -7.0      1.588      1.598
REMARK  Name = 
REMARK  1 active torsions:
REMARK  status: ('A' for Active; 'I' for Inactive)
REMARK    1  A    between atoms: C_5  and  C_7
REMARK                            x       y       z     vdW  Elec       q    Type
REMARK                         _______ _______ _______ _____ _____    ______ ____
ROOT
ATOM      1  O   UNL     1       0.975   4.728  16.450  0.00  0.00    +0.000 OA
ATOM      2  C   UNL     1       1.619   4.216  17.362  0.00  0.00    +0.000 C 
ATOM      3  C   UNL     1       2.953   3.525  17.141  0.00  0.00    +0.000 C 
ATOM      4  N   UNL     1       3.820   3.465  18.334  0.00  0.00    +0.000 N 
ATOM      5  C   UNL     1       5.188   3.814  18.341  0.00  0.00    +0.000 C 
ATOM      6  O   UNL     1       5.868   3.921  19.366  0.00  0.00    +0.000 OA
ATOM      7  C   UNL     1       3.123   3.137  19.549  0.00  0.00    +0.000 A 
ATOM      8  C   UNL     1       3.748   2.529  20.643  0.00  0.00    +0.000 A 
ATOM      9  C   UNL     1       3.029   2.243  21.808  0.00  0.00    +0.000 A 
ATOM     10  C   UNL     1       1.682   2.585  21.909  0.00  0.00    +0.000 A 
ATOM     11  C   UNL     1       1.044   3.201  20.836  0.00  0.00    +0.000 A 
ATOM     12  C   UNL     1       1.754   3.453  19.660  0.00  0.00    +0.000 A 
ATOM     13  N   UNL     1       1.077   4.078  18.608  0.00  0.00    +0.000 N 
ATOM     14  H   UNL     1       0.139   4.432  18.730  0.00  0.00    +0.000 HD
ENDROOT
BRANCH   5  15
ATOM     15  C   UNL     1       5.882   4.178  17.071  0.00  0.00    +0.000 A 
ATOM     16  C   UNL     1       6.707   5.290  17.049  0.00  0.00    +0.000 A 
ATOM     17  N   UNL     1       7.286   5.747  15.906  0.00  0.00    +0.000 NA
ATOM     18  C   UNL     1       7.007   5.060  14.780  0.00  0.00    +0.000 A 
ATOM     19  C   UNL     1       7.507   5.496  13.558  0.00  0.00    +0.000 A 
ATOM     20  C   UNL     1       7.208   4.822  12.371  0.00  0.00    +0.000 A 
ATOM     21  C   UNL     1       6.400   3.692  12.406  0.00  0.00    +0.000 A 
ATOM     22  C   UNL     1       5.899   3.242  13.626  0.00  0.00    +0.000 A 
ATOM     23  C   UNL     1       6.190   3.901  14.813  0.00  0.00    +0.000 A 
ATOM     24  N   UNL     1       5.655   3.440  15.957  0.00  0.00    +0.000 NA
ENDBRANCH   5  15
TORSDOF 1
ENDMDL
MODEL 7
REMARK VINA RESULT:      -6.9      4.022      7.150
REMARK  Name = 
REMARK  1 active torsions:
REMARK  status: ('A' for Active; 'I' for Inactive)
REMARK    1  A    between atoms: C_5  and  C_7
REMARK                            x       y       z     vdW  Elec       q    Type
REMARK                         _______ _______ _______ _____ _____    ______ ____
ROOT
ATOM      1  O   UNL     1      -0.792   8.313  22.322  0.00  0.00    +0.000 OA
ATOM      2  C   UNL     1      -0.215   9.011  21.491  0.00  0.00    +0.000 C 
ATOM      3  C   UNL     1       1.184   8.704  20.987  0.00  0.00    +0.000 C 
ATOM      4  N   UNL     1       1.497   9.271  19.660  0.00  0.00    +0.000 N 
ATOM      5  C   UNL     1       2.087   8.543  18.605  0.00  0.00    +0.000 C 
ATOM      6  O   UNL     1       2.197   8.968  17.450  0.00  0.00    +0.000 OA
ATOM      7  C   UNL     1       1.030  10.619  19.474  0.00  0.00    +0.000 A 
ATOM      8  C   UNL     1       1.624  11.511  18.575  0.00  0.00    +0.000 A 
ATOM      9  C   UNL     1       1.123  12.808  18.420  0.00  0.00    +0.000 A 
ATOM     10  C   UNL     1       0.005  13.224  19.139  0.00  0.00    +0.000 A 
ATOM     11  C   UNL     1      -0.609  12.348  20.029  0.00  0.00    +0.000 A 
ATOM     12  C   UNL     1      -0.085  11.066  20.210  0.00  0.00    +0.000 A 
ATOM     13  N   UNL     1      -0.735  10.215  21.111  0.00  0.00    +0.000 N 
ATOM     14  H   UNL     1      -1.612  10.479  21.536  0.00  0.00    +0.000 HD
ENDROOT
BRANCH   5  15
ATOM     15  C   UNL     1       2.537   7.137  18.815  0.00  0.00    +0.000 A 
ATOM     16  C   UNL     1       3.465   6.588  17.945  0.00  0.00    +0.000 A 
ATOM     17  N   UNL     1       3.841   5.282  18.006  0.00  0.00    +0.000 NA
ATOM     18  C   UNL     1       3.253   4.537  18.963  0.00  0.00    +0.000 A 
ATOM     19  C   UNL     1       3.533   3.178  19.056  0.00  0.00    +0.000 A 
ATOM     20  C   UNL     1       2.915   2.374  20.018  0.00  0.00    +0.000 A 
ATOM     21  C   UNL     1       2.005   2.938  20.904  0.00  0.00    +0.000 A 
ATOM     22  C   UNL     1       1.721   4.301  20.825  0.00  0.00    +0.000 A 
ATOM     23  C   UNL     1       2.330   5.111  19.876  0.00  0.00    +0.000 A 
ATOM     24  N   UNL     1       1.997   6.412  19.825  0.00  0.00    +0.000 NA
ENDBRANCH   5  15
TORSDOF 1
ENDMDL
MODEL 8
REMARK VINA RESULT:      -6.9      5.667      8.395
REMARK  Name = 
REMARK  1 active torsions:
REMARK  status: ('A' for Active; 'I' for Inactive)
REMARK    1  A    between atoms: C_5  and  C_7
REMARK                            x       y       z     vdW  Elec       q    Type
REMARK                         _______ _______ _______ _____ _____    ______ ____
ROOT
ATOM      1  O   UNL     1       0.274   9.585  23.903  0.00  0.00    +0.000 OA
ATOM      2  C   UNL     1      -0.238  10.284  23.031  0.00  0.00    +0.000 C 
ATOM      3  C   UNL     1       0.474  10.645  21.740  0.00  0.00    +0.000 C 
ATOM      4  N   UNL     1      -0.422  10.993  20.620  0.00  0.00    +0.000 N 
ATOM      5  C   UNL     1      -0.303  10.469  19.315  0.00  0.00    +0.000 C 
ATOM      6  O   UNL     1      -1.145  10.630  18.426  0.00  0.00    +0.000 OA
ATOM      7  C   UNL     1      -1.531  11.828  20.995  0.00  0.00    +0.000 A 
ATOM      8  C   UNL     1      -2.177  12.683  20.094  0.00  0.00    +0.000 A 
ATOM      9  C   UNL     1      -3.261  13.466  20.505  0.00  0.00    +0.000 A 
ATOM     10  C   UNL     1      -3.735  13.386  21.813  0.00  0.00    +0.000 A 
ATOM     11  C   UNL     1      -3.115  12.533  22.722  0.00  0.00    +0.000 A 
ATOM     12  C   UNL     1      -2.009  11.779  22.320  0.00  0.00    +0.000 A 
ATOM     13  N   UNL     1      -1.418  10.932  23.263  0.00  0.00    +0.000 N 
ATOM     14  H   UNL     1      -1.839  10.787  24.169  0.00  0.00    +0.000 HD
ENDROOT
BRANCH   5  15
ATOM     15  C   UNL     1       0.842   9.581  18.958  0.00  0.00    +0.000 A 
ATOM     16  C   UNL     1       1.556   9.834  17.799  0.00  0.00    +0.000 A 
ATOM     17  N   UNL     1       2.540   9.007  17.352  0.00  0.00    +0.000 NA
ATOM     18  C   UNL     1       2.782   7.911  18.099  0.00  0.00    +0.000 A 
ATOM     19  C   UNL     1       3.728   6.982  17.681  0.00  0.00    +0.000 A 
ATOM     20  C   UNL     1       3.979   5.821  18.419  0.00  0.00    +0.000 A 
ATOM     21  C   UNL     1       3.276   5.588  19.594  0.00  0.00    +0.000 A 
ATOM     22  C   UNL     1       2.330   6.516  20.026  0.00  0.00    +0.000 A 
ATOM     23  C   UNL     1       2.073   7.674  19.304  0.00  0.00    +0.000 A 
ATOM     24  N   UNL     1       1.129   8.520  19.752  0.00  0.00    +0.000 NA
ENDBRANCH   5  15
TORSDOF 1
ENDMDL
MODEL 9
REMARK VINA RESULT:      -6.9      5.744      8.334
REMARK  Name = 
REMARK  1 active torsions:
REMARK  status: ('A' for Active; 'I' for Inactive)
REMARK    1  A    between atoms: C_5  and  C_7
REMARK                            x       y       z     vdW  Elec       q    Type
REMARK                         _______ _______ _______ _____ _____    ______ ____
ROOT
ATOM      1  O   UNL     1      -2.372  11.139  16.704  0.00  0.00    +0.000 OA
ATOM      2  C   UNL     1      -2.191  11.301  17.909  0.00  0.00    +0.000 C 
ATOM      3  C   UNL     1      -1.487  10.277  18.781  0.00  0.00    +0.000 C 
ATOM      4  N   UNL     1      -0.881  10.827  20.010  0.00  0.00    +0.000 N 
ATOM      5  C   UNL     1       0.435  10.554  20.438  0.00  0.00    +0.000 C 
ATOM      6  O   UNL     1       0.994  11.141  21.370  0.00  0.00    +0.000 OA
ATOM      7  C   UNL     1      -1.708  11.788  20.690  0.00  0.00    +0.000 A 
ATOM      8  C   UNL     1      -1.609  12.037  22.063  0.00  0.00    +0.000 A 
ATOM      9  C   UNL     1      -2.427  12.993  22.676  0.00  0.00    +0.000 A 
ATOM     10  C   UNL     1      -3.336  13.732  21.923  0.00  0.00    +0.000 A 
ATOM     11  C   UNL     1      -3.442  13.508  20.553  0.00  0.00    +0.000 A 
ATOM     12  C   UNL     1      -2.651  12.529  19.949  0.00  0.00    +0.000 A 
ATOM     13  N   UNL     1      -2.785  12.338  18.569  0.00  0.00    +0.000 N 
ATOM     14  H   UNL     1      -3.354  12.959  18.011  0.00  0.00    +0.000 HD
ENDROOT
BRANCH   5  15
ATOM     15  C   UNL     1       1.283   9.575  19.698  0.00  0.00    +0.000 A 
ATOM     16  C   UNL     1       1.773   9.916  18.448  0.00  0.00    +0.000 A 
ATOM     17  N   UNL     1       2.460   9.038  17.668  0.00  0.00    +0.000 NA
ATOM     18  C   UNL     1       2.636   7.802  18.175  0.00  0.00    +0.000 A 
ATOM     19  C   UNL     1       3.273   6.825  17.419  0.00  0.00    +0.000 A 
ATOM     20  C   UNL     1       3.443   5.525  17.907  0.00  0.00    +0.000 A 
ATOM     21  C   UNL     1       2.973   5.200  19.172  0.00  0.00    +0.000 A 
ATOM     22  C   UNL     1       2.338   6.173  19.943  0.00  0.00    +0.000 A 
ATOM     23  C   UNL     1       2.165   7.467  19.471  0.00  0.00    +0.000 A 
ATOM     24  N   UNL     1       1.520   8.357  20.245  0.00  0.00    +0.000 NA
ENDBRANCH   5  15
TORSDOF 1
ENDMDL
