MODEL 1
REMARK VINA RESULT:      -8.5      0.000      0.000
REMARK  Name = 
REMARK  7 active torsions:
REMARK  status: ('A' for Active; 'I' for Inactive)
REMARK    1  A    between atoms: C_1  and  C_2
REMARK    2  A    between atoms: C_4  and  N_5
REMARK    3  A    between atoms: C_6  and  C_8
REMARK    4  A    between atoms: C_8  and  S_9
REMARK    5  A    between atoms: S_9  and  C_10
REMARK    6  A    between atoms: N_14  and  C_15
REMARK    7  A    between atoms: N_21  and  C_22
REMARK                            x       y       z     vdW  Elec       q    Type
REMARK                         _______ _______ _______ _____ _____    ______ ____
ROOT
ATOM      1  N   UNL     1       4.339   5.526  17.278  0.00  0.00    +0.000 N 
ATOM      2  C   UNL     1       5.601   5.348  17.940  0.00  0.00    +0.000 C 
ATOM      3  O   UNL     1       5.888   6.056  18.898  0.00  0.00    +0.000 OA
ATOM      4  H   UNL     1       4.120   5.039  16.415  0.00  0.00    +0.000 HD
ENDROOT
BRANCH   1   8
ATOM      5  C   UNL     1       1.816   9.747  18.042  0.00  0.00    +0.000 C 
ATOM      6  C   UNL     1       2.344   8.361  18.105  0.00  0.00    +0.000 A 
ATOM      7  C   UNL     1       3.336   7.767  17.296  0.00  0.00    +0.000 A 
ATOM      8  C   UNL     1       3.432   6.470  17.745  0.00  0.00    +0.000 A 
ATOM      9  N   UNL     1       2.531   6.343  18.791  0.00  0.00    +0.000 N 
ATOM     10  N   UNL     1       1.893   7.516  19.038  0.00  0.00    +0.000 NA
BRANCH   9  11
ATOM     11  C   UNL     1       2.201   5.176  19.533  0.00  0.00    +0.000 A 
ATOM     12  C   UNL     1       2.569   5.105  20.887  0.00  0.00    +0.000 A 
ATOM     13  C   UNL     1       2.247   3.980  21.644  0.00  0.00    +0.000 A 
ATOM     14  C   UNL     1       1.543   2.936  21.061  0.00  0.00    +0.000 A 
ATOM     15  F   UNL     1       1.217   1.864  21.792  0.00  0.00    +0.000 F 
ATOM     16  C   UNL     1       1.157   2.993  19.728  0.00  0.00    +0.000 A 
ATOM     17  C   UNL     1       1.483   4.108  18.960  0.00  0.00    +0.000 A 
ENDBRANCH   9  11
ENDBRANCH   1   8
BRANCH   2  18
ATOM     18  C   UNL     1       6.532   4.339  17.315  0.00  0.00    +0.000 C 
BRANCH  18  19
ATOM     19  S   UNL     1       5.858   3.713  15.760  0.00  0.00    +0.000 S 
BRANCH  19  20
ATOM     20  C   UNL     1       6.789   4.613  14.604  0.00  0.00    +0.000 A 
ATOM     21  N   UNL     1       7.663   5.542  14.920  0.00  0.00    +0.000 NA
ATOM     22  N   UNL     1       8.354   5.811  13.771  0.00  0.00    +0.000 NA
ATOM     23  N   UNL     1       7.936   5.045  12.773  0.00  0.00    +0.000 NA
ATOM     24  N   UNL     1       6.876   4.340  13.247  0.00  0.00    +0.000 N 
BRANCH  24  25
ATOM     25  C   UNL     1       6.092   3.521  12.399  0.00  0.00    +0.000 A 
ATOM     26  C   UNL     1       6.644   2.340  11.883  0.00  0.00    +0.000 A 
ATOM     27  C   UNL     1       5.868   1.501  11.079  0.00  0.00    +0.000 A 
ATOM     28  C   UNL     1       4.556   1.853  10.760  0.00  0.00    +0.000 A 
ATOM     29  C   UNL     1       4.019   3.045  11.234  0.00  0.00    +0.000 A 
ATOM     30  C   UNL     1       4.782   3.880  12.053  0.00  0.00    +0.000 A 
ENDBRANCH  24  25
ENDBRANCH  19  20
ENDBRANCH  18  19
ENDBRANCH   2  18
TORSDOF 6
ENDMDL
MODEL 2
REMARK VINA RESULT:      -8.4      4.466      9.079
REMARK  Name = 
REMARK  7 active torsions:
REMARK  status: ('A' for Active; 'I' for Inactive)
REMARK    1  A    between atoms: C_1  and  C_2
REMARK    2  A    between atoms: C_4  and  N_5
REMARK    3  A    between atoms: C_6  and  C_8
REMARK    4  A    between atoms: C_8  and  S_9
REMARK    5  A    between atoms: S_9  and  C_10
REMARK    6  A    between atoms: N_14  and  C_15
REMARK    7  A    between atoms: N_21  and  C_22
REMARK                            x       y       z     vdW  Elec       q    Type
REMARK                         _______ _______ _______ _____ _____    ______ ____
ROOT
ATOM      1  N   UNL     1       2.838   6.857  19.571  0.00  0.00    +0.000 N 
ATOM      2  C   UNL     1       2.382   7.264  18.272  0.00  0.00    +0.000 C 
ATOM      3  O   UNL     1       1.951   6.424  17.490  0.00  0.00    +0.000 OA
ATOM      4  H   UNL     1       3.306   7.506  20.196  0.00  0.00    +0.000 HD
ENDROOT
BRANCH   1   8
ATOM      5  C   UNL     1       1.512   2.604  21.788  0.00  0.00    +0.000 C 
ATOM      6  C   UNL     1       2.185   3.647  20.974  0.00  0.00    +0.000 A 
ATOM      7  C   UNL     1       1.835   5.007  20.834  0.00  0.00    +0.000 A 
ATOM      8  C   UNL     1       2.757   5.524  19.954  0.00  0.00    +0.000 A 
ATOM      9  N   UNL     1       3.615   4.487  19.622  0.00  0.00    +0.000 N 
ATOM     10  N   UNL     1       3.288   3.345  20.281  0.00  0.00    +0.000 NA
BRANCH   9  11
ATOM     11  C   UNL     1       4.687   4.495  18.688  0.00  0.00    +0.000 A 
ATOM     12  C   UNL     1       4.456   4.021  17.386  0.00  0.00    +0.000 A 
ATOM     13  C   UNL     1       5.484   4.029  16.444  0.00  0.00    +0.000 A 
ATOM     14  C   UNL     1       6.733   4.525  16.791  0.00  0.00    +0.000 A 
ATOM     15  F   UNL     1       7.714   4.551  15.881  0.00  0.00    +0.000 F 
ATOM     16  C   UNL     1       6.976   5.012  18.068  0.00  0.00    +0.000 A 
ATOM     17  C   UNL     1       5.960   4.999  19.020  0.00  0.00    +0.000 A 
ENDBRANCH   9  11
ENDBRANCH   1   8
BRANCH   2  18
ATOM     18  C   UNL     1       2.570   8.723  17.938  0.00  0.00    +0.000 C 
BRANCH  18  19
ATOM     19  S   UNL     1       1.027   9.639  18.151  0.00  0.00    +0.000 S 
BRANCH  19  20
ATOM     20  C   UNL     1       1.614  11.140  18.796  0.00  0.00    +0.000 A 
ATOM     21  N   UNL     1       2.349  11.997  18.124  0.00  0.00    +0.000 NA
ATOM     22  N   UNL     1       2.375  13.138  18.878  0.00  0.00    +0.000 NA
ATOM     23  N   UNL     1       1.650  12.999  19.979  0.00  0.00    +0.000 NA
ATOM     24  N   UNL     1       1.231  11.706  20.003  0.00  0.00    +0.000 N 
BRANCH  24  25
ATOM     25  C   UNL     1       0.546  11.170  21.119  0.00  0.00    +0.000 A 
ATOM     26  C   UNL     1      -0.476  11.918  21.721  0.00  0.00    +0.000 A 
ATOM     27  C   UNL     1      -1.190  11.383  22.797  0.00  0.00    +0.000 A 
ATOM     28  C   UNL     1      -0.864  10.122  23.297  0.00  0.00    +0.000 A 
ATOM     29  C   UNL     1       0.178   9.396  22.731  0.00  0.00    +0.000 A 
ATOM     30  C   UNL     1       0.884   9.915  21.643  0.00  0.00    +0.000 A 
ENDBRANCH  24  25
ENDBRANCH  19  20
ENDBRANCH  18  19
ENDBRANCH   2  18
TORSDOF 6
ENDMDL
MODEL 3
REMARK VINA RESULT:      -8.3      4.345      9.005
REMARK  Name = 
REMARK  7 active torsions:
REMARK  status: ('A' for Active; 'I' for Inactive)
REMARK    1  A    between atoms: C_1  and  C_2
REMARK    2  A    between atoms: C_4  and  N_5
REMARK    3  A    between atoms: C_6  and  C_8
REMARK    4  A    between atoms: C_8  and  S_9
REMARK    5  A    between atoms: S_9  and  C_10
REMARK    6  A    between atoms: N_14  and  C_15
REMARK    7  A    between atoms: N_21  and  C_22
REMARK                            x       y       z     vdW  Elec       q    Type
REMARK                         _______ _______ _______ _____ _____    ______ ____
ROOT
ATOM      1  N   UNL     1       2.972   6.860  19.484  0.00  0.00    +0.000 N 
ATOM      2  C   UNL     1       2.371   7.327  18.267  0.00  0.00    +0.000 C 
ATOM      3  O   UNL     1       1.801   6.533  17.527  0.00  0.00    +0.000 OA
ATOM      4  H   UNL     1       3.547   7.467  20.059  0.00  0.00    +0.000 HD
ENDROOT
BRANCH   1   8
ATOM      5  C   UNL     1       1.710   2.595  21.716  0.00  0.00    +0.000 C 
ATOM      6  C   UNL     1       2.338   3.637  20.866  0.00  0.00    +0.000 A 
ATOM      7  C   UNL     1       2.028   5.011  20.795  0.00  0.00    +0.000 A 
ATOM      8  C   UNL     1       2.877   5.520  19.840  0.00  0.00    +0.000 A 
ATOM      9  N   UNL     1       3.658   4.463  19.397  0.00  0.00    +0.000 N 
ATOM     10  N   UNL     1       3.354   3.315  20.057  0.00  0.00    +0.000 NA
BRANCH   9  11
ATOM     11  C   UNL     1       4.630   4.459  18.361  0.00  0.00    +0.000 A 
ATOM     12  C   UNL     1       5.964   4.761  18.680  0.00  0.00    +0.000 A 
ATOM     13  C   UNL     1       6.943   4.751  17.687  0.00  0.00    +0.000 A 
ATOM     14  C   UNL     1       6.599   4.423  16.383  0.00  0.00    +0.000 A 
ATOM     15  F   UNL     1       7.541   4.394  15.434  0.00  0.00    +0.000 F 
ATOM     16  C   UNL     1       5.288   4.106  16.051  0.00  0.00    +0.000 A 
ATOM     17  C   UNL     1       4.300   4.123  17.033  0.00  0.00    +0.000 A 
ENDBRANCH   9  11
ENDBRANCH   1   8
BRANCH   2  18
ATOM     18  C   UNL     1       2.583   8.787  17.949  0.00  0.00    +0.000 C 
BRANCH  18  19
ATOM     19  S   UNL     1       1.040   9.714  18.105  0.00  0.00    +0.000 S 
BRANCH  19  20
ATOM     20  C   UNL     1       1.611  11.204  18.788  0.00  0.00    +0.000 A 
ATOM     21  N   UNL     1       2.345  12.081  18.141  0.00  0.00    +0.000 NA
ATOM     22  N   UNL     1       2.356  13.205  18.922  0.00  0.00    +0.000 NA
ATOM     23  N   UNL     1       1.624  13.036  20.013  0.00  0.00    +0.000 NA
ATOM     24  N   UNL     1       1.214  11.740  20.005  0.00  0.00    +0.000 N 
BRANCH  24  25
ATOM     25  C   UNL     1       0.524  11.174  21.103  0.00  0.00    +0.000 A 
ATOM     26  C   UNL     1       0.928   9.924  21.596  0.00  0.00    +0.000 A 
ATOM     27  C   UNL     1       0.284   9.371  22.706  0.00  0.00    +0.000 A 
ATOM     28  C   UNL     1      -0.784  10.042  23.302  0.00  0.00    +0.000 A 
ATOM     29  C   UNL     1      -1.216  11.260  22.790  0.00  0.00    +0.000 A 
ATOM     30  C   UNL     1      -0.565  11.829  21.692  0.00  0.00    +0.000 A 
ENDBRANCH  24  25
ENDBRANCH  19  20
ENDBRANCH  18  19
ENDBRANCH   2  18
TORSDOF 6
ENDMDL
MODEL 4
REMARK VINA RESULT:      -8.3      2.046      3.570
REMARK  Name = 
REMARK  7 active torsions:
REMARK  status: ('A' for Active; 'I' for Inactive)
REMARK    1  A    between atoms: C_1  and  C_2
REMARK    2  A    between atoms: C_4  and  N_5
REMARK    3  A    between atoms: C_6  and  C_8
REMARK    4  A    between atoms: C_8  and  S_9
REMARK    5  A    between atoms: S_9  and  C_10
REMARK    6  A    between atoms: N_14  and  C_15
REMARK    7  A    between atoms: N_21  and  C_22
REMARK                            x       y       z     vdW  Elec       q    Type
REMARK                         _______ _______ _______ _____ _____    ______ ____
ROOT
ATOM      1  N   UNL     1       4.532   4.062  18.194  0.00  0.00    +0.000 N 
ATOM      2  C   UNL     1       5.879   4.479  18.460  0.00  0.00    +0.000 C 
ATOM      3  O   UNL     1       6.196   4.819  19.594  0.00  0.00    +0.000 OA
ATOM      4  H   UNL     1       4.209   3.886  17.248  0.00  0.00    +0.000 HD
ENDROOT
BRANCH   1   8
ATOM      5  C   UNL     1       1.654   2.512  21.946  0.00  0.00    +0.000 C 
ATOM      6  C   UNL     1       2.300   3.297  20.864  0.00  0.00    +0.000 A 
ATOM      7  C   UNL     1       3.372   2.917  20.029  0.00  0.00    +0.000 A 
ATOM      8  C   UNL     1       3.600   4.008  19.224  0.00  0.00    +0.000 A 
ATOM      9  N   UNL     1       2.669   4.970  19.582  0.00  0.00    +0.000 N 
ATOM     10  N   UNL     1       1.844   4.517  20.561  0.00  0.00    +0.000 NA
BRANCH   9  11
ATOM     11  C   UNL     1       2.543   6.300  19.096  0.00  0.00    +0.000 A 
ATOM     12  C   UNL     1       1.927   7.265  19.909  0.00  0.00    +0.000 A 
ATOM     13  C   UNL     1       1.802   8.581  19.465  0.00  0.00    +0.000 A 
ATOM     14  C   UNL     1       2.307   8.940  18.224  0.00  0.00    +0.000 A 
ATOM     15  F   UNL     1       2.204  10.207  17.806  0.00  0.00    +0.000 F 
ATOM     16  C   UNL     1       2.933   8.004  17.412  0.00  0.00    +0.000 A 
ATOM     17  C   UNL     1       3.054   6.684  17.840  0.00  0.00    +0.000 A 
ENDBRANCH   9  11
ENDBRANCH   1   8
BRANCH   2  18
ATOM     18  C   UNL     1       6.791   4.557  17.261  0.00  0.00    +0.000 C 
BRANCH  18  19
ATOM     19  S   UNL     1       5.929   4.042  15.758  0.00  0.00    +0.000 S 
BRANCH  19  20
ATOM     20  C   UNL     1       6.893   4.811  14.537  0.00  0.00    +0.000 A 
ATOM     21  N   UNL     1       7.809   5.721  14.781  0.00  0.00    +0.000 NA
ATOM     22  N   UNL     1       8.505   5.872  13.613  0.00  0.00    +0.000 NA
ATOM     23  N   UNL     1       8.047   5.054  12.676  0.00  0.00    +0.000 NA
ATOM     24  N   UNL     1       6.959   4.434  13.203  0.00  0.00    +0.000 N 
BRANCH  24  25
ATOM     25  C   UNL     1       6.134   3.592  12.421  0.00  0.00    +0.000 A 
ATOM     26  C   UNL     1       6.653   2.383  11.935  0.00  0.00    +0.000 A 
ATOM     27  C   UNL     1       5.837   1.521  11.197  0.00  0.00    +0.000 A 
ATOM     28  C   UNL     1       4.519   1.877  10.911  0.00  0.00    +0.000 A 
ATOM     29  C   UNL     1       4.014   3.095  11.353  0.00  0.00    +0.000 A 
ATOM     30  C   UNL     1       4.817   3.953  12.108  0.00  0.00    +0.000 A 
ENDBRANCH  24  25
ENDBRANCH  19  20
ENDBRANCH  18  19
ENDBRANCH   2  18
TORSDOF 6
ENDMDL
MODEL 5
REMARK VINA RESULT:      -8.2      2.034      3.747
REMARK  Name = 
REMARK  7 active torsions:
REMARK  status: ('A' for Active; 'I' for Inactive)
REMARK    1  A    between atoms: C_1  and  C_2
REMARK    2  A    between atoms: C_4  and  N_5
REMARK    3  A    between atoms: C_6  and  C_8
REMARK    4  A    between atoms: C_8  and  S_9
REMARK    5  A    between atoms: S_9  and  C_10
REMARK    6  A    between atoms: N_14  and  C_15
REMARK    7  A    between atoms: N_21  and  C_22
REMARK                            x       y       z     vdW  Elec       q    Type
REMARK                         _______ _______ _______ _____ _____    ______ ____
ROOT
ATOM      1  N   UNL     1       4.567   3.881  18.224  0.00  0.00    +0.000 N 
ATOM      2  C   UNL     1       5.872   4.440  18.434  0.00  0.00    +0.000 C 
ATOM      3  O   UNL     1       6.154   4.930  19.521  0.00  0.00    +0.000 OA
ATOM      4  H   UNL     1       4.263   3.574  17.305  0.00  0.00    +0.000 HD
ENDROOT
BRANCH   1   8
ATOM      5  C   UNL     1       1.689   2.445  22.021  0.00  0.00    +0.000 C 
ATOM      6  C   UNL     1       2.339   3.200  20.920  0.00  0.00    +0.000 A 
ATOM      7  C   UNL     1       3.401   2.789  20.088  0.00  0.00    +0.000 A 
ATOM      8  C   UNL     1       3.640   3.860  19.259  0.00  0.00    +0.000 A 
ATOM      9  N   UNL     1       2.724   4.842  19.604  0.00  0.00    +0.000 N 
ATOM     10  N   UNL     1       1.899   4.420  20.596  0.00  0.00    +0.000 NA
BRANCH   9  11
ATOM     11  C   UNL     1       2.614   6.164  19.092  0.00  0.00    +0.000 A 
ATOM     12  C   UNL     1       3.110   6.438  17.807  0.00  0.00    +0.000 A 
ATOM     13  C   UNL     1       3.004   7.721  17.272  0.00  0.00    +0.000 A 
ATOM     14  C   UNL     1       2.389   8.725  18.007  0.00  0.00    +0.000 A 
ATOM     15  F   UNL     1       2.270   9.952  17.487  0.00  0.00    +0.000 F 
ATOM     16  C   UNL     1       1.880   8.470  19.274  0.00  0.00    +0.000 A 
ATOM     17  C   UNL     1       1.990   7.194  19.822  0.00  0.00    +0.000 A 
ENDBRANCH   9  11
ENDBRANCH   1   8
BRANCH   2  18
ATOM     18  C   UNL     1       6.777   4.464  17.227  0.00  0.00    +0.000 C 
BRANCH  18  19
ATOM     19  S   UNL     1       5.867   4.032  15.727  0.00  0.00    +0.000 S 
BRANCH  19  20
ATOM     20  C   UNL     1       6.841   4.795  14.510  0.00  0.00    +0.000 A 
ATOM     21  N   UNL     1       7.752   5.710  14.758  0.00  0.00    +0.000 NA
ATOM     22  N   UNL     1       8.460   5.855  13.597  0.00  0.00    +0.000 NA
ATOM     23  N   UNL     1       8.015   5.029  12.660  0.00  0.00    +0.000 NA
ATOM     24  N   UNL     1       6.924   4.409  13.180  0.00  0.00    +0.000 N 
BRANCH  24  25
ATOM     25  C   UNL     1       6.109   3.559  12.395  0.00  0.00    +0.000 A 
ATOM     26  C   UNL     1       4.790   3.941  12.114  0.00  0.00    +0.000 A 
ATOM     27  C   UNL     1       3.987   3.131  11.305  0.00  0.00    +0.000 A 
ATOM     28  C   UNL     1       4.484   1.927  10.807  0.00  0.00    +0.000 A 
ATOM     29  C   UNL     1       5.777   1.523  11.120  0.00  0.00    +0.000 A 
ATOM     30  C   UNL     1       6.592   2.336  11.912  0.00  0.00    +0.000 A 
ENDBRANCH  24  25
ENDBRANCH  19  20
ENDBRANCH  18  19
ENDBRANCH   2  18
TORSDOF 6
ENDMDL
MODEL 6
REMARK VINA RESULT:      -8.2      0.317      1.290
REMARK  Name = 
REMARK  7 active torsions:
REMARK  status: ('A' for Active; 'I' for Inactive)
REMARK    1  A    between atoms: C_1  and  C_2
REMARK    2  A    between atoms: C_4  and  N_5
REMARK    3  A    between atoms: C_6  and  C_8
REMARK    4  A    between atoms: C_8  and  S_9
REMARK    5  A    between atoms: S_9  and  C_10
REMARK    6  A    between atoms: N_14  and  C_15
REMARK    7  A    between atoms: N_21  and  C_22
REMARK                            x       y       z     vdW  Elec       q    Type
REMARK                         _______ _______ _______ _____ _____    ______ ____
ROOT
ATOM      1  N   UNL     1       4.571   5.695  17.127  0.00  0.00    +0.000 N 
ATOM      2  C   UNL     1       5.729   5.344  17.900  0.00  0.00    +0.000 C 
ATOM      3  O   UNL     1       5.922   5.883  18.983  0.00  0.00    +0.000 OA
ATOM      4  H   UNL     1       4.443   5.355  16.180  0.00  0.00    +0.000 HD
ENDROOT
BRANCH   1   8
ATOM      5  C   UNL     1       2.018   9.868  18.039  0.00  0.00    +0.000 C 
ATOM      6  C   UNL     1       2.551   8.483  18.048  0.00  0.00    +0.000 A 
ATOM      7  C   UNL     1       3.557   7.928  17.229  0.00  0.00    +0.000 A 
ATOM      8  C   UNL     1       3.653   6.614  17.622  0.00  0.00    +0.000 A 
ATOM      9  N   UNL     1       2.737   6.437  18.648  0.00  0.00    +0.000 N 
ATOM     10  N   UNL     1       2.090   7.595  18.937  0.00  0.00    +0.000 NA
BRANCH   9  11
ATOM     11  C   UNL     1       2.402   5.237  19.333  0.00  0.00    +0.000 A 
ATOM     12  C   UNL     1       2.119   4.084  18.584  0.00  0.00    +0.000 A 
ATOM     13  C   UNL     1       1.801   2.889  19.228  0.00  0.00    +0.000 A 
ATOM     14  C   UNL     1       1.782   2.837  20.614  0.00  0.00    +0.000 A 
ATOM     15  F   UNL     1       1.495   1.686  21.233  0.00  0.00    +0.000 F 
ATOM     16  C   UNL     1       2.074   3.963  21.373  0.00  0.00    +0.000 A 
ATOM     17  C   UNL     1       2.383   5.165  20.740  0.00  0.00    +0.000 A 
ENDBRANCH   9  11
ENDBRANCH   1   8
BRANCH   2  18
ATOM     18  C   UNL     1       6.688   4.382  17.244  0.00  0.00    +0.000 C 
BRANCH  18  19
ATOM     19  S   UNL     1       5.985   3.703  15.723  0.00  0.00    +0.000 S 
BRANCH  19  20
ATOM     20  C   UNL     1       6.853   4.605  14.520  0.00  0.00    +0.000 A 
ATOM     21  N   UNL     1       7.725   5.550  14.790  0.00  0.00    +0.000 NA
ATOM     22  N   UNL     1       8.363   5.816  13.610  0.00  0.00    +0.000 NA
ATOM     23  N   UNL     1       7.914   5.035  12.637  0.00  0.00    +0.000 NA
ATOM     24  N   UNL     1       6.885   4.319  13.163  0.00  0.00    +0.000 N 
BRANCH  24  25
ATOM     25  C   UNL     1       6.077   3.481  12.358  0.00  0.00    +0.000 A 
ATOM     26  C   UNL     1       4.772   3.886  12.042  0.00  0.00    +0.000 A 
ATOM     27  C   UNL     1       3.977   3.089  11.213  0.00  0.00    +0.000 A 
ATOM     28  C   UNL     1       4.466   1.875  10.730  0.00  0.00    +0.000 A 
ATOM     29  C   UNL     1       5.743   1.450  11.077  0.00  0.00    +0.000 A 
ATOM     30  C   UNL     1       6.551   2.249  11.890  0.00  0.00    +0.000 A 
ENDBRANCH  24  25
ENDBRANCH  19  20
ENDBRANCH  18  19
ENDBRANCH   2  18
TORSDOF 6
ENDMDL
MODEL 7
REMARK VINA RESULT:      -8.2      3.265      7.450
REMARK  Name = 
REMARK  7 active torsions:
REMARK  status: ('A' for Active; 'I' for Inactive)
REMARK    1  A    between atoms: C_1  and  C_2
REMARK    2  A    between atoms: C_4  and  N_5
REMARK    3  A    between atoms: C_6  and  C_8
REMARK    4  A    between atoms: C_8  and  S_9
REMARK    5  A    between atoms: S_9  and  C_10
REMARK    6  A    between atoms: N_14  and  C_15
REMARK    7  A    between atoms: N_21  and  C_22
REMARK                            x       y       z     vdW  Elec       q    Type
REMARK                         _______ _______ _______ _____ _____    ______ ____
ROOT
ATOM      1  N   UNL     1       6.617   4.114  18.523  0.00  0.00    +0.000 N 
ATOM      2  C   UNL     1       5.393   4.065  19.271  0.00  0.00    +0.000 C 
ATOM      3  O   UNL     1       4.802   5.105  19.537  0.00  0.00    +0.000 OA
ATOM      4  H   UNL     1       7.189   3.287  18.386  0.00  0.00    +0.000 HD
ENDROOT
BRANCH   1   8
ATOM      5  C   UNL     1       8.560   8.691  18.311  0.00  0.00    +0.000 C 
ATOM      6  C   UNL     1       7.939   7.381  17.992  0.00  0.00    +0.000 A 
ATOM      7  C   UNL     1       7.654   6.312  18.869  0.00  0.00    +0.000 A 
ATOM      8  C   UNL     1       7.111   5.332  18.071  0.00  0.00    +0.000 A 
ATOM      9  N   UNL     1       7.073   5.842  16.782  0.00  0.00    +0.000 N 
ATOM     10  N   UNL     1       7.544   7.116  16.742  0.00  0.00    +0.000 NA
BRANCH   9  11
ATOM     11  C   UNL     1       6.670   5.188  15.587  0.00  0.00    +0.000 A 
ATOM     12  C   UNL     1       5.350   4.722  15.479  0.00  0.00    +0.000 A 
ATOM     13  C   UNL     1       4.922   4.088  14.313  0.00  0.00    +0.000 A 
ATOM     14  C   UNL     1       5.800   3.936  13.250  0.00  0.00    +0.000 A 
ATOM     15  F   UNL     1       5.384   3.345  12.123  0.00  0.00    +0.000 F 
ATOM     16  C   UNL     1       7.105   4.403  13.331  0.00  0.00    +0.000 A 
ATOM     17  C   UNL     1       7.547   5.028  14.495  0.00  0.00    +0.000 A 
ENDBRANCH   9  11
ENDBRANCH   1   8
BRANCH   2  18
ATOM     18  C   UNL     1       4.979   2.699  19.762  0.00  0.00    +0.000 C 
BRANCH  18  19
ATOM     19  S   UNL     1       3.475   2.799  20.758  0.00  0.00    +0.000 S 
BRANCH  19  20
ATOM     20  C   UNL     1       2.252   2.724  19.529  0.00  0.00    +0.000 A 
ATOM     21  N   UNL     1       1.737   1.608  19.064  0.00  0.00    +0.000 NA
ATOM     22  N   UNL     1       0.649   1.980  18.323  0.00  0.00    +0.000 NA
ATOM     23  N   UNL     1       0.478   3.294  18.352  0.00  0.00    +0.000 NA
ATOM     24  N   UNL     1       1.538   3.805  19.032  0.00  0.00    +0.000 N 
BRANCH  24  25
ATOM     25  C   UNL     1       1.753   5.200  19.131  0.00  0.00    +0.000 A 
ATOM     26  C   UNL     1       1.548   5.840  20.362  0.00  0.00    +0.000 A 
ATOM     27  C   UNL     1       1.796   7.210  20.485  0.00  0.00    +0.000 A 
ATOM     28  C   UNL     1       2.213   7.949  19.378  0.00  0.00    +0.000 A 
ATOM     29  C   UNL     1       2.375   7.327  18.145  0.00  0.00    +0.000 A 
ATOM     30  C   UNL     1       2.147   5.954  18.018  0.00  0.00    +0.000 A 
ENDBRANCH  24  25
ENDBRANCH  19  20
ENDBRANCH  18  19
ENDBRANCH   2  18
TORSDOF 6
ENDMDL
MODEL 8
REMARK VINA RESULT:      -8.2      4.414      9.143
REMARK  Name = 
REMARK  7 active torsions:
REMARK  status: ('A' for Active; 'I' for Inactive)
REMARK    1  A    between atoms: C_1  and  C_2
REMARK    2  A    between atoms: C_4  and  N_5
REMARK    3  A    between atoms: C_6  and  C_8
REMARK    4  A    between atoms: C_8  and  S_9
REMARK    5  A    between atoms: S_9  and  C_10
REMARK    6  A    between atoms: N_14  and  C_15
REMARK    7  A    between atoms: N_21  and  C_22
REMARK                            x       y       z     vdW  Elec       q    Type
REMARK                         _______ _______ _______ _____ _____    ______ ____
ROOT
ATOM      1  N   UNL     1       2.933   6.778  19.621  0.00  0.00    +0.000 N 
ATOM      2  C   UNL     1       2.393   7.238  18.373  0.00  0.00    +0.000 C 
ATOM      3  O   UNL     1       1.884   6.435  17.599  0.00  0.00    +0.000 OA
ATOM      4  H   UNL     1       3.462   7.395  20.230  0.00  0.00    +0.000 HD
ENDROOT
BRANCH   1   8
ATOM      5  C   UNL     1       1.642   2.481  21.773  0.00  0.00    +0.000 C 
ATOM      6  C   UNL     1       2.292   3.538  20.958  0.00  0.00    +0.000 A 
ATOM      7  C   UNL     1       1.960   4.907  20.877  0.00  0.00    +0.000 A 
ATOM      8  C   UNL     1       2.846   5.435  19.968  0.00  0.00    +0.000 A 
ATOM      9  N   UNL     1       3.668   4.395  19.560  0.00  0.00    +0.000 N 
ATOM     10  N   UNL     1       3.353   3.239  20.200  0.00  0.00    +0.000 NA
BRANCH   9  11
ATOM     11  C   UNL     1       4.691   4.414  18.573  0.00  0.00    +0.000 A 
ATOM     12  C   UNL     1       4.384   3.992  17.270  0.00  0.00    +0.000 A 
ATOM     13  C   UNL     1       5.363   4.013  16.277  0.00  0.00    +0.000 A 
ATOM     14  C   UNL     1       6.639   4.470  16.577  0.00  0.00    +0.000 A 
ATOM     15  F   UNL     1       7.573   4.508  15.619  0.00  0.00    +0.000 F 
ATOM     16  C   UNL     1       6.957   4.905  17.856  0.00  0.00    +0.000 A 
ATOM     17  C   UNL     1       5.990   4.879  18.858  0.00  0.00    +0.000 A 
ENDBRANCH   9  11
ENDBRANCH   1   8
BRANCH   2  18
ATOM     18  C   UNL     1       2.593   8.703  18.072  0.00  0.00    +0.000 C 
BRANCH  18  19
ATOM     19  S   UNL     1       1.021   9.593  18.116  0.00  0.00    +0.000 S 
BRANCH  19  20
ATOM     20  C   UNL     1       0.878   9.938  19.811  0.00  0.00    +0.000 A 
ATOM     21  N   UNL     1       0.868   9.023  20.755  0.00  0.00    +0.000 NA
ATOM     22  N   UNL     1       1.006   9.702  21.934  0.00  0.00    +0.000 NA
ATOM     23  N   UNL     1       1.126  11.006  21.723  0.00  0.00    +0.000 NA
ATOM     24  N   UNL     1       0.952  11.197  20.390  0.00  0.00    +0.000 N 
BRANCH  24  25
ATOM     25  C   UNL     1       0.875  12.495  19.831  0.00  0.00    +0.000 A 
ATOM     26  C   UNL     1      -0.365  13.148  19.782  0.00  0.00    +0.000 A 
ATOM     27  C   UNL     1      -0.449  14.446  19.272  0.00  0.00    +0.000 A 
ATOM     28  C   UNL     1       0.691  15.081  18.778  0.00  0.00    +0.000 A 
ATOM     29  C   UNL     1       1.914  14.420  18.784  0.00  0.00    +0.000 A 
ATOM     30  C   UNL     1       2.010  13.129  19.309  0.00  0.00    +0.000 A 
ENDBRANCH  24  25
ENDBRANCH  19  20
ENDBRANCH  18  19
ENDBRANCH   2  18
TORSDOF 6
ENDMDL
MODEL 9
REMARK VINA RESULT:      -8.1      4.414      9.063
REMARK  Name = 
REMARK  7 active torsions:
REMARK  status: ('A' for Active; 'I' for Inactive)
REMARK    1  A    between atoms: C_1  and  C_2
REMARK    2  A    between atoms: C_4  and  N_5
REMARK    3  A    between atoms: C_6  and  C_8
REMARK    4  A    between atoms: C_8  and  S_9
REMARK    5  A    between atoms: S_9  and  C_10
REMARK    6  A    between atoms: N_14  and  C_15
REMARK    7  A    between atoms: N_21  and  C_22
REMARK                            x       y       z     vdW  Elec       q    Type
REMARK                         _______ _______ _______ _____ _____    ______ ____
ROOT
ATOM      1  N   UNL     1       2.892   6.815  19.616  0.00  0.00    +0.000 N 
ATOM      2  C   UNL     1       2.374   7.278  18.360  0.00  0.00    +0.000 C 
ATOM      3  O   UNL     1       1.887   6.475  17.572  0.00  0.00    +0.000 OA
ATOM      4  H   UNL     1       3.403   7.432  20.239  0.00  0.00    +0.000 HD
ENDROOT
BRANCH   1   8
ATOM      5  C   UNL     1       1.625   2.502  21.750  0.00  0.00    +0.000 C 
ATOM      6  C   UNL     1       2.266   3.564  20.936  0.00  0.00    +0.000 A 
ATOM      7  C   UNL     1       1.934   4.934  20.869  0.00  0.00    +0.000 A 
ATOM      8  C   UNL     1       2.809   5.469  19.953  0.00  0.00    +0.000 A 
ATOM      9  N   UNL     1       3.624   4.431  19.528  0.00  0.00    +0.000 N 
ATOM     10  N   UNL     1       3.317   3.271  20.162  0.00  0.00    +0.000 NA
BRANCH   9  11
ATOM     11  C   UNL     1       4.635   4.457  18.529  0.00  0.00    +0.000 A 
ATOM     12  C   UNL     1       5.928   4.876  18.882  0.00  0.00    +0.000 A 
ATOM     13  C   UNL     1       6.944   4.898  17.927  0.00  0.00    +0.000 A 
ATOM     14  C   UNL     1       6.678   4.487  16.629  0.00  0.00    +0.000 A 
ATOM     15  F   UNL     1       7.658   4.491  15.716  0.00  0.00    +0.000 F 
ATOM     16  C   UNL     1       5.410   4.056  16.264  0.00  0.00    +0.000 A 
ATOM     17  C   UNL     1       4.385   4.039  17.207  0.00  0.00    +0.000 A 
ENDBRANCH   9  11
ENDBRANCH   1   8
BRANCH   2  18
ATOM     18  C   UNL     1       2.569   8.746  18.071  0.00  0.00    +0.000 C 
BRANCH  18  19
ATOM     19  S   UNL     1       0.992   9.628  18.117  0.00  0.00    +0.000 S 
BRANCH  19  20
ATOM     20  C   UNL     1       0.841   9.959  19.814  0.00  0.00    +0.000 A 
ATOM     21  N   UNL     1       0.775   9.034  20.745  0.00  0.00    +0.000 NA
ATOM     22  N   UNL     1       0.927   9.691  21.935  0.00  0.00    +0.000 NA
ATOM     23  N   UNL     1       1.110  10.990  21.742  0.00  0.00    +0.000 NA
ATOM     24  N   UNL     1       0.965  11.206  20.409  0.00  0.00    +0.000 N 
BRANCH  24  25
ATOM     25  C   UNL     1       0.956  12.513  19.866  0.00  0.00    +0.000 A 
ATOM     26  C   UNL     1       2.158  13.231  19.786  0.00  0.00    +0.000 A 
ATOM     27  C   UNL     1       2.172  14.506  19.214  0.00  0.00    +0.000 A 
ATOM     28  C   UNL     1       0.986  15.081  18.755  0.00  0.00    +0.000 A 
ATOM     29  C   UNL     1      -0.215  14.390  18.873  0.00  0.00    +0.000 A 
ATOM     30  C   UNL     1      -0.234  13.108  19.426  0.00  0.00    +0.000 A 
ENDBRANCH  24  25
ENDBRANCH  19  20
ENDBRANCH  18  19
ENDBRANCH   2  18
TORSDOF 6
ENDMDL
