MODEL 1
REMARK VINA RESULT:      -8.5      0.000      0.000
REMARK  Name = 
REMARK  8 active torsions:
REMARK  status: ('A' for Active; 'I' for Inactive)
REMARK    1  A    between atoms: C_1  and  C_2
REMARK    2  A    between atoms: C_4  and  C_5
REMARK    3  A    between atoms: N_7  and  C_8
REMARK    4  A    between atoms: C_12  and  C_13
REMARK    5  A    between atoms: C_13  and  C_14
REMARK    6  A    between atoms: C_14  and  C_15
REMARK    7  A    between atoms: N_19  and  C_20
REMARK    8  A    between atoms: C_26  and  N_27
REMARK                            x       y       z     vdW  Elec       q    Type
REMARK                         _______ _______ _______ _____ _____    ______ ____
ROOT
ATOM      1  C   UNL     1       2.704   5.709  18.393  0.00  0.00    +0.000 A 
ATOM      2  C   UNL     1       2.163   4.454  18.682  0.00  0.00    +0.000 A 
ATOM      3  C   UNL     1       2.715   3.296  18.149  0.00  0.00    +0.000 A 
ATOM      4  C   UNL     1       3.800   3.386  17.290  0.00  0.00    +0.000 A 
ATOM      5  C   UNL     1       4.365   4.628  16.931  0.00  0.00    +0.000 A 
ATOM      6  C   UNL     1       3.795   5.782  17.518  0.00  0.00    +0.000 A 
ENDROOT
BRANCH   1   9
ATOM      7  C   UNL     1       2.192   8.122  18.273  0.00  0.00    +0.000 C 
ATOM      8  O   UNL     1       2.609   8.324  17.137  0.00  0.00    +0.000 OA
ATOM      9  N   UNL     1       2.199   6.914  18.937  0.00  0.00    +0.000 N 
ATOM     10  H   UNL     1       1.697   6.843  19.814  0.00  0.00    +0.000 HD
BRANCH   7  14
ATOM     11  C   UNL     1       0.785  12.948  18.639  0.00  0.00    +0.000 C 
ATOM     12  C   UNL     1       0.875  11.542  19.163  0.00  0.00    +0.000 A 
ATOM     13  C   UNL     1       1.597  10.582  18.455  0.00  0.00    +0.000 A 
ATOM     14  C   UNL     1       1.617   9.295  18.966  0.00  0.00    +0.000 A 
ATOM     15  C   UNL     1       0.952   9.011  20.152  0.00  0.00    +0.000 A 
ATOM     16  C   UNL     1       0.234   9.998  20.797  0.00  0.00    +0.000 A 
ATOM     17  N   UNL     1       0.193  11.265  20.314  0.00  0.00    +0.000 NA
BRANCH  16  18
ATOM     18  N   UNL     1      -0.475   9.535  21.947  0.00  0.00    +0.000 N 
ATOM     19  C   UNL     1       0.187   9.471  23.245  0.00  0.00    +0.000 C 
ATOM     20  C   UNL     1      -0.834  10.528  22.964  0.00  0.00    +0.000 C 
ENDBRANCH  16  18
ENDBRANCH   7  14
ENDBRANCH   1   9
BRANCH   5  21
ATOM     21  C   UNL     1       5.539   4.706  15.849  0.00  0.00    +0.000 C 
ATOM     22  C   UNL     1       5.089   4.631  14.360  0.00  0.00    +0.000 C 
ATOM     23  O   UNL     1       6.216   3.779  14.040  0.00  0.00    +0.000 OA
ATOM     24  C   UNL     1       6.326   3.428  15.451  0.00  0.00    +0.000 C 
BRANCH  21  25
ATOM     25  C   UNL     1       6.436   5.932  16.126  0.00  0.00    +0.000 C 
BRANCH  25  26
ATOM     26  C   UNL     1       7.147   5.857  17.441  0.00  0.00    +0.000 A 
ATOM     27  N   UNL     1       7.324   4.768  18.165  0.00  0.00    +0.000 NA
ATOM     28  N   UNL     1       8.006   5.114  19.309  0.00  0.00    +0.000 NA
ATOM     29  C   UNL     1       8.234   6.405  19.260  0.00  0.00    +0.000 A 
ATOM     30  N   UNL     1       7.697   6.917  18.118  0.00  0.00    +0.000 N 
ATOM     31  C   UNL     1       7.710   8.304  17.740  0.00  0.00    +0.000 C 
ENDBRANCH  25  26
ENDBRANCH  21  25
ENDBRANCH   5  21
TORSDOF 6
ENDMDL
MODEL 2
REMARK VINA RESULT:      -8.3      2.028      3.578
REMARK  Name = 
REMARK  8 active torsions:
REMARK  status: ('A' for Active; 'I' for Inactive)
REMARK    1  A    between atoms: C_1  and  C_2
REMARK    2  A    between atoms: C_4  and  C_5
REMARK    3  A    between atoms: N_7  and  C_8
REMARK    4  A    between atoms: C_12  and  C_13
REMARK    5  A    between atoms: C_13  and  C_14
REMARK    6  A    between atoms: C_14  and  C_15
REMARK    7  A    between atoms: N_19  and  C_20
REMARK    8  A    between atoms: C_26  and  N_27
REMARK                            x       y       z     vdW  Elec       q    Type
REMARK                         _______ _______ _______ _____ _____    ______ ____
ROOT
ATOM      1  C   UNL     1       2.531   5.604  18.656  0.00  0.00    +0.000 A 
ATOM      2  C   UNL     1       1.787   4.476  18.305  0.00  0.00    +0.000 A 
ATOM      3  C   UNL     1       2.354   3.447  17.564  0.00  0.00    +0.000 A 
ATOM      4  C   UNL     1       3.669   3.553  17.137  0.00  0.00    +0.000 A 
ATOM      5  C   UNL     1       4.458   4.685  17.428  0.00  0.00    +0.000 A 
ATOM      6  C   UNL     1       3.856   5.698  18.210  0.00  0.00    +0.000 A 
ENDROOT
BRANCH   1   9
ATOM      7  C   UNL     1       1.775   7.936  18.959  0.00  0.00    +0.000 C 
ATOM      8  O   UNL     1       1.973   8.326  17.813  0.00  0.00    +0.000 OA
ATOM      9  N   UNL     1       2.009   6.664  19.436  0.00  0.00    +0.000 N 
ATOM     10  H   UNL     1       1.671   6.426  20.360  0.00  0.00    +0.000 HD
BRANCH   7  14
ATOM     11  C   UNL     1       0.031   9.523  23.414  0.00  0.00    +0.000 C 
ATOM     12  C   UNL     1       0.448   9.750  21.988  0.00  0.00    +0.000 A 
ATOM     13  C   UNL     1       0.804   8.665  21.187  0.00  0.00    +0.000 A 
ATOM     14  C   UNL     1       1.213   8.937  19.892  0.00  0.00    +0.000 A 
ATOM     15  C   UNL     1       1.235  10.248  19.433  0.00  0.00    +0.000 A 
ATOM     16  C   UNL     1       0.894  11.284  20.280  0.00  0.00    +0.000 A 
ATOM     17  N   UNL     1       0.496  11.045  21.554  0.00  0.00    +0.000 NA
BRANCH  16  18
ATOM     18  N   UNL     1       1.058  12.578  19.700  0.00  0.00    +0.000 N 
ATOM     19  C   UNL     1       0.942  13.775  20.523  0.00  0.00    +0.000 C 
ATOM     20  C   UNL     1       2.280  13.318  20.033  0.00  0.00    +0.000 C 
ENDBRANCH  16  18
ENDBRANCH   7  14
ENDBRANCH   1   9
BRANCH   5  21
ATOM     21  C   UNL     1       5.930   4.828  16.824  0.00  0.00    +0.000 C 
ATOM     22  C   UNL     1       7.094   4.715  17.851  0.00  0.00    +0.000 C 
ATOM     23  O   UNL     1       7.809   5.790  17.194  0.00  0.00    +0.000 OA
ATOM     24  C   UNL     1       6.554   6.232  16.597  0.00  0.00    +0.000 C 
BRANCH  21  25
ATOM     25  C   UNL     1       6.111   3.865  15.630  0.00  0.00    +0.000 C 
BRANCH  25  26
ATOM     26  C   UNL     1       6.855   4.478  14.486  0.00  0.00    +0.000 A 
ATOM     27  N   UNL     1       7.808   5.387  14.579  0.00  0.00    +0.000 NA
ATOM     28  N   UNL     1       8.229   5.707  13.309  0.00  0.00    +0.000 NA
ATOM     29  C   UNL     1       7.529   4.986  12.465  0.00  0.00    +0.000 A 
ATOM     30  N   UNL     1       6.642   4.215  13.155  0.00  0.00    +0.000 N 
ATOM     31  C   UNL     1       5.677   3.327  12.567  0.00  0.00    +0.000 C 
ENDBRANCH  25  26
ENDBRANCH  21  25
ENDBRANCH   5  21
TORSDOF 6
ENDMDL
MODEL 3
REMARK VINA RESULT:      -8.3      2.554      8.902
REMARK  Name = 
REMARK  8 active torsions:
REMARK  status: ('A' for Active; 'I' for Inactive)
REMARK    1  A    between atoms: C_1  and  C_2
REMARK    2  A    between atoms: C_4  and  C_5
REMARK    3  A    between atoms: N_7  and  C_8
REMARK    4  A    between atoms: C_12  and  C_13
REMARK    5  A    between atoms: C_13  and  C_14
REMARK    6  A    between atoms: C_14  and  C_15
REMARK    7  A    between atoms: N_19  and  C_20
REMARK    8  A    between atoms: C_26  and  N_27
REMARK                            x       y       z     vdW  Elec       q    Type
REMARK                         _______ _______ _______ _____ _____    ______ ____
ROOT
ATOM      1  C   UNL     1       1.419   8.314  20.774  0.00  0.00    +0.000 A 
ATOM      2  C   UNL     1       1.077   8.391  22.126  0.00  0.00    +0.000 A 
ATOM      3  C   UNL     1       0.203   9.365  22.589  0.00  0.00    +0.000 A 
ATOM      4  C   UNL     1      -0.315  10.299  21.704  0.00  0.00    +0.000 A 
ATOM      5  C   UNL     1       0.025  10.295  20.335  0.00  0.00    +0.000 A 
ATOM      6  C   UNL     1       0.893   9.269  19.895  0.00  0.00    +0.000 A 
ENDROOT
BRANCH   1   9
ATOM      7  C   UNL     1       2.010   5.969  20.272  0.00  0.00    +0.000 C 
ATOM      8  O   UNL     1       1.005   5.441  20.736  0.00  0.00    +0.000 OA
ATOM      9  N   UNL     1       2.280   7.320  20.248  0.00  0.00    +0.000 N 
ATOM     10  H   UNL     1       3.073   7.645  19.709  0.00  0.00    +0.000 HD
BRANCH   7  14
ATOM     11  C   UNL     1       3.517   1.621  18.215  0.00  0.00    +0.000 C 
ATOM     12  C   UNL     1       3.742   3.047  18.633  0.00  0.00    +0.000 A 
ATOM     13  C   UNL     1       2.752   3.728  19.340  0.00  0.00    +0.000 A 
ATOM     14  C   UNL     1       3.001   5.051  19.669  0.00  0.00    +0.000 A 
ATOM     15  C   UNL     1       4.208   5.638  19.313  0.00  0.00    +0.000 A 
ATOM     16  C   UNL     1       5.141   4.919  18.592  0.00  0.00    +0.000 A 
ATOM     17  N   UNL     1       4.920   3.625  18.253  0.00  0.00    +0.000 NA
BRANCH  16  18
ATOM     18  N   UNL     1       6.288   5.683  18.216  0.00  0.00    +0.000 N 
ATOM     19  C   UNL     1       7.591   5.041  18.085  0.00  0.00    +0.000 C 
ATOM     20  C   UNL     1       6.829   5.469  16.870  0.00  0.00    +0.000 C 
ENDBRANCH  16  18
ENDBRANCH   7  14
ENDBRANCH   1   9
BRANCH   5  21
ATOM     21  C   UNL     1      -0.496  11.454  19.364  0.00  0.00    +0.000 C 
ATOM     22  C   UNL     1      -1.767  12.214  19.844  0.00  0.00    +0.000 C 
ATOM     23  O   UNL     1      -2.293  12.231  18.494  0.00  0.00    +0.000 OA
ATOM     24  C   UNL     1      -1.415  11.116  18.159  0.00  0.00    +0.000 C 
BRANCH  21  25
ATOM     25  C   UNL     1       0.661  12.416  19.016  0.00  0.00    +0.000 C 
BRANCH  25  26
ATOM     26  C   UNL     1       0.932  13.424  20.088  0.00  0.00    +0.000 A 
ATOM     27  N   UNL     1       1.537  13.189  21.238  0.00  0.00    +0.000 NA
ATOM     28  N   UNL     1       1.578  14.363  21.954  0.00  0.00    +0.000 NA
ATOM     29  C   UNL     1       1.001  15.292  21.228  0.00  0.00    +0.000 A 
ATOM     30  N   UNL     1       0.563  14.747  20.060  0.00  0.00    +0.000 N 
ATOM     31  C   UNL     1      -0.156  15.447  19.031  0.00  0.00    +0.000 C 
ENDBRANCH  25  26
ENDBRANCH  21  25
ENDBRANCH   5  21
TORSDOF 6
ENDMDL
MODEL 4
REMARK VINA RESULT:      -8.3      3.052      9.399
REMARK  Name = 
REMARK  8 active torsions:
REMARK  status: ('A' for Active; 'I' for Inactive)
REMARK    1  A    between atoms: C_1  and  C_2
REMARK    2  A    between atoms: C_4  and  C_5
REMARK    3  A    between atoms: N_7  and  C_8
REMARK    4  A    between atoms: C_12  and  C_13
REMARK    5  A    between atoms: C_13  and  C_14
REMARK    6  A    between atoms: C_14  and  C_15
REMARK    7  A    between atoms: N_19  and  C_20
REMARK    8  A    between atoms: C_26  and  N_27
REMARK                            x       y       z     vdW  Elec       q    Type
REMARK                         _______ _______ _______ _____ _____    ______ ____
ROOT
ATOM      1  C   UNL     1       0.270   9.011  21.500  0.00  0.00    +0.000 A 
ATOM      2  C   UNL     1      -0.155   9.505  22.736  0.00  0.00    +0.000 A 
ATOM      3  C   UNL     1      -0.787  10.737  22.835  0.00  0.00    +0.000 A 
ATOM      4  C   UNL     1      -0.971  11.507  21.696  0.00  0.00    +0.000 A 
ATOM      5  C   UNL     1      -0.528  11.078  20.427  0.00  0.00    +0.000 A 
ATOM      6  C   UNL     1       0.083   9.805  20.362  0.00  0.00    +0.000 A 
ENDROOT
BRANCH   1   9
ATOM      7  C   UNL     1       1.731   7.421  20.301  0.00  0.00    +0.000 C 
ATOM      8  O   UNL     1       2.065   8.162  19.382  0.00  0.00    +0.000 OA
ATOM      9  N   UNL     1       0.889   7.747  21.343  0.00  0.00    +0.000 N 
ATOM     10  H   UNL     1       0.805   7.099  22.116  0.00  0.00    +0.000 HD
BRANCH   7  14
ATOM     11  C   UNL     1       1.897   2.523  21.480  0.00  0.00    +0.000 C 
ATOM     12  C   UNL     1       2.400   3.736  20.749  0.00  0.00    +0.000 A 
ATOM     13  C   UNL     1       1.836   4.986  21.006  0.00  0.00    +0.000 A 
ATOM     14  C   UNL     1       2.315   6.062  20.278  0.00  0.00    +0.000 A 
ATOM     15  C   UNL     1       3.334   5.874  19.352  0.00  0.00    +0.000 A 
ATOM     16  C   UNL     1       3.837   4.609  19.124  0.00  0.00    +0.000 A 
ATOM     17  N   UNL     1       3.381   3.537  19.819  0.00  0.00    +0.000 NA
BRANCH  16  18
ATOM     18  N   UNL     1       4.808   4.557  18.078  0.00  0.00    +0.000 N 
ATOM     19  C   UNL     1       4.457   4.009  16.773  0.00  0.00    +0.000 C 
ATOM     20  C   UNL     1       4.640   5.483  16.954  0.00  0.00    +0.000 C 
ENDBRANCH  16  18
ENDBRANCH   7  14
ENDBRANCH   1   9
BRANCH   5  21
ATOM     21  C   UNL     1      -0.651  12.038  19.155  0.00  0.00    +0.000 C 
ATOM     22  C   UNL     1       0.662  12.755  18.723  0.00  0.00    +0.000 C 
ATOM     23  O   UNL     1      -0.066  13.978  18.455  0.00  0.00    +0.000 OA
ATOM     24  C   UNL     1      -1.141  13.502  19.320  0.00  0.00    +0.000 C 
BRANCH  21  25
ATOM     25  C   UNL     1      -1.317  11.285  17.983  0.00  0.00    +0.000 C 
BRANCH  25  26
ATOM     26  C   UNL     1      -2.797  11.494  17.913  0.00  0.00    +0.000 A 
ATOM     27  N   UNL     1      -3.582  11.820  18.924  0.00  0.00    +0.000 NA
ATOM     28  N   UNL     1      -4.874  11.902  18.460  0.00  0.00    +0.000 NA
ATOM     29  C   UNL     1      -4.854  11.628  17.176  0.00  0.00    +0.000 A 
ATOM     30  N   UNL     1      -3.578  11.347  16.793  0.00  0.00    +0.000 N 
ATOM     31  C   UNL     1      -3.171  10.959  15.470  0.00  0.00    +0.000 C 
ENDBRANCH  25  26
ENDBRANCH  21  25
ENDBRANCH   5  21
TORSDOF 6
ENDMDL
MODEL 5
REMARK VINA RESULT:      -8.3      3.101      9.073
REMARK  Name = 
REMARK  8 active torsions:
REMARK  status: ('A' for Active; 'I' for Inactive)
REMARK    1  A    between atoms: C_1  and  C_2
REMARK    2  A    between atoms: C_4  and  C_5
REMARK    3  A    between atoms: N_7  and  C_8
REMARK    4  A    between atoms: C_12  and  C_13
REMARK    5  A    between atoms: C_13  and  C_14
REMARK    6  A    between atoms: C_14  and  C_15
REMARK    7  A    between atoms: N_19  and  C_20
REMARK    8  A    between atoms: C_26  and  N_27
REMARK                            x       y       z     vdW  Elec       q    Type
REMARK                         _______ _______ _______ _____ _____    ______ ____
ROOT
ATOM      1  C   UNL     1       1.028   8.618  20.992  0.00  0.00    +0.000 A 
ATOM      2  C   UNL     1       0.769   8.976  22.317  0.00  0.00    +0.000 A 
ATOM      3  C   UNL     1       0.008  10.098  22.620  0.00  0.00    +0.000 A 
ATOM      4  C   UNL     1      -0.476  10.896  21.594  0.00  0.00    +0.000 A 
ATOM      5  C   UNL     1      -0.214  10.606  20.238  0.00  0.00    +0.000 A 
ATOM      6  C   UNL     1       0.538   9.439  19.969  0.00  0.00    +0.000 A 
ENDROOT
BRANCH   1   9
ATOM      7  C   UNL     1       2.440   7.319  19.437  0.00  0.00    +0.000 C 
ATOM      8  O   UNL     1       2.498   8.147  18.533  0.00  0.00    +0.000 OA
ATOM      9  N   UNL     1       1.769   7.467  20.632  0.00  0.00    +0.000 N 
ATOM     10  H   UNL     1       1.915   6.774  21.356  0.00  0.00    +0.000 HD
BRANCH   7  14
ATOM     11  C   UNL     1       6.434   4.597  18.006  0.00  0.00    +0.000 C 
ATOM     12  C   UNL     1       5.065   4.740  18.611  0.00  0.00    +0.000 A 
ATOM     13  C   UNL     1       4.430   5.982  18.606  0.00  0.00    +0.000 A 
ATOM     14  C   UNL     1       3.185   6.062  19.207  0.00  0.00    +0.000 A 
ATOM     15  C   UNL     1       2.610   4.927  19.764  0.00  0.00    +0.000 A 
ATOM     16  C   UNL     1       3.298   3.729  19.759  0.00  0.00    +0.000 A 
ATOM     17  N   UNL     1       4.521   3.625  19.182  0.00  0.00    +0.000 NA
BRANCH  16  18
ATOM     18  N   UNL     1       2.624   2.677  20.451  0.00  0.00    +0.000 N 
ATOM     19  C   UNL     1       2.017   2.923  21.754  0.00  0.00    +0.000 C 
ATOM     20  C   UNL     1       1.162   2.754  20.537  0.00  0.00    +0.000 C 
ENDBRANCH  16  18
ENDBRANCH   7  14
ENDBRANCH   1   9
BRANCH   5  21
ATOM     21  C   UNL     1      -0.686  11.608  19.086  0.00  0.00    +0.000 C 
ATOM     22  C   UNL     1       0.424  12.529  18.498  0.00  0.00    +0.000 C 
ATOM     23  O   UNL     1      -0.496  13.648  18.455  0.00  0.00    +0.000 OA
ATOM     24  C   UNL     1      -1.327  12.975  19.447  0.00  0.00    +0.000 C 
BRANCH  21  25
ATOM     25  C   UNL     1      -1.444  10.834  17.986  0.00  0.00    +0.000 C 
BRANCH  25  26
ATOM     26  C   UNL     1      -2.880  11.239  17.864  0.00  0.00    +0.000 A 
ATOM     27  N   UNL     1      -3.676  11.579  18.860  0.00  0.00    +0.000 NA
ATOM     28  N   UNL     1      -4.918  11.867  18.343  0.00  0.00    +0.000 NA
ATOM     29  C   UNL     1      -4.857  11.699  17.043  0.00  0.00    +0.000 A 
ATOM     30  N   UNL     1      -3.605  11.287  16.699  0.00  0.00    +0.000 N 
ATOM     31  C   UNL     1      -3.172  10.960  15.367  0.00  0.00    +0.000 C 
ENDBRANCH  25  26
ENDBRANCH  21  25
ENDBRANCH   5  21
TORSDOF 6
ENDMDL
MODEL 6
REMARK VINA RESULT:      -8.3      3.286      9.234
REMARK  Name = 
REMARK  8 active torsions:
REMARK  status: ('A' for Active; 'I' for Inactive)
REMARK    1  A    between atoms: C_1  and  C_2
REMARK    2  A    between atoms: C_4  and  C_5
REMARK    3  A    between atoms: N_7  and  C_8
REMARK    4  A    between atoms: C_12  and  C_13
REMARK    5  A    between atoms: C_13  and  C_14
REMARK    6  A    between atoms: C_14  and  C_15
REMARK    7  A    between atoms: N_19  and  C_20
REMARK    8  A    between atoms: C_26  and  N_27
REMARK                            x       y       z     vdW  Elec       q    Type
REMARK                         _______ _______ _______ _____ _____    ______ ____
ROOT
ATOM      1  C   UNL     1       1.957   9.772  17.954  0.00  0.00    +0.000 A 
ATOM      2  C   UNL     1       2.740  10.921  17.822  0.00  0.00    +0.000 A 
ATOM      3  C   UNL     1       2.279  12.155  18.262  0.00  0.00    +0.000 A 
ATOM      4  C   UNL     1       1.010  12.258  18.810  0.00  0.00    +0.000 A 
ATOM      5  C   UNL     1       0.159  11.139  18.933  0.00  0.00    +0.000 A 
ATOM      6  C   UNL     1       0.675   9.895  18.504  0.00  0.00    +0.000 A 
ENDROOT
BRANCH   1   9
ATOM      7  C   UNL     1       2.577   7.425  18.413  0.00  0.00    +0.000 C 
ATOM      8  O   UNL     1       2.387   7.436  19.625  0.00  0.00    +0.000 OA
ATOM      9  N   UNL     1       2.394   8.486  17.552  0.00  0.00    +0.000 N 
ATOM     10  H   UNL     1       2.445   8.314  16.556  0.00  0.00    +0.000 HD
BRANCH   7  14
ATOM     11  C   UNL     1       5.888   4.346  16.186  0.00  0.00    +0.000 C 
ATOM     12  C   UNL     1       4.574   4.629  16.858  0.00  0.00    +0.000 A 
ATOM     13  C   UNL     1       4.234   5.939  17.194  0.00  0.00    +0.000 A 
ATOM     14  C   UNL     1       3.026   6.136  17.843  0.00  0.00    +0.000 A 
ATOM     15  C   UNL     1       2.200   5.053  18.113  0.00  0.00    +0.000 A 
ATOM     16  C   UNL     1       2.602   3.775  17.778  0.00  0.00    +0.000 A 
ATOM     17  N   UNL     1       3.782   3.554  17.147  0.00  0.00    +0.000 NA
BRANCH  16  18
ATOM     18  N   UNL     1       1.695   2.757  18.204  0.00  0.00    +0.000 N 
ATOM     19  C   UNL     1       1.898   2.076  19.477  0.00  0.00    +0.000 C 
ATOM     20  C   UNL     1       0.797   3.077  19.319  0.00  0.00    +0.000 C 
ENDBRANCH  16  18
ENDBRANCH   7  14
ENDBRANCH   1   9
BRANCH   5  21
ATOM     21  C   UNL     1      -1.340  11.311  19.461  0.00  0.00    +0.000 C 
ATOM     22  C   UNL     1      -1.964  12.725  19.269  0.00  0.00    +0.000 C 
ATOM     23  O   UNL     1      -2.581  12.655  20.577  0.00  0.00    +0.000 OA
ATOM     24  C   UNL     1      -1.616  11.629  20.955  0.00  0.00    +0.000 C 
BRANCH  21  25
ATOM     25  C   UNL     1      -2.238  10.195  18.885  0.00  0.00    +0.000 C 
BRANCH  25  26
ATOM     26  C   UNL     1      -2.835  10.545  17.558  0.00  0.00    +0.000 A 
ATOM     27  N   UNL     1      -2.198  10.564  16.402  0.00  0.00    +0.000 NA
ATOM     28  N   UNL     1      -3.085  10.950  15.424  0.00  0.00    +0.000 NA
ATOM     29  C   UNL     1      -4.246  11.158  15.999  0.00  0.00    +0.000 A 
ATOM     30  N   UNL     1      -4.133  10.936  17.338  0.00  0.00    +0.000 N 
ATOM     31  C   UNL     1      -5.186  11.106  18.303  0.00  0.00    +0.000 C 
ENDBRANCH  25  26
ENDBRANCH  21  25
ENDBRANCH   5  21
TORSDOF 6
ENDMDL
MODEL 7
REMARK VINA RESULT:      -8.3      0.993      2.434
REMARK  Name = 
REMARK  8 active torsions:
REMARK  status: ('A' for Active; 'I' for Inactive)
REMARK    1  A    between atoms: C_1  and  C_2
REMARK    2  A    between atoms: C_4  and  C_5
REMARK    3  A    between atoms: N_7  and  C_8
REMARK    4  A    between atoms: C_12  and  C_13
REMARK    5  A    between atoms: C_13  and  C_14
REMARK    6  A    between atoms: C_14  and  C_15
REMARK    7  A    between atoms: N_19  and  C_20
REMARK    8  A    between atoms: C_26  and  N_27
REMARK                            x       y       z     vdW  Elec       q    Type
REMARK                         _______ _______ _______ _____ _____    ______ ____
ROOT
ATOM      1  C   UNL     1       2.542   5.358  18.469  0.00  0.00    +0.000 A 
ATOM      2  C   UNL     1       1.811   4.176  18.326  0.00  0.00    +0.000 A 
ATOM      3  C   UNL     1       2.311   3.109  17.590  0.00  0.00    +0.000 A 
ATOM      4  C   UNL     1       3.541   3.228  16.959  0.00  0.00    +0.000 A 
ATOM      5  C   UNL     1       4.306   4.411  17.035  0.00  0.00    +0.000 A 
ATOM      6  C   UNL     1       3.778   5.463  17.818  0.00  0.00    +0.000 A 
ENDROOT
BRANCH   1   9
ATOM      7  C   UNL     1       1.901   7.729  18.729  0.00  0.00    +0.000 C 
ATOM      8  O   UNL     1       2.087   8.080  17.569  0.00  0.00    +0.000 OA
ATOM      9  N   UNL     1       2.090   6.460  19.234  0.00  0.00    +0.000 N 
ATOM     10  H   UNL     1       1.766   6.260  20.172  0.00  0.00    +0.000 HD
BRANCH   7  14
ATOM     11  C   UNL     1       0.358   9.508  23.185  0.00  0.00    +0.000 C 
ATOM     12  C   UNL     1       0.744   9.679  21.743  0.00  0.00    +0.000 A 
ATOM     13  C   UNL     1       1.028   8.558  20.962  0.00  0.00    +0.000 A 
ATOM     14  C   UNL     1       1.411   8.778  19.649  0.00  0.00    +0.000 A 
ATOM     15  C   UNL     1       1.478  10.074  19.155  0.00  0.00    +0.000 A 
ATOM     16  C   UNL     1       1.207  11.146  19.982  0.00  0.00    +0.000 A 
ATOM     17  N   UNL     1       0.835  10.959  21.273  0.00  0.00    +0.000 NA
BRANCH  16  18
ATOM     18  N   UNL     1       1.411  12.416  19.362  0.00  0.00    +0.000 N 
ATOM     19  C   UNL     1       0.412  13.470  19.495  0.00  0.00    +0.000 C 
ATOM     20  C   UNL     1       1.709  13.554  20.237  0.00  0.00    +0.000 C 
ENDBRANCH  16  18
ENDBRANCH   7  14
ENDBRANCH   1   9
BRANCH   5  21
ATOM     21  C   UNL     1       5.662   4.557  16.202  0.00  0.00    +0.000 C 
ATOM     22  C   UNL     1       5.699   5.728  15.176  0.00  0.00    +0.000 C 
ATOM     23  O   UNL     1       6.378   4.890  14.210  0.00  0.00    +0.000 OA
ATOM     24  C   UNL     1       5.892   3.712  14.920  0.00  0.00    +0.000 C 
BRANCH  21  25
ATOM     25  C   UNL     1       6.874   4.582  17.159  0.00  0.00    +0.000 C 
BRANCH  25  26
ATOM     26  C   UNL     1       7.353   5.966  17.466  0.00  0.00    +0.000 A 
ATOM     27  N   UNL     1       7.410   6.973  16.614  0.00  0.00    +0.000 NA
ATOM     28  N   UNL     1       7.921   8.068  17.271  0.00  0.00    +0.000 NA
ATOM     29  C   UNL     1       8.163   7.712  18.510  0.00  0.00    +0.000 A 
ATOM     30  N   UNL     1       7.842   6.399  18.674  0.00  0.00    +0.000 N 
ATOM     31  C   UNL     1       8.012   5.644  19.886  0.00  0.00    +0.000 C 
ENDBRANCH  25  26
ENDBRANCH  21  25
ENDBRANCH   5  21
TORSDOF 6
ENDMDL
MODEL 8
REMARK VINA RESULT:      -8.2      2.509      3.742
REMARK  Name = 
REMARK  8 active torsions:
REMARK  status: ('A' for Active; 'I' for Inactive)
REMARK    1  A    between atoms: C_1  and  C_2
REMARK    2  A    between atoms: C_4  and  C_5
REMARK    3  A    between atoms: N_7  and  C_8
REMARK    4  A    between atoms: C_12  and  C_13
REMARK    5  A    between atoms: C_13  and  C_14
REMARK    6  A    between atoms: C_14  and  C_15
REMARK    7  A    between atoms: N_19  and  C_20
REMARK    8  A    between atoms: C_26  and  N_27
REMARK                            x       y       z     vdW  Elec       q    Type
REMARK                         _______ _______ _______ _____ _____    ______ ____
ROOT
ATOM      1  C   UNL     1       2.861   6.783  18.047  0.00  0.00    +0.000 A 
ATOM      2  C   UNL     1       2.316   5.515  18.261  0.00  0.00    +0.000 A 
ATOM      3  C   UNL     1       3.133   4.409  18.460  0.00  0.00    +0.000 A 
ATOM      4  C   UNL     1       4.511   4.557  18.413  0.00  0.00    +0.000 A 
ATOM      5  C   UNL     1       5.118   5.805  18.162  0.00  0.00    +0.000 A 
ATOM      6  C   UNL     1       4.254   6.913  17.996  0.00  0.00    +0.000 A 
ENDROOT
BRANCH   1   9
ATOM      7  C   UNL     1       1.524   8.674  18.906  0.00  0.00    +0.000 C 
ATOM      8  O   UNL     1       1.643   8.432  20.102  0.00  0.00    +0.000 OA
ATOM      9  N   UNL     1       2.072   7.945  17.872  0.00  0.00    +0.000 N 
ATOM     10  H   UNL     1       2.025   8.326  16.935  0.00  0.00    +0.000 HD
BRANCH   7  14
ATOM     11  C   UNL     1      -2.590  11.105  17.304  0.00  0.00    +0.000 C 
ATOM     12  C   UNL     1      -1.205  11.069  17.884  0.00  0.00    +0.000 A 
ATOM     13  C   UNL     1      -0.528   9.854  17.992  0.00  0.00    +0.000 A 
ATOM     14  C   UNL     1       0.733   9.877  18.566  0.00  0.00    +0.000 A 
ATOM     15  C   UNL     1       1.281  11.082  18.988  0.00  0.00    +0.000 A 
ATOM     16  C   UNL     1       0.553  12.250  18.876  0.00  0.00    +0.000 A 
ATOM     17  N   UNL     1      -0.685  12.255  18.323  0.00  0.00    +0.000 NA
BRANCH  16  18
ATOM     18  N   UNL     1       1.205  13.389  19.439  0.00  0.00    +0.000 N 
ATOM     19  C   UNL     1       2.648  13.383  19.648  0.00  0.00    +0.000 C 
ATOM     20  C   UNL     1       2.044  14.195  18.547  0.00  0.00    +0.000 C 
ENDBRANCH  16  18
ENDBRANCH   7  14
ENDBRANCH   1   9
BRANCH   5  21
ATOM     21  C   UNL     1       6.704   5.921  17.999  0.00  0.00    +0.000 C 
ATOM     22  C   UNL     1       7.493   6.245  19.301  0.00  0.00    +0.000 C 
ATOM     23  O   UNL     1       8.364   7.146  18.576  0.00  0.00    +0.000 OA
ATOM     24  C   UNL     1       7.351   7.252  17.532  0.00  0.00    +0.000 C 
BRANCH  21  25
ATOM     25  C   UNL     1       7.256   4.672  17.278  0.00  0.00    +0.000 C 
BRANCH  25  26
ATOM     26  C   UNL     1       7.059   4.712  15.795  0.00  0.00    +0.000 A 
ATOM     27  N   UNL     1       7.687   5.510  14.951  0.00  0.00    +0.000 NA
ATOM     28  N   UNL     1       7.219   5.255  13.683  0.00  0.00    +0.000 NA
ATOM     29  C   UNL     1       6.317   4.306  13.776  0.00  0.00    +0.000 A 
ATOM     30  N   UNL     1       6.169   3.948  15.081  0.00  0.00    +0.000 N 
ATOM     31  C   UNL     1       5.239   2.970  15.577  0.00  0.00    +0.000 C 
ENDBRANCH  25  26
ENDBRANCH  21  25
ENDBRANCH   5  21
TORSDOF 6
ENDMDL
MODEL 9
REMARK VINA RESULT:      -8.2      3.550     10.503
REMARK  Name = 
REMARK  8 active torsions:
REMARK  status: ('A' for Active; 'I' for Inactive)
REMARK    1  A    between atoms: C_1  and  C_2
REMARK    2  A    between atoms: C_4  and  C_5
REMARK    3  A    between atoms: N_7  and  C_8
REMARK    4  A    between atoms: C_12  and  C_13
REMARK    5  A    between atoms: C_13  and  C_14
REMARK    6  A    between atoms: C_14  and  C_15
REMARK    7  A    between atoms: N_19  and  C_20
REMARK    8  A    between atoms: C_26  and  N_27
REMARK                            x       y       z     vdW  Elec       q    Type
REMARK                         _______ _______ _______ _____ _____    ______ ____
ROOT
ATOM      1  C   UNL     1      -0.409  10.069  19.048  0.00  0.00    +0.000 A 
ATOM      2  C   UNL     1      -1.180  10.364  17.922  0.00  0.00    +0.000 A 
ATOM      3  C   UNL     1      -2.071  11.429  17.924  0.00  0.00    +0.000 A 
ATOM      4  C   UNL     1      -2.226  12.192  19.071  0.00  0.00    +0.000 A 
ATOM      5  C   UNL     1      -1.504  11.917  20.251  0.00  0.00    +0.000 A 
ATOM      6  C   UNL     1      -0.583  10.845  20.201  0.00  0.00    +0.000 A 
ENDROOT
BRANCH   1   9
ATOM      7  C   UNL     1       1.672   8.964  18.305  0.00  0.00    +0.000 C 
ATOM      8  O   UNL     1       2.025   9.807  17.487  0.00  0.00    +0.000 OA
ATOM      9  N   UNL     1       0.536   9.015  19.086  0.00  0.00    +0.000 N 
ATOM     10  H   UNL     1       0.428   8.333  19.825  0.00  0.00    +0.000 HD
BRANCH   7  14
ATOM     11  C   UNL     1       3.060   4.515  20.225  0.00  0.00    +0.000 C 
ATOM     12  C   UNL     1       3.239   5.678  19.289  0.00  0.00    +0.000 A 
ATOM     13  C   UNL     1       2.385   6.777  19.376  0.00  0.00    +0.000 A 
ATOM     14  C   UNL     1       2.574   7.804  18.466  0.00  0.00    +0.000 A 
ATOM     15  C   UNL     1       3.599   7.720  17.531  0.00  0.00    +0.000 A 
ATOM     16  C   UNL     1       4.398   6.596  17.478  0.00  0.00    +0.000 A 
ATOM     17  N   UNL     1       4.230   5.574  18.354  0.00  0.00    +0.000 NA
BRANCH  16  18
ATOM     18  N   UNL     1       5.341   6.611  16.406  0.00  0.00    +0.000 N 
ATOM     19  C   UNL     1       6.552   5.803  16.478  0.00  0.00    +0.000 C 
ATOM     20  C   UNL     1       5.431   5.410  15.569  0.00  0.00    +0.000 C 
ENDBRANCH  16  18
ENDBRANCH   7  14
ENDBRANCH   1   9
BRANCH   5  21
ATOM     21  C   UNL     1      -1.789  12.742  21.591  0.00  0.00    +0.000 C 
ATOM     22  C   UNL     1      -0.557  13.461  22.215  0.00  0.00    +0.000 C 
ATOM     23  O   UNL     1      -0.989  13.092  23.548  0.00  0.00    +0.000 OA
ATOM     24  C   UNL     1      -1.798  12.025  22.968  0.00  0.00    +0.000 C 
BRANCH  21  25
ATOM     25  C   UNL     1      -2.980  13.702  21.380  0.00  0.00    +0.000 C 
BRANCH  25  26
ATOM     26  C   UNL     1      -4.210  13.288  22.125  0.00  0.00    +0.000 A 
ATOM     27  N   UNL     1      -5.078  12.372  21.739  0.00  0.00    +0.000 NA
ATOM     28  N   UNL     1      -6.075  12.293  22.683  0.00  0.00    +0.000 NA
ATOM     29  C   UNL     1      -5.797  13.160  23.629  0.00  0.00    +0.000 A 
ATOM     30  N   UNL     1      -4.648  13.820  23.313  0.00  0.00    +0.000 N 
ATOM     31  C   UNL     1      -4.052  14.874  24.089  0.00  0.00    +0.000 C 
ENDBRANCH  25  26
ENDBRANCH  21  25
ENDBRANCH   5  21
TORSDOF 6
ENDMDL
