MODEL 1
REMARK VINA RESULT:      -8.6      0.000      0.000
REMARK  Name = 
REMARK  2 active torsions:
REMARK  status: ('A' for Active; 'I' for Inactive)
REMARK    1  A    between atoms: N_4  and  C_5
REMARK    2  A    between atoms: C_9  and  C_10
REMARK                            x       y       z     vdW  Elec       q    Type
REMARK                         _______ _______ _______ _____ _____    ______ ____
ROOT
ATOM      1  C   UNL     1       2.608   8.272  17.891  0.00  0.00    +0.000 C 
ATOM      2  O   UNL     1       3.467   9.073  17.516  0.00  0.00    +0.000 OA
ATOM      3  N   UNL     1       2.752   6.856  17.872  0.00  0.00    +0.000 N 
ATOM      4  C   UNL     1       1.827   5.955  18.578  0.00  0.00    +0.000 C 
ATOM      5  C   UNL     1       2.636   5.266  19.662  0.00  0.00    +0.000 C 
ATOM      6  C   UNL     1       1.834   4.896  20.891  0.00  0.00    +0.000 C 
ATOM      7  C   UNL     1       1.359   3.475  21.010  0.00  0.00    +0.000 C 
ATOM      8  C   UNL     1       2.160   2.428  20.253  0.00  0.00    +0.000 C 
ATOM      9  C   UNL     1       3.396   2.858  19.446  0.00  0.00    +0.000 C 
ATOM     10  N   UNL     1       3.358   4.225  18.965  0.00  0.00    +0.000 N 
ATOM     11  C   UNL     1       4.232   4.803  18.007  0.00  0.00    +0.000 A 
ATOM     12  C   UNL     1       5.398   4.137  17.595  0.00  0.00    +0.000 A 
ATOM     13  C   UNL     1       6.333   4.767  16.767  0.00  0.00    +0.000 A 
ATOM     14  C   UNL     1       6.108   6.060  16.298  0.00  0.00    +0.000 A 
ATOM     15  C   UNL     1       4.936   6.741  16.646  0.00  0.00    +0.000 A 
ATOM     16  C   UNL     1       3.985   6.149  17.487  0.00  0.00    +0.000 A 
ENDROOT
BRANCH   1  21
ATOM     17  C   UNL     1      -0.794   9.956  18.281  0.00  0.00    +0.000 A 
ATOM     18  C   UNL     1      -0.674  10.332  19.624  0.00  0.00    +0.000 A 
ATOM     19  C   UNL     1       0.411   9.908  20.361  0.00  0.00    +0.000 A 
ATOM     20  N   UNL     1       1.393   9.142  19.855  0.00  0.00    +0.000 NA
ATOM     21  C   UNL     1       1.362   8.884  18.522  0.00  0.00    +0.000 A 
ATOM     22  C   UNL     1       0.273   9.240  17.720  0.00  0.00    +0.000 A 
BRANCH  17  26
ATOM     23  O   UNL     1      -3.435  10.699  14.264  0.00  0.00    +0.000 OA
ATOM     24  C   UNL     1      -3.282  10.752  15.488  0.00  0.00    +0.000 C 
ATOM     25  C   UNL     1      -2.205   9.894  16.210  0.00  0.00    +0.000 C 
ATOM     26  N   UNL     1      -1.918  10.376  17.579  0.00  0.00    +0.000 N 
ATOM     27  C   UNL     1      -3.126  10.692  18.361  0.00  0.00    +0.000 C 
ATOM     28  C   UNL     1      -3.856  11.830  17.644  0.00  0.00    +0.000 C 
ATOM     29  N   UNL     1      -4.131  11.510  16.254  0.00  0.00    +0.000 N 
ATOM     30  H   UNL     1      -4.747  12.104  15.719  0.00  0.00    +0.000 HD
ENDBRANCH  17  26
ENDBRANCH   1  21
TORSDOF 2
ENDMDL
MODEL 2
REMARK VINA RESULT:      -8.4      1.736      2.095
REMARK  Name = 
REMARK  2 active torsions:
REMARK  status: ('A' for Active; 'I' for Inactive)
REMARK    1  A    between atoms: N_4  and  C_5
REMARK    2  A    between atoms: C_9  and  C_10
REMARK                            x       y       z     vdW  Elec       q    Type
REMARK                         _______ _______ _______ _____ _____    ______ ____
ROOT
ATOM      1  C   UNL     1       2.580   7.987  18.390  0.00  0.00    +0.000 C 
ATOM      2  O   UNL     1       3.401   8.796  17.953  0.00  0.00    +0.000 OA
ATOM      3  N   UNL     1       2.606   6.585  18.140  0.00  0.00    +0.000 N 
ATOM      4  C   UNL     1       1.782   5.630  18.897  0.00  0.00    +0.000 C 
ATOM      5  C   UNL     1       2.743   4.746  19.669  0.00  0.00    +0.000 C 
ATOM      6  C   UNL     1       2.190   4.227  20.979  0.00  0.00    +0.000 C 
ATOM      7  C   UNL     1       1.641   2.828  20.997  0.00  0.00    +0.000 C 
ATOM      8  C   UNL     1       2.182   1.875  19.944  0.00  0.00    +0.000 C 
ATOM      9  C   UNL     1       3.251   2.368  18.955  0.00  0.00    +0.000 C 
ATOM     10  N   UNL     1       3.220   3.793  18.692  0.00  0.00    +0.000 N 
ATOM     11  C   UNL     1       3.917   4.471  17.657  0.00  0.00    +0.000 A 
ATOM     12  C   UNL     1       4.914   3.824  16.910  0.00  0.00    +0.000 A 
ATOM     13  C   UNL     1       5.702   4.531  15.995  0.00  0.00    +0.000 A 
ATOM     14  C   UNL     1       5.485   5.889  15.774  0.00  0.00    +0.000 A 
ATOM     15  C   UNL     1       4.469   6.562  16.463  0.00  0.00    +0.000 A 
ATOM     16  C   UNL     1       3.672   5.891  17.399  0.00  0.00    +0.000 A 
ENDROOT
BRANCH   1  21
ATOM     17  C   UNL     1      -0.311  10.037  19.804  0.00  0.00    +0.000 A 
ATOM     18  C   UNL     1      -0.036   9.850  21.164  0.00  0.00    +0.000 A 
ATOM     19  C   UNL     1       0.957   8.977  21.550  0.00  0.00    +0.000 A 
ATOM     20  N   UNL     1       1.705   8.278  20.679  0.00  0.00    +0.000 NA
ATOM     21  C   UNL     1       1.546   8.550  19.358  0.00  0.00    +0.000 A 
ATOM     22  C   UNL     1       0.529   9.389  18.888  0.00  0.00    +0.000 A 
BRANCH  17  26
ATOM     23  O   UNL     1      -3.732  13.376  20.703  0.00  0.00    +0.000 OA
ATOM     24  C   UNL     1      -3.110  12.639  19.932  0.00  0.00    +0.000 C 
ATOM     25  C   UNL     1      -1.729  12.038  20.319  0.00  0.00    +0.000 C 
ATOM     26  N   UNL     1      -1.341  10.902  19.454  0.00  0.00    +0.000 N 
ATOM     27  C   UNL     1      -1.561  11.149  18.018  0.00  0.00    +0.000 C 
ATOM     28  C   UNL     1      -3.062  11.360  17.811  0.00  0.00    +0.000 C 
ATOM     29  N   UNL     1      -3.589  12.408  18.667  0.00  0.00    +0.000 N 
ATOM     30  H   UNL     1      -4.525  12.755  18.512  0.00  0.00    +0.000 HD
ENDBRANCH  17  26
ENDBRANCH   1  21
TORSDOF 2
ENDMDL
MODEL 3
REMARK VINA RESULT:      -8.4      2.701      8.889
REMARK  Name = 
REMARK  2 active torsions:
REMARK  status: ('A' for Active; 'I' for Inactive)
REMARK    1  A    between atoms: N_4  and  C_5
REMARK    2  A    between atoms: C_9  and  C_10
REMARK                            x       y       z     vdW  Elec       q    Type
REMARK                         _______ _______ _______ _____ _____    ______ ____
ROOT
ATOM      1  C   UNL     1       0.734  10.167  20.691  0.00  0.00    +0.000 C 
ATOM      2  O   UNL     1       1.529  10.700  21.468  0.00  0.00    +0.000 OA
ATOM      3  N   UNL     1      -0.636  10.531  20.553  0.00  0.00    +0.000 N 
ATOM      4  C   UNL     1      -1.470  10.066  19.434  0.00  0.00    +0.000 C 
ATOM      5  C   UNL     1      -1.844  11.298  18.631  0.00  0.00    +0.000 C 
ATOM      6  C   UNL     1      -2.046  11.038  17.155  0.00  0.00    +0.000 C 
ATOM      7  C   UNL     1      -3.457  10.876  16.663  0.00  0.00    +0.000 C 
ATOM      8  C   UNL     1      -4.544  11.535  17.497  0.00  0.00    +0.000 C 
ATOM      9  C   UNL     1      -4.156  12.330  18.753  0.00  0.00    +0.000 C 
ATOM     10  N   UNL     1      -2.922  11.903  19.382  0.00  0.00    +0.000 N 
ATOM     11  C   UNL     1      -2.457  12.289  20.668  0.00  0.00    +0.000 A 
ATOM     12  C   UNL     1      -3.067  13.338  21.374  0.00  0.00    +0.000 A 
ATOM     13  C   UNL     1      -2.519  13.816  22.570  0.00  0.00    +0.000 A 
ATOM     14  C   UNL     1      -1.375  13.231  23.108  0.00  0.00    +0.000 A 
ATOM     15  C   UNL     1      -0.763  12.152  22.461  0.00  0.00    +0.000 A 
ATOM     16  C   UNL     1      -1.273  11.658  21.253  0.00  0.00    +0.000 A 
ENDROOT
BRANCH   1  21
ATOM     17  C   UNL     1       2.247   6.920  19.376  0.00  0.00    +0.000 A 
ATOM     18  C   UNL     1       2.745   7.413  18.163  0.00  0.00    +0.000 A 
ATOM     19  C   UNL     1       2.450   8.702  17.774  0.00  0.00    +0.000 A 
ATOM     20  N   UNL     1       1.700   9.542  18.508  0.00  0.00    +0.000 NA
ATOM     21  C   UNL     1       1.326   9.127  19.746  0.00  0.00    +0.000 A 
ATOM     22  C   UNL     1       1.548   7.820  20.192  0.00  0.00    +0.000 A 
BRANCH  17  26
ATOM     23  O   UNL     1       2.024   2.973  22.210  0.00  0.00    +0.000 OA
ATOM     24  C   UNL     1       2.413   3.561  21.196  0.00  0.00    +0.000 C 
ATOM     25  C   UNL     1       1.712   4.853  20.687  0.00  0.00    +0.000 C 
ATOM     26  N   UNL     1       2.540   5.606  19.720  0.00  0.00    +0.000 N 
ATOM     27  C   UNL     1       3.164   4.758  18.689  0.00  0.00    +0.000 C 
ATOM     28  C   UNL     1       4.105   3.783  19.400  0.00  0.00    +0.000 C 
ATOM     29  N   UNL     1       3.424   3.028  20.438  0.00  0.00    +0.000 N 
ATOM     30  H   UNL     1       3.889   2.242  20.868  0.00  0.00    +0.000 HD
ENDBRANCH  17  26
ENDBRANCH   1  21
TORSDOF 2
ENDMDL
MODEL 4
REMARK VINA RESULT:      -8.4      1.302      1.428
REMARK  Name = 
REMARK  2 active torsions:
REMARK  status: ('A' for Active; 'I' for Inactive)
REMARK    1  A    between atoms: N_4  and  C_5
REMARK    2  A    between atoms: C_9  and  C_10
REMARK                            x       y       z     vdW  Elec       q    Type
REMARK                         _______ _______ _______ _____ _____    ______ ____
ROOT
ATOM      1  C   UNL     1       3.236   7.558  17.866  0.00  0.00    +0.000 C 
ATOM      2  O   UNL     1       4.156   8.338  17.610  0.00  0.00    +0.000 OA
ATOM      3  N   UNL     1       3.217   6.179  17.512  0.00  0.00    +0.000 N 
ATOM      4  C   UNL     1       2.241   5.231  18.072  0.00  0.00    +0.000 C 
ATOM      5  C   UNL     1       3.031   4.231  18.896  0.00  0.00    +0.000 C 
ATOM      6  C   UNL     1       2.271   3.660  20.073  0.00  0.00    +0.000 C 
ATOM      7  C   UNL     1       1.645   2.304  19.906  0.00  0.00    +0.000 C 
ATOM      8  C   UNL     1       2.273   1.393  18.864  0.00  0.00    +0.000 C 
ATOM      9  C   UNL     1       3.497   1.880  18.071  0.00  0.00    +0.000 C 
ATOM     10  N   UNL     1       3.585   3.319  17.920  0.00  0.00    +0.000 N 
ATOM     11  C   UNL     1       4.459   4.020  17.046  0.00  0.00    +0.000 A 
ATOM     12  C   UNL     1       5.513   3.361  16.393  0.00  0.00    +0.000 A 
ATOM     13  C   UNL     1       6.461   4.075  15.653  0.00  0.00    +0.000 A 
ATOM     14  C   UNL     1       6.355   5.457  15.512  0.00  0.00    +0.000 A 
ATOM     15  C   UNL     1       5.293   6.147  16.107  0.00  0.00    +0.000 A 
ATOM     16  C   UNL     1       4.334   5.468  16.871  0.00  0.00    +0.000 A 
ENDROOT
BRANCH   1  21
ATOM     17  C   UNL     1       0.173   9.551  18.961  0.00  0.00    +0.000 A 
ATOM     18  C   UNL     1       0.346   9.433  20.346  0.00  0.00    +0.000 A 
ATOM     19  C   UNL     1       1.336   8.615  20.845  0.00  0.00    +0.000 A 
ATOM     20  N   UNL     1       2.175   7.911  20.066  0.00  0.00    +0.000 NA
ATOM     21  C   UNL     1       2.110   8.121  18.726  0.00  0.00    +0.000 A 
ATOM     22  C   UNL     1       1.104   8.899  18.142  0.00  0.00    +0.000 A 
BRANCH  17  26
ATOM     23  O   UNL     1      -3.048  11.088  15.655  0.00  0.00    +0.000 OA
ATOM     24  C   UNL     1      -2.528  11.146  16.773  0.00  0.00    +0.000 C 
ATOM     25  C   UNL     1      -1.701   9.961  17.348  0.00  0.00    +0.000 C 
ATOM     26  N   UNL     1      -0.857  10.360  18.496  0.00  0.00    +0.000 N 
ATOM     27  C   UNL     1      -1.558  11.201  19.482  0.00  0.00    +0.000 C 
ATOM     28  C   UNL     1      -1.972  12.494  18.776  0.00  0.00    +0.000 C 
ATOM     29  N   UNL     1      -2.751  12.235  17.578  0.00  0.00    +0.000 N 
ATOM     30  H   UNL     1      -3.220  12.999  17.114  0.00  0.00    +0.000 HD
ENDBRANCH  17  26
ENDBRANCH   1  21
TORSDOF 2
ENDMDL
MODEL 5
REMARK VINA RESULT:      -8.4      1.039      1.384
REMARK  Name = 
REMARK  2 active torsions:
REMARK  status: ('A' for Active; 'I' for Inactive)
REMARK    1  A    between atoms: N_4  and  C_5
REMARK    2  A    between atoms: C_9  and  C_10
REMARK                            x       y       z     vdW  Elec       q    Type
REMARK                         _______ _______ _______ _____ _____    ______ ____
ROOT
ATOM      1  C   UNL     1       2.574   8.183  18.001  0.00  0.00    +0.000 C 
ATOM      2  O   UNL     1       3.401   8.974  17.543  0.00  0.00    +0.000 OA
ATOM      3  N   UNL     1       2.693   6.765  17.957  0.00  0.00    +0.000 N 
ATOM      4  C   UNL     1       1.833   5.872  18.750  0.00  0.00    +0.000 C 
ATOM      5  C   UNL     1       2.740   5.162  19.738  0.00  0.00    +0.000 C 
ATOM      6  C   UNL     1       2.066   4.793  21.041  0.00  0.00    +0.000 C 
ATOM      7  C   UNL     1       1.583   3.378  21.200  0.00  0.00    +0.000 C 
ATOM      8  C   UNL     1       2.285   2.327  20.356  0.00  0.00    +0.000 C 
ATOM      9  C   UNL     1       3.435   2.745  19.427  0.00  0.00    +0.000 C 
ATOM     10  N   UNL     1       3.369   4.116  18.963  0.00  0.00    +0.000 N 
ATOM     11  C   UNL     1       4.147   4.689  17.922  0.00  0.00    +0.000 A 
ATOM     12  C   UNL     1       5.252   4.010  17.386  0.00  0.00    +0.000 A 
ATOM     13  C   UNL     1       6.106   4.633  16.468  0.00  0.00    +0.000 A 
ATOM     14  C   UNL     1       5.852   5.932  16.035  0.00  0.00    +0.000 A 
ATOM     15  C   UNL     1       4.735   6.629  16.508  0.00  0.00    +0.000 A 
ATOM     16  C   UNL     1       3.867   6.043  17.440  0.00  0.00    +0.000 A 
ENDROOT
BRANCH   1  21
ATOM     17  C   UNL     1      -0.707   9.979  18.756  0.00  0.00    +0.000 A 
ATOM     18  C   UNL     1      -0.464  10.271  20.104  0.00  0.00    +0.000 A 
ATOM     19  C   UNL     1       0.654   9.761  20.726  0.00  0.00    +0.000 A 
ATOM     20  N   UNL     1       1.557   8.986  20.101  0.00  0.00    +0.000 NA
ATOM     21  C   UNL     1       1.410   8.808  18.763  0.00  0.00    +0.000 A 
ATOM     22  C   UNL     1       0.279   9.255  18.072  0.00  0.00    +0.000 A 
BRANCH  17  26
ATOM     23  O   UNL     1      -4.981  12.302  18.780  0.00  0.00    +0.000 OA
ATOM     24  C   UNL     1      -4.077  11.697  18.195  0.00  0.00    +0.000 C 
ATOM     25  C   UNL     1      -2.662  11.545  18.823  0.00  0.00    +0.000 C 
ATOM     26  N   UNL     1      -1.862  10.485  18.172  0.00  0.00    +0.000 N 
ATOM     27  C   UNL     1      -1.917  10.523  16.700  0.00  0.00    +0.000 C 
ATOM     28  C   UNL     1      -3.370  10.285  16.286  0.00  0.00    +0.000 C 
ATOM     29  N   UNL     1      -4.279  11.222  16.924  0.00  0.00    +0.000 N 
ATOM     30  H   UNL     1      -5.237  11.278  16.612  0.00  0.00    +0.000 HD
ENDBRANCH  17  26
ENDBRANCH   1  21
TORSDOF 2
ENDMDL
MODEL 6
REMARK VINA RESULT:      -8.3      2.627      8.910
REMARK  Name = 
REMARK  2 active torsions:
REMARK  status: ('A' for Active; 'I' for Inactive)
REMARK    1  A    between atoms: N_4  and  C_5
REMARK    2  A    between atoms: C_9  and  C_10
REMARK                            x       y       z     vdW  Elec       q    Type
REMARK                         _______ _______ _______ _____ _____    ______ ____
ROOT
ATOM      1  C   UNL     1       0.617  10.466  20.621  0.00  0.00    +0.000 C 
ATOM      2  O   UNL     1       1.408  11.035  21.377  0.00  0.00    +0.000 OA
ATOM      3  N   UNL     1      -0.769  10.772  20.514  0.00  0.00    +0.000 N 
ATOM      4  C   UNL     1      -1.610  10.268  19.417  0.00  0.00    +0.000 C 
ATOM      5  C   UNL     1      -2.054  11.480  18.619  0.00  0.00    +0.000 C 
ATOM      6  C   UNL     1      -2.279  11.203  17.148  0.00  0.00    +0.000 C 
ATOM      7  C   UNL     1      -3.694  10.981  16.690  0.00  0.00    +0.000 C 
ATOM      8  C   UNL     1      -4.786  11.598  17.547  0.00  0.00    +0.000 C 
ATOM      9  C   UNL     1      -4.403  12.415  18.791  0.00  0.00    +0.000 C 
ATOM     10  N   UNL     1      -3.138  12.042  19.393  0.00  0.00    +0.000 N 
ATOM     11  C   UNL     1      -2.659  12.453  20.665  0.00  0.00    +0.000 A 
ATOM     12  C   UNL     1      -3.295  13.480  21.382  0.00  0.00    +0.000 A 
ATOM     13  C   UNL     1      -2.740  13.986  22.562  0.00  0.00    +0.000 A 
ATOM     14  C   UNL     1      -1.560  13.452  23.076  0.00  0.00    +0.000 A 
ATOM     15  C   UNL     1      -0.919  12.396  22.418  0.00  0.00    +0.000 A 
ATOM     16  C   UNL     1      -1.436  11.875  21.225  0.00  0.00    +0.000 A 
ENDROOT
BRANCH   1  21
ATOM     17  C   UNL     1       2.247   7.285  19.286  0.00  0.00    +0.000 A 
ATOM     18  C   UNL     1       2.681   7.790  18.053  0.00  0.00    +0.000 A 
ATOM     19  C   UNL     1       2.310   9.058  17.663  0.00  0.00    +0.000 A 
ATOM     20  N   UNL     1       1.544   9.867  18.414  0.00  0.00    +0.000 NA
ATOM     21  C   UNL     1       1.230   9.447  19.666  0.00  0.00    +0.000 A 
ATOM     22  C   UNL     1       1.530   8.157  20.117  0.00  0.00    +0.000 A 
BRANCH  17  26
ATOM     23  O   UNL     1       5.155   3.386  19.227  0.00  0.00    +0.000 OA
ATOM     24  C   UNL     1       4.134   3.974  19.598  0.00  0.00    +0.000 C 
ATOM     25  C   UNL     1       4.013   5.522  19.516  0.00  0.00    +0.000 C 
ATOM     26  N   UNL     1       2.615   5.990  19.631  0.00  0.00    +0.000 N 
ATOM     27  C   UNL     1       1.860   5.337  20.716  0.00  0.00    +0.000 C 
ATOM     28  C   UNL     1       1.793   3.842  20.397  0.00  0.00    +0.000 C 
ATOM     29  N   UNL     1       3.111   3.271  20.183  0.00  0.00    +0.000 N 
ATOM     30  H   UNL     1       3.217   2.269  20.127  0.00  0.00    +0.000 HD
ENDBRANCH  17  26
ENDBRANCH   1  21
TORSDOF 2
ENDMDL
MODEL 7
REMARK VINA RESULT:      -8.2      2.218      2.427
REMARK  Name = 
REMARK  2 active torsions:
REMARK  status: ('A' for Active; 'I' for Inactive)
REMARK    1  A    between atoms: N_4  and  C_5
REMARK    2  A    between atoms: C_9  and  C_10
REMARK                            x       y       z     vdW  Elec       q    Type
REMARK                         _______ _______ _______ _____ _____    ______ ____
ROOT
ATOM      1  C   UNL     1       3.004   7.739  18.128  0.00  0.00    +0.000 C 
ATOM      2  O   UNL     1       3.900   8.493  17.744  0.00  0.00    +0.000 OA
ATOM      3  N   UNL     1       2.930   6.348  17.832  0.00  0.00    +0.000 N 
ATOM      4  C   UNL     1       2.009   5.437  18.529  0.00  0.00    +0.000 C 
ATOM      5  C   UNL     1       2.872   4.456  19.301  0.00  0.00    +0.000 C 
ATOM      6  C   UNL     1       2.236   3.941  20.574  0.00  0.00    +0.000 C 
ATOM      7  C   UNL     1       1.579   2.590  20.527  0.00  0.00    +0.000 C 
ATOM      8  C   UNL     1       2.081   1.631  19.460  0.00  0.00    +0.000 C 
ATOM      9  C   UNL     1       3.217   2.069  18.523  0.00  0.00    +0.000 C 
ATOM     10  N   UNL     1       3.306   3.499  18.308  0.00  0.00    +0.000 N 
ATOM     11  C   UNL     1       4.089   4.153  17.319  0.00  0.00    +0.000 A 
ATOM     12  C   UNL     1       5.058   3.453  16.583  0.00  0.00    +0.000 A 
ATOM     13  C   UNL     1       5.929   4.124  15.718  0.00  0.00    +0.000 A 
ATOM     14  C   UNL     1       5.826   5.502  15.536  0.00  0.00    +0.000 A 
ATOM     15  C   UNL     1       4.842   6.230  16.214  0.00  0.00    +0.000 A 
ATOM     16  C   UNL     1       3.963   5.595  17.102  0.00  0.00    +0.000 A 
ENDROOT
BRANCH   1  21
ATOM     17  C   UNL     1       0.520  10.180  19.685  0.00  0.00    +0.000 A 
ATOM     18  C   UNL     1       0.474   9.621  20.968  0.00  0.00    +0.000 A 
ATOM     19  C   UNL     1       1.118   8.430  21.221  0.00  0.00    +0.000 A 
ATOM     20  N   UNL     1       1.814   7.755  20.290  0.00  0.00    +0.000 NA
ATOM     21  C   UNL     1       1.984   8.351  19.081  0.00  0.00    +0.000 A 
ATOM     22  C   UNL     1       1.324   9.535  18.736  0.00  0.00    +0.000 A 
BRANCH  17  26
ATOM     23  O   UNL     1       0.168  14.925  18.669  0.00  0.00    +0.000 OA
ATOM     24  C   UNL     1      -0.340  13.829  18.928  0.00  0.00    +0.000 C 
ATOM     25  C   UNL     1       0.454  12.503  18.747  0.00  0.00    +0.000 C 
ATOM     26  N   UNL     1      -0.168  11.366  19.460  0.00  0.00    +0.000 N 
ATOM     27  C   UNL     1      -1.628  11.279  19.276  0.00  0.00    +0.000 C 
ATOM     28  C   UNL     1      -2.245  12.551  19.863  0.00  0.00    +0.000 C 
ATOM     29  N   UNL     1      -1.659  13.752  19.295  0.00  0.00    +0.000 N 
ATOM     30  H   UNL     1      -2.088  14.649  19.475  0.00  0.00    +0.000 HD
ENDBRANCH  17  26
ENDBRANCH   1  21
TORSDOF 2
ENDMDL
MODEL 8
REMARK VINA RESULT:      -8.1      2.345      2.570
REMARK  Name = 
REMARK  2 active torsions:
REMARK  status: ('A' for Active; 'I' for Inactive)
REMARK    1  A    between atoms: N_4  and  C_5
REMARK    2  A    between atoms: C_9  and  C_10
REMARK                            x       y       z     vdW  Elec       q    Type
REMARK                         _______ _______ _______ _____ _____    ______ ____
ROOT
ATOM      1  C   UNL     1       3.028   7.684  18.145  0.00  0.00    +0.000 C 
ATOM      2  O   UNL     1       3.904   8.469  17.777  0.00  0.00    +0.000 OA
ATOM      3  N   UNL     1       2.978   6.303  17.803  0.00  0.00    +0.000 N 
ATOM      4  C   UNL     1       2.084   5.351  18.481  0.00  0.00    +0.000 C 
ATOM      5  C   UNL     1       2.976   4.362  19.209  0.00  0.00    +0.000 C 
ATOM      6  C   UNL     1       2.367   3.792  20.471  0.00  0.00    +0.000 C 
ATOM      7  C   UNL     1       1.736   2.430  20.387  0.00  0.00    +0.000 C 
ATOM      8  C   UNL     1       2.243   1.518  19.282  0.00  0.00    +0.000 C 
ATOM      9  C   UNL     1       3.358   2.010  18.346  0.00  0.00    +0.000 C 
ATOM     10  N   UNL     1       3.416   3.448  18.178  0.00  0.00    +0.000 N 
ATOM     11  C   UNL     1       4.173   4.150  17.202  0.00  0.00    +0.000 A 
ATOM     12  C   UNL     1       5.146   3.495  16.431  0.00  0.00    +0.000 A 
ATOM     13  C   UNL     1       5.993   4.212  15.578  0.00  0.00    +0.000 A 
ATOM     14  C   UNL     1       5.859   5.593  15.445  0.00  0.00    +0.000 A 
ATOM     15  C   UNL     1       4.871   6.278  16.159  0.00  0.00    +0.000 A 
ATOM     16  C   UNL     1       4.016   5.596  17.036  0.00  0.00    +0.000 A 
ENDROOT
BRANCH   1  21
ATOM     17  C   UNL     1       0.549  10.039  19.838  0.00  0.00    +0.000 A 
ATOM     18  C   UNL     1       0.500   9.408  21.087  0.00  0.00    +0.000 A 
ATOM     19  C   UNL     1       1.142   8.203  21.272  0.00  0.00    +0.000 A 
ATOM     20  N   UNL     1       1.837   7.581  20.304  0.00  0.00    +0.000 NA
ATOM     21  C   UNL     1       2.009   8.243  19.131  0.00  0.00    +0.000 A 
ATOM     22  C   UNL     1       1.352   9.447  18.853  0.00  0.00    +0.000 A 
BRANCH  17  26
ATOM     23  O   UNL     1      -3.173  13.091  20.546  0.00  0.00    +0.000 OA
ATOM     24  C   UNL     1      -2.072  12.815  20.059  0.00  0.00    +0.000 C 
ATOM     25  C   UNL     1      -1.205  11.651  20.617  0.00  0.00    +0.000 C 
ATOM     26  N   UNL     1      -0.137  11.237  19.680  0.00  0.00    +0.000 N 
ATOM     27  C   UNL     1       0.599  12.367  19.087  0.00  0.00    +0.000 C 
ATOM     28  C   UNL     1      -0.399  13.192  18.271  0.00  0.00    +0.000 C 
ATOM     29  N   UNL     1      -1.545  13.600  19.064  0.00  0.00    +0.000 N 
ATOM     30  H   UNL     1      -2.191  14.281  18.692  0.00  0.00    +0.000 HD
ENDBRANCH  17  26
ENDBRANCH   1  21
TORSDOF 2
ENDMDL
MODEL 9
REMARK VINA RESULT:      -7.3      5.095      9.392
REMARK  Name = 
REMARK  2 active torsions:
REMARK  status: ('A' for Active; 'I' for Inactive)
REMARK    1  A    between atoms: N_4  and  C_5
REMARK    2  A    between atoms: C_9  and  C_10
REMARK                            x       y       z     vdW  Elec       q    Type
REMARK                         _______ _______ _______ _____ _____    ______ ____
ROOT
ATOM      1  C   UNL     1      -0.567  13.149  21.804  0.00  0.00    +0.000 C 
ATOM      2  O   UNL     1       0.379  13.938  21.836  0.00  0.00    +0.000 OA
ATOM      3  N   UNL     1      -1.723  13.230  22.632  0.00  0.00    +0.000 N 
ATOM      4  C   UNL     1      -2.939  12.444  22.375  0.00  0.00    +0.000 C 
ATOM      5  C   UNL     1      -4.036  13.438  22.042  0.00  0.00    +0.000 C 
ATOM      6  C   UNL     1      -5.087  12.905  21.094  0.00  0.00    +0.000 C 
ATOM      7  C   UNL     1      -6.376  12.411  21.689  0.00  0.00    +0.000 C 
ATOM      8  C   UNL     1      -6.762  12.990  23.040  0.00  0.00    +0.000 C 
ATOM      9  C   UNL     1      -5.854  14.039  23.702  0.00  0.00    +0.000 C 
ATOM     10  N   UNL     1      -4.457  13.952  23.326  0.00  0.00    +0.000 N 
ATOM     11  C   UNL     1      -3.375  14.623  23.956  0.00  0.00    +0.000 A 
ATOM     12  C   UNL     1      -3.602  15.646  24.891  0.00  0.00    +0.000 A 
ATOM     13  C   UNL     1      -2.543  16.406  25.399  0.00  0.00    +0.000 A 
ATOM     14  C   UNL     1      -1.230  16.135  25.017  0.00  0.00    +0.000 A 
ATOM     15  C   UNL     1      -0.956  15.094  24.124  0.00  0.00    +0.000 A 
ATOM     16  C   UNL     1      -1.992  14.322  23.581  0.00  0.00    +0.000 A 
ENDROOT
BRANCH   1  21
ATOM     17  C   UNL     1      -1.518  11.020  18.784  0.00  0.00    +0.000 A 
ATOM     18  C   UNL     1      -0.620   9.966  18.997  0.00  0.00    +0.000 A 
ATOM     19  C   UNL     1       0.323  10.060  19.997  0.00  0.00    +0.000 A 
ATOM     20  N   UNL     1       0.434  11.125  20.809  0.00  0.00    +0.000 NA
ATOM     21  C   UNL     1      -0.513  12.093  20.706  0.00  0.00    +0.000 A 
ATOM     22  C   UNL     1      -1.473  12.090  19.688  0.00  0.00    +0.000 A 
BRANCH  17  26
ATOM     23  O   UNL     1      -2.879   9.994  14.228  0.00  0.00    +0.000 OA
ATOM     24  C   UNL     1      -3.130  10.362  15.380  0.00  0.00    +0.000 C 
ATOM     25  C   UNL     1      -2.159  10.065  16.558  0.00  0.00    +0.000 C 
ATOM     26  N   UNL     1      -2.434  10.902  17.746  0.00  0.00    +0.000 N 
ATOM     27  C   UNL     1      -3.864  10.990  18.090  0.00  0.00    +0.000 C 
ATOM     28  C   UNL     1      -4.583  11.655  16.914  0.00  0.00    +0.000 C 
ATOM     29  N   UNL     1      -4.329  10.966  15.661  0.00  0.00    +0.000 N 
ATOM     30  H   UNL     1      -4.871  11.205  14.843  0.00  0.00    +0.000 HD
ENDBRANCH  17  26
ENDBRANCH   1  21
TORSDOF 2
ENDMDL
