MODEL 1
REMARK VINA RESULT:      -9.5      0.000      0.000
REMARK  Name = 
REMARK  3 active torsions:
REMARK  status: ('A' for Active; 'I' for Inactive)
REMARK    1  A    between atoms: C_1  and  N_2
REMARK    2  A    between atoms: C_4  and  C_5
REMARK    3  A    between atoms: C_11  and  C_12
REMARK                            x       y       z     vdW  Elec       q    Type
REMARK                         _______ _______ _______ _____ _____    ______ ____
ROOT
ATOM      1  C   UNL     1       3.996   2.966  18.069  0.00  0.00    +0.000 C 
ATOM      2  O   UNL     1       3.898   1.762  17.845  0.00  0.00    +0.000 OA
ATOM      3  N   UNL     1       3.300   3.615  19.100  0.00  0.00    +0.000 N 
ATOM      4  C   UNL     1       2.642   2.786  20.105  0.00  0.00    +0.000 C 
ATOM      5  C   UNL     1       1.197   3.227  20.302  0.00  0.00    +0.000 C 
ATOM      6  C   UNL     1       1.121   4.713  20.665  0.00  0.00    +0.000 C 
ATOM      7  C   UNL     1       1.834   5.558  19.601  0.00  0.00    +0.000 C 
ATOM      8  C   UNL     1       3.278   5.072  19.385  0.00  0.00    +0.000 C 
ENDROOT
BRANCH   1  12
ATOM      9  C   UNL     1       5.512   3.903  13.671  0.00  0.00    +0.000 C 
ATOM     10  N   UNL     1       5.651   4.269  15.064  0.00  0.00    +0.000 N 
ATOM     11  N   UNL     1       4.804   3.647  15.926  0.00  0.00    +0.000 NA
ATOM     12  C   UNL     1       4.973   3.769  17.209  0.00  0.00    +0.000 A 
ATOM     13  C   UNL     1       6.006   4.657  17.795  0.00  0.00    +0.000 A 
ATOM     14  C   UNL     1       6.191   4.880  19.167  0.00  0.00    +0.000 A 
ATOM     15  C   UNL     1       7.182   5.768  19.619  0.00  0.00    +0.000 A 
ATOM     16  C   UNL     1       8.005   6.433  18.712  0.00  0.00    +0.000 A 
ATOM     17  C   UNL     1       7.833   6.211  17.349  0.00  0.00    +0.000 A 
ATOM     18  C   UNL     1       6.838   5.329  16.897  0.00  0.00    +0.000 A 
ATOM     19  C   UNL     1       6.684   5.106  15.449  0.00  0.00    +0.000 A 
ATOM     20  O   UNL     1       7.465   5.636  14.660  0.00  0.00    +0.000 OA
ENDBRANCH   1  12
BRANCH   7  21
ATOM     21  C   UNL     1       1.725   7.049  19.875  0.00  0.00    +0.000 A 
ATOM     22  N   UNL     1       1.309   7.614  20.992  0.00  0.00    +0.000 NA
ATOM     23  C   UNL     1       1.062   8.976  20.771  0.00  0.00    +0.000 A 
ATOM     24  C   UNL     1       0.526   9.903  21.695  0.00  0.00    +0.000 A 
ATOM     25  C   UNL     1       0.249  11.219  21.292  0.00  0.00    +0.000 A 
ATOM     26  C   UNL     1       0.513  11.629  19.990  0.00  0.00    +0.000 A 
ATOM     27  C   UNL     1       1.085  10.750  19.072  0.00  0.00    +0.000 A 
ATOM     28  C   UNL     1       1.352   9.429  19.483  0.00  0.00    +0.000 A 
ATOM     29  S   UNL     1       2.026   8.137  18.571  0.00  0.00    +0.000 S 
ENDBRANCH   7  21
TORSDOF 2
ENDMDL
MODEL 2
REMARK VINA RESULT:      -8.5      5.921     10.768
REMARK  Name = 
REMARK  3 active torsions:
REMARK  status: ('A' for Active; 'I' for Inactive)
REMARK    1  A    between atoms: C_1  and  N_2
REMARK    2  A    between atoms: C_4  and  C_5
REMARK    3  A    between atoms: C_11  and  C_12
REMARK                            x       y       z     vdW  Elec       q    Type
REMARK                         _______ _______ _______ _____ _____    ______ ____
ROOT
ATOM      1  C   UNL     1      -0.204  15.824  21.473  0.00  0.00    +0.000 C 
ATOM      2  O   UNL     1      -0.527  16.709  22.263  0.00  0.00    +0.000 OA
ATOM      3  N   UNL     1      -0.764  14.539  21.489  0.00  0.00    +0.000 N 
ATOM      4  C   UNL     1      -1.960  14.326  22.299  0.00  0.00    +0.000 C 
ATOM      5  C   UNL     1      -1.793  13.102  23.190  0.00  0.00    +0.000 C 
ATOM      6  C   UNL     1      -1.452  11.861  22.360  0.00  0.00    +0.000 C 
ATOM      7  C   UNL     1      -0.203  12.118  21.507  0.00  0.00    +0.000 C 
ATOM      8  C   UNL     1      -0.372  13.382  20.646  0.00  0.00    +0.000 C 
ENDROOT
BRANCH   1  12
ATOM      9  C   UNL     1       4.348  15.625  20.146  0.00  0.00    +0.000 C 
ATOM     10  N   UNL     1       3.018  16.012  19.728  0.00  0.00    +0.000 N 
ATOM     11  N   UNL     1       2.015  15.711  20.593  0.00  0.00    +0.000 NA
ATOM     12  C   UNL     1       0.818  16.179  20.393  0.00  0.00    +0.000 A 
ATOM     13  C   UNL     1       0.461  16.959  19.183  0.00  0.00    +0.000 A 
ATOM     14  C   UNL     1      -0.824  17.431  18.882  0.00  0.00    +0.000 A 
ATOM     15  C   UNL     1      -1.065  18.137  17.691  0.00  0.00    +0.000 A 
ATOM     16  C   UNL     1      -0.028  18.389  16.794  0.00  0.00    +0.000 A 
ATOM     17  C   UNL     1       1.252  17.930  17.090  0.00  0.00    +0.000 A 
ATOM     18  C   UNL     1       1.491  17.219  18.277  0.00  0.00    +0.000 A 
ATOM     19  C   UNL     1       2.858  16.753  18.570  0.00  0.00    +0.000 A 
ATOM     20  O   UNL     1       3.781  17.048  17.812  0.00  0.00    +0.000 OA
ENDBRANCH   1  12
BRANCH   7  21
ATOM     21  C   UNL     1       0.224  10.891  20.718  0.00  0.00    +0.000 A 
ATOM     22  N   UNL     1       0.591   9.726  21.214  0.00  0.00    +0.000 NA
ATOM     23  C   UNL     1       1.192   8.952  20.213  0.00  0.00    +0.000 A 
ATOM     24  C   UNL     1       1.792   7.680  20.368  0.00  0.00    +0.000 A 
ATOM     25  C   UNL     1       2.439   7.070  19.282  0.00  0.00    +0.000 A 
ATOM     26  C   UNL     1       2.483   7.699  18.043  0.00  0.00    +0.000 A 
ATOM     27  C   UNL     1       1.860   8.930  17.849  0.00  0.00    +0.000 A 
ATOM     28  C   UNL     1       1.220   9.539  18.947  0.00  0.00    +0.000 A 
ATOM     29  S   UNL     1       0.397  11.047  19.009  0.00  0.00    +0.000 S 
ENDBRANCH   7  21
TORSDOF 2
ENDMDL
MODEL 3
REMARK VINA RESULT:      -8.5      5.591      9.537
REMARK  Name = 
REMARK  3 active torsions:
REMARK  status: ('A' for Active; 'I' for Inactive)
REMARK    1  A    between atoms: C_1  and  N_2
REMARK    2  A    between atoms: C_4  and  C_5
REMARK    3  A    between atoms: C_11  and  C_12
REMARK                            x       y       z     vdW  Elec       q    Type
REMARK                         _______ _______ _______ _____ _____    ______ ____
ROOT
ATOM      1  C   UNL     1      -0.616  12.816  19.251  0.00  0.00    +0.000 C 
ATOM      2  O   UNL     1      -1.811  12.816  18.966  0.00  0.00    +0.000 OA
ATOM      3  N   UNL     1       0.155  13.985  19.329  0.00  0.00    +0.000 N 
ATOM      4  C   UNL     1      -0.547  15.266  19.332  0.00  0.00    +0.000 C 
ATOM      5  C   UNL     1       0.061  16.212  18.304  0.00  0.00    +0.000 C 
ATOM      6  C   UNL     1       1.562  16.396  18.546  0.00  0.00    +0.000 C 
ATOM      7  C   UNL     1       2.271  15.035  18.554  0.00  0.00    +0.000 C 
ATOM      8  C   UNL     1       1.617  14.078  19.567  0.00  0.00    +0.000 C 
ENDROOT
BRANCH   1  12
ATOM      9  C   UNL     1       1.944   9.164  17.630  0.00  0.00    +0.000 C 
ATOM     10  N   UNL     1       1.335   9.740  18.809  0.00  0.00    +0.000 N 
ATOM     11  N   UNL     1       0.759  10.959  18.642  0.00  0.00    +0.000 NA
ATOM     12  C   UNL     1       0.031  11.473  19.588  0.00  0.00    +0.000 A 
ATOM     13  C   UNL     1      -0.122  10.825  20.914  0.00  0.00    +0.000 A 
ATOM     14  C   UNL     1      -0.838  11.363  21.993  0.00  0.00    +0.000 A 
ATOM     15  C   UNL     1      -0.898  10.682  23.221  0.00  0.00    +0.000 A 
ATOM     16  C   UNL     1      -0.255   9.456  23.384  0.00  0.00    +0.000 A 
ATOM     17  C   UNL     1       0.451   8.912  22.315  0.00  0.00    +0.000 A 
ATOM     18  C   UNL     1       0.516   9.596  21.090  0.00  0.00    +0.000 A 
ATOM     19  C   UNL     1       1.263   8.993  19.972  0.00  0.00    +0.000 A 
ATOM     20  O   UNL     1       1.760   7.875  20.100  0.00  0.00    +0.000 OA
ENDBRANCH   1  12
BRANCH   7  21
ATOM     21  C   UNL     1       3.776  15.165  18.717  0.00  0.00    +0.000 A 
ATOM     22  N   UNL     1       4.683  15.031  17.769  0.00  0.00    +0.000 NA
ATOM     23  C   UNL     1       5.957  14.923  18.344  0.00  0.00    +0.000 A 
ATOM     24  C   UNL     1       7.176  14.683  17.668  0.00  0.00    +0.000 A 
ATOM     25  C   UNL     1       8.362  14.505  18.397  0.00  0.00    +0.000 A 
ATOM     26  C   UNL     1       8.355  14.581  19.785  0.00  0.00    +0.000 A 
ATOM     27  C   UNL     1       7.178  14.863  20.475  0.00  0.00    +0.000 A 
ATOM     28  C   UNL     1       5.991  15.031  19.735  0.00  0.00    +0.000 A 
ATOM     29  S   UNL     1       4.404  15.362  20.311  0.00  0.00    +0.000 S 
ENDBRANCH   7  21
TORSDOF 2
ENDMDL
MODEL 4
REMARK VINA RESULT:      -8.4      1.214      2.550
REMARK  Name = 
REMARK  3 active torsions:
REMARK  status: ('A' for Active; 'I' for Inactive)
REMARK    1  A    between atoms: C_1  and  N_2
REMARK    2  A    between atoms: C_4  and  C_5
REMARK    3  A    between atoms: C_11  and  C_12
REMARK                            x       y       z     vdW  Elec       q    Type
REMARK                         _______ _______ _______ _____ _____    ______ ____
ROOT
ATOM      1  C   UNL     1       4.214   3.078  18.257  0.00  0.00    +0.000 C 
ATOM      2  O   UNL     1       4.189   1.930  17.819  0.00  0.00    +0.000 OA
ATOM      3  N   UNL     1       3.331   3.545  19.242  0.00  0.00    +0.000 N 
ATOM      4  C   UNL     1       2.529   2.558  19.961  0.00  0.00    +0.000 C 
ATOM      5  C   UNL     1       1.061   2.965  19.970  0.00  0.00    +0.000 C 
ATOM      6  C   UNL     1       0.883   4.367  20.558  0.00  0.00    +0.000 C 
ATOM      7  C   UNL     1       1.748   5.379  19.796  0.00  0.00    +0.000 C 
ATOM      8  C   UNL     1       3.220   4.931  19.760  0.00  0.00    +0.000 C 
ENDROOT
BRANCH   1  12
ATOM      9  C   UNL     1       7.560   6.249  19.384  0.00  0.00    +0.000 C 
ATOM     10  N   UNL     1       6.974   5.496  18.296  0.00  0.00    +0.000 N 
ATOM     11  N   UNL     1       6.015   4.600  18.647  0.00  0.00    +0.000 NA
ATOM     12  C   UNL     1       5.304   4.012  17.731  0.00  0.00    +0.000 A 
ATOM     13  C   UNL     1       5.563   4.199  16.282  0.00  0.00    +0.000 A 
ATOM     14  C   UNL     1       4.875   3.542  15.252  0.00  0.00    +0.000 A 
ATOM     15  C   UNL     1       5.218   3.766  13.907  0.00  0.00    +0.000 A 
ATOM     16  C   UNL     1       6.240   4.653  13.575  0.00  0.00    +0.000 A 
ATOM     17  C   UNL     1       6.923   5.314  14.592  0.00  0.00    +0.000 A 
ATOM     18  C   UNL     1       6.584   5.085  15.935  0.00  0.00    +0.000 A 
ATOM     19  C   UNL     1       7.317   5.805  16.992  0.00  0.00    +0.000 A 
ATOM     20  O   UNL     1       8.164   6.644  16.687  0.00  0.00    +0.000 OA
ENDBRANCH   1  12
BRANCH   7  21
ATOM     21  C   UNL     1       1.552   6.802  20.293  0.00  0.00    +0.000 A 
ATOM     22  N   UNL     1       1.026   7.166  21.446  0.00  0.00    +0.000 NA
ATOM     23  C   UNL     1       0.738   8.537  21.424  0.00  0.00    +0.000 A 
ATOM     24  C   UNL     1       0.091   9.285  22.435  0.00  0.00    +0.000 A 
ATOM     25  C   UNL     1      -0.211  10.640  22.224  0.00  0.00    +0.000 A 
ATOM     26  C   UNL     1       0.137  11.263  21.031  0.00  0.00    +0.000 A 
ATOM     27  C   UNL     1       0.817  10.563  20.037  0.00  0.00    +0.000 A 
ATOM     28  C   UNL     1       1.108   9.202  20.254  0.00  0.00    +0.000 A 
ATOM     29  S   UNL     1       1.908   8.095  19.208  0.00  0.00    +0.000 S 
ENDBRANCH   7  21
TORSDOF 2
ENDMDL
MODEL 5
REMARK VINA RESULT:      -8.3      5.973     11.220
REMARK  Name = 
REMARK  3 active torsions:
REMARK  status: ('A' for Active; 'I' for Inactive)
REMARK    1  A    between atoms: C_1  and  N_2
REMARK    2  A    between atoms: C_4  and  C_5
REMARK    3  A    between atoms: C_11  and  C_12
REMARK                            x       y       z     vdW  Elec       q    Type
REMARK                         _______ _______ _______ _____ _____    ______ ____
ROOT
ATOM      1  C   UNL     1      -2.981  13.628  20.905  0.00  0.00    +0.000 C 
ATOM      2  O   UNL     1      -3.235  14.803  21.163  0.00  0.00    +0.000 OA
ATOM      3  N   UNL     1      -1.742  13.032  21.182  0.00  0.00    +0.000 N 
ATOM      4  C   UNL     1      -0.814  13.757  22.046  0.00  0.00    +0.000 C 
ATOM      5  C   UNL     1       0.568  13.826  21.409  0.00  0.00    +0.000 C 
ATOM      6  C   UNL     1       1.091  12.426  21.077  0.00  0.00    +0.000 C 
ATOM      7  C   UNL     1       0.090  11.682  20.183  0.00  0.00    +0.000 C 
ATOM      8  C   UNL     1      -1.310  11.659  20.822  0.00  0.00    +0.000 C 
ENDROOT
BRANCH   1  12
ATOM      9  C   UNL     1      -4.487  11.215  17.107  0.00  0.00    +0.000 C 
ATOM     10  N   UNL     1      -4.789  11.549  18.482  0.00  0.00    +0.000 N 
ATOM     11  N   UNL     1      -3.844  12.274  19.136  0.00  0.00    +0.000 NA
ATOM     12  C   UNL     1      -4.101  12.777  20.306  0.00  0.00    +0.000 A 
ATOM     13  C   UNL     1      -5.368  12.505  21.028  0.00  0.00    +0.000 A 
ATOM     14  C   UNL     1      -5.673  12.964  22.317  0.00  0.00    +0.000 A 
ATOM     15  C   UNL     1      -6.893  12.625  22.926  0.00  0.00    +0.000 A 
ATOM     16  C   UNL     1      -7.825  11.836  22.255  0.00  0.00    +0.000 A 
ATOM     17  C   UNL     1      -7.533  11.384  20.971  0.00  0.00    +0.000 A 
ATOM     18  C   UNL     1      -6.311  11.717  20.366  0.00  0.00    +0.000 A 
ATOM     19  C   UNL     1      -6.031  11.232  19.003  0.00  0.00    +0.000 A 
ATOM     20  O   UNL     1      -6.892  10.603  18.388  0.00  0.00    +0.000 OA
ENDBRANCH   1  12
BRANCH   7  21
ATOM     21  C   UNL     1       0.595  10.311  19.763  0.00  0.00    +0.000 A 
ATOM     22  N   UNL     1       0.706   9.245  20.531  0.00  0.00    +0.000 NA
ATOM     23  C   UNL     1       1.477   8.271  19.882  0.00  0.00    +0.000 A 
ATOM     24  C   UNL     1       1.893   7.026  20.410  0.00  0.00    +0.000 A 
ATOM     25  C   UNL     1       2.745   6.196  19.666  0.00  0.00    +0.000 A 
ATOM     26  C   UNL     1       3.175   6.578  18.400  0.00  0.00    +0.000 A 
ATOM     27  C   UNL     1       2.743   7.777  17.836  0.00  0.00    +0.000 A 
ATOM     28  C   UNL     1       1.895   8.608  18.594  0.00  0.00    +0.000 A 
ATOM     29  S   UNL     1       1.229  10.136  18.169  0.00  0.00    +0.000 S 
ENDBRANCH   7  21
TORSDOF 2
ENDMDL
MODEL 6
REMARK VINA RESULT:      -8.2      5.223      9.606
REMARK  Name = 
REMARK  3 active torsions:
REMARK  status: ('A' for Active; 'I' for Inactive)
REMARK    1  A    between atoms: C_1  and  N_2
REMARK    2  A    between atoms: C_4  and  C_5
REMARK    3  A    between atoms: C_11  and  C_12
REMARK                            x       y       z     vdW  Elec       q    Type
REMARK                         _______ _______ _______ _____ _____    ______ ____
ROOT
ATOM      1  C   UNL     1       1.070  14.611  22.049  0.00  0.00    +0.000 C 
ATOM      2  O   UNL     1       0.699  15.461  22.855  0.00  0.00    +0.000 OA
ATOM      3  N   UNL     1       0.311  13.477  21.724  0.00  0.00    +0.000 N 
ATOM      4  C   UNL     1      -1.082  13.441  22.161  0.00  0.00    +0.000 C 
ATOM      5  C   UNL     1      -1.389  12.127  22.867  0.00  0.00    +0.000 C 
ATOM      6  C   UNL     1      -1.052  10.931  21.972  0.00  0.00    +0.000 C 
ATOM      7  C   UNL     1       0.411  11.002  21.515  0.00  0.00    +0.000 C 
ATOM      8  C   UNL     1       0.714  12.353  20.843  0.00  0.00    +0.000 C 
ENDROOT
BRANCH   1  12
ATOM      9  C   UNL     1       5.786  14.118  22.241  0.00  0.00    +0.000 C 
ATOM     10  N   UNL     1       4.682  14.538  21.406  0.00  0.00    +0.000 N 
ATOM     11  N   UNL     1       3.441  14.340  21.922  0.00  0.00    +0.000 NA
ATOM     12  C   UNL     1       2.400  14.848  21.332  0.00  0.00    +0.000 A 
ATOM     13  C   UNL     1       2.490  15.564  20.036  0.00  0.00    +0.000 A 
ATOM     14  C   UNL     1       1.396  16.074  19.322  0.00  0.00    +0.000 A 
ATOM     15  C   UNL     1       1.586  16.711  18.084  0.00  0.00    +0.000 A 
ATOM     16  C   UNL     1       2.866  16.857  17.551  0.00  0.00    +0.000 A 
ATOM     17  C   UNL     1       3.957  16.361  18.258  0.00  0.00    +0.000 A 
ATOM     18  C   UNL     1       3.766  15.718  19.491  0.00  0.00    +0.000 A 
ATOM     19  C   UNL     1       4.940  15.209  20.224  0.00  0.00    +0.000 A 
ATOM     20  O   UNL     1       6.071  15.412  19.784  0.00  0.00    +0.000 OA
ENDBRANCH   1  12
BRANCH   7  21
ATOM     21  C   UNL     1       0.819   9.798  20.683  0.00  0.00    +0.000 A 
ATOM     22  N   UNL     1       1.079   8.585  21.131  0.00  0.00    +0.000 NA
ATOM     23  C   UNL     1       1.704   7.833  20.128  0.00  0.00    +0.000 A 
ATOM     24  C   UNL     1       2.214   6.518  20.245  0.00  0.00    +0.000 A 
ATOM     25  C   UNL     1       2.900   5.932  19.170  0.00  0.00    +0.000 A 
ATOM     26  C   UNL     1       3.070   6.626  17.977  0.00  0.00    +0.000 A 
ATOM     27  C   UNL     1       2.537   7.903  17.818  0.00  0.00    +0.000 A 
ATOM     28  C   UNL     1       1.858   8.488  18.905  0.00  0.00    +0.000 A 
ATOM     29  S   UNL     1       1.124  10.040  19.003  0.00  0.00    +0.000 S 
ENDBRANCH   7  21
TORSDOF 2
ENDMDL
MODEL 7
REMARK VINA RESULT:      -8.2      5.542      9.549
REMARK  Name = 
REMARK  3 active torsions:
REMARK  status: ('A' for Active; 'I' for Inactive)
REMARK    1  A    between atoms: C_1  and  N_2
REMARK    2  A    between atoms: C_4  and  C_5
REMARK    3  A    between atoms: C_11  and  C_12
REMARK                            x       y       z     vdW  Elec       q    Type
REMARK                         _______ _______ _______ _____ _____    ______ ____
ROOT
ATOM      1  C   UNL     1       0.240  12.990  18.900  0.00  0.00    +0.000 C 
ATOM      2  O   UNL     1      -0.716  13.113  18.138  0.00  0.00    +0.000 OA
ATOM      3  N   UNL     1       1.002  14.074  19.360  0.00  0.00    +0.000 N 
ATOM      4  C   UNL     1       0.477  15.419  19.135  0.00  0.00    +0.000 C 
ATOM      5  C   UNL     1       1.542  16.313  18.513  0.00  0.00    +0.000 C 
ATOM      6  C   UNL     1       2.807  16.343  19.375  0.00  0.00    +0.000 C 
ATOM      7  C   UNL     1       3.326  14.917  19.609  0.00  0.00    +0.000 C 
ATOM      8  C   UNL     1       2.225  14.018  20.197  0.00  0.00    +0.000 C 
ENDROOT
BRANCH   1  12
ATOM      9  C   UNL     1       2.260   8.815  17.894  0.00  0.00    +0.000 C 
ATOM     10  N   UNL     1       1.612   9.586  18.932  0.00  0.00    +0.000 N 
ATOM     11  N   UNL     1       1.308  10.872  18.612  0.00  0.00    +0.000 NA
ATOM     12  C   UNL     1       0.565  11.584  19.406  0.00  0.00    +0.000 A 
ATOM     13  C   UNL     1       0.106  11.086  20.726  0.00  0.00    +0.000 A 
ATOM     14  C   UNL     1      -0.638  11.831  21.651  0.00  0.00    +0.000 A 
ATOM     15  C   UNL     1      -0.999  11.275  22.891  0.00  0.00    +0.000 A 
ATOM     16  C   UNL     1      -0.631   9.971  23.216  0.00  0.00    +0.000 A 
ATOM     17  C   UNL     1       0.102   9.223  22.300  0.00  0.00    +0.000 A 
ATOM     18  C   UNL     1       0.467   9.781  21.065  0.00  0.00    +0.000 A 
ATOM     19  C   UNL     1       1.235   8.963  20.109  0.00  0.00    +0.000 A 
ATOM     20  O   UNL     1       1.488   7.788  20.372  0.00  0.00    +0.000 OA
ENDBRANCH   1  12
BRANCH   7  21
ATOM     21  C   UNL     1       4.624  14.894  20.399  0.00  0.00    +0.000 A 
ATOM     22  N   UNL     1       5.832  15.142  19.932  0.00  0.00    +0.000 NA
ATOM     23  C   UNL     1       6.794  14.737  20.866  0.00  0.00    +0.000 A 
ATOM     24  C   UNL     1       8.200  14.756  20.702  0.00  0.00    +0.000 A 
ATOM     25  C   UNL     1       9.032  14.226  21.701  0.00  0.00    +0.000 A 
ATOM     26  C   UNL     1       8.488  13.694  22.864  0.00  0.00    +0.000 A 
ATOM     27  C   UNL     1       7.110  13.705  23.073  0.00  0.00    +0.000 A 
ATOM     28  C   UNL     1       6.282  14.230  22.062  0.00  0.00    +0.000 A 
ATOM     29  S   UNL     1       4.567  14.353  22.035  0.00  0.00    +0.000 S 
ENDBRANCH   7  21
TORSDOF 2
ENDMDL
MODEL 8
REMARK VINA RESULT:      -8.1      6.713     10.404
REMARK  Name = 
REMARK  3 active torsions:
REMARK  status: ('A' for Active; 'I' for Inactive)
REMARK    1  A    between atoms: C_1  and  N_2
REMARK    2  A    between atoms: C_4  and  C_5
REMARK    3  A    between atoms: C_11  and  C_12
REMARK                            x       y       z     vdW  Elec       q    Type
REMARK                         _______ _______ _______ _____ _____    ______ ____
ROOT
ATOM      1  C   UNL     1      -1.871  12.314  22.766  0.00  0.00    +0.000 C 
ATOM      2  O   UNL     1      -2.646  11.786  23.560  0.00  0.00    +0.000 OA
ATOM      3  N   UNL     1      -1.637  13.696  22.723  0.00  0.00    +0.000 N 
ATOM      4  C   UNL     1      -2.131  14.506  23.834  0.00  0.00    +0.000 C 
ATOM      5  C   UNL     1      -2.917  15.703  23.316  0.00  0.00    +0.000 C 
ATOM      6  C   UNL     1      -2.074  16.537  22.348  0.00  0.00    +0.000 C 
ATOM      7  C   UNL     1      -1.555  15.659  21.201  0.00  0.00    +0.000 C 
ATOM      8  C   UNL     1      -0.801  14.432  21.743  0.00  0.00    +0.000 C 
ENDROOT
BRANCH   1  12
ATOM      9  C   UNL     1       1.744   9.268  22.343  0.00  0.00    +0.000 C 
ATOM     10  N   UNL     1       0.623   9.865  21.649  0.00  0.00    +0.000 N 
ATOM     11  N   UNL     1      -0.172  10.674  22.396  0.00  0.00    +0.000 NA
ATOM     12  C   UNL     1      -1.089  11.397  21.825  0.00  0.00    +0.000 A 
ATOM     13  C   UNL     1      -1.386  11.304  20.374  0.00  0.00    +0.000 A 
ATOM     14  C   UNL     1      -2.405  12.007  19.716  0.00  0.00    +0.000 A 
ATOM     15  C   UNL     1      -2.625  11.824  18.340  0.00  0.00    +0.000 A 
ATOM     16  C   UNL     1      -1.827  10.950  17.605  0.00  0.00    +0.000 A 
ATOM     17  C   UNL     1      -0.808  10.254  18.250  0.00  0.00    +0.000 A 
ATOM     18  C   UNL     1      -0.594  10.431  19.626  0.00  0.00    +0.000 A 
ATOM     19  C   UNL     1       0.497   9.689  20.282  0.00  0.00    +0.000 A 
ATOM     20  O   UNL     1       1.245   8.979  19.611  0.00  0.00    +0.000 OA
ENDBRANCH   1  12
BRANCH   7  21
ATOM     21  C   UNL     1      -0.772  16.454  20.170  0.00  0.00    +0.000 A 
ATOM     22  N   UNL     1      -1.274  17.222  19.222  0.00  0.00    +0.000 NA
ATOM     23  C   UNL     1      -0.276  17.545  18.294  0.00  0.00    +0.000 A 
ATOM     24  C   UNL     1      -0.436  18.275  17.093  0.00  0.00    +0.000 A 
ATOM     25  C   UNL     1       0.649  18.436  16.217  0.00  0.00    +0.000 A 
ATOM     26  C   UNL     1       1.892  17.896  16.526  0.00  0.00    +0.000 A 
ATOM     27  C   UNL     1       2.091  17.212  17.724  0.00  0.00    +0.000 A 
ATOM     28  C   UNL     1       0.994  17.048  18.593  0.00  0.00    +0.000 A 
ATOM     29  S   UNL     1       0.938  16.241  20.110  0.00  0.00    +0.000 S 
ENDBRANCH   7  21
TORSDOF 2
ENDMDL
MODEL 9
REMARK VINA RESULT:      -8.1      5.005      9.638
REMARK  Name = 
REMARK  3 active torsions:
REMARK  status: ('A' for Active; 'I' for Inactive)
REMARK    1  A    between atoms: C_1  and  N_2
REMARK    2  A    between atoms: C_4  and  C_5
REMARK    3  A    between atoms: C_11  and  C_12
REMARK                            x       y       z     vdW  Elec       q    Type
REMARK                         _______ _______ _______ _____ _____    ______ ____
ROOT
ATOM      1  C   UNL     1       0.333  13.906  22.079  0.00  0.00    +0.000 C 
ATOM      2  O   UNL     1      -0.106  14.613  22.983  0.00  0.00    +0.000 OA
ATOM      3  N   UNL     1      -0.161  12.624  21.796  0.00  0.00    +0.000 N 
ATOM      4  C   UNL     1      -1.415  12.223  22.427  0.00  0.00    +0.000 C 
ATOM      5  C   UNL     1      -1.271  10.856  23.085  0.00  0.00    +0.000 C 
ATOM      6  C   UNL     1      -0.791   9.809  22.076  0.00  0.00    +0.000 C 
ATOM      7  C   UNL     1       0.518  10.264  21.417  0.00  0.00    +0.000 C 
ATOM      8  C   UNL     1       0.366  11.663  20.796  0.00  0.00    +0.000 C 
ENDROOT
BRANCH   1  12
ATOM      9  C   UNL     1       5.005  14.285  21.336  0.00  0.00    +0.000 C 
ATOM     10  N   UNL     1       3.700  14.610  20.802  0.00  0.00    +0.000 N 
ATOM     11  N   UNL     1       2.639  14.107  21.485  0.00  0.00    +0.000 NA
ATOM     12  C   UNL     1       1.432  14.493  21.193  0.00  0.00    +0.000 A 
ATOM     13  C   UNL     1       1.141  15.400  20.056  0.00  0.00    +0.000 A 
ATOM     14  C   UNL     1      -0.142  15.796  19.653  0.00  0.00    +0.000 A 
ATOM     15  C   UNL     1      -0.314  16.636  18.539  0.00  0.00    +0.000 A 
ATOM     16  C   UNL     1       0.789  17.098  17.824  0.00  0.00    +0.000 A 
ATOM     17  C   UNL     1       2.067  16.715  18.222  0.00  0.00    +0.000 A 
ATOM     18  C   UNL     1       2.237  15.870  19.330  0.00  0.00    +0.000 A 
ATOM     19  C   UNL     1       3.601  15.487  19.736  0.00  0.00    +0.000 A 
ATOM     20  O   UNL     1       4.571  15.962  19.147  0.00  0.00    +0.000 OA
ENDBRANCH   1  12
BRANCH   7  21
ATOM     21  C   UNL     1       1.077   9.225  20.459  0.00  0.00    +0.000 A 
ATOM     22  N   UNL     1       1.459   8.000  20.764  0.00  0.00    +0.000 NA
ATOM     23  C   UNL     1       2.187   7.452  19.700  0.00  0.00    +0.000 A 
ATOM     24  C   UNL     1       2.837   6.195  19.673  0.00  0.00    +0.000 A 
ATOM     25  C   UNL     1       3.609   5.826  18.561  0.00  0.00    +0.000 A 
ATOM     26  C   UNL     1       3.731   6.680  17.471  0.00  0.00    +0.000 A 
ATOM     27  C   UNL     1       3.064   7.903  17.450  0.00  0.00    +0.000 A 
ATOM     28  C   UNL     1       2.298   8.269  18.574  0.00  0.00    +0.000 A 
ATOM     29  S   UNL     1       1.395   9.709  18.834  0.00  0.00    +0.000 S 
ENDBRANCH   7  21
TORSDOF 2
ENDMDL
