MODEL 1
REMARK VINA RESULT:      -8.6      0.000      0.000
REMARK  Name = 
REMARK  2 active torsions:
REMARK  status: ('A' for Active; 'I' for Inactive)
REMARK    1  A    between atoms: C_8  and  C_9
REMARK    2  A    between atoms: C_13  and  C_14
REMARK                            x       y       z     vdW  Elec       q    Type
REMARK                         _______ _______ _______ _____ _____    ______ ____
ROOT
ATOM      1  C   UNL     1       1.692  10.091  18.322  0.00  0.00    +0.000 C 
ATOM      2  O   UNL     1       2.473  10.410  17.428  0.00  0.00    +0.000 OA
ATOM      3  N   UNL     1       0.676  10.934  18.765  0.00  0.00    +0.000 N 
ATOM      4  C   UNL     1      -0.326  10.633  19.756  0.00  0.00    +0.000 C 
ATOM      5  C   UNL     1      -1.429  11.672  19.604  0.00  0.00    +0.000 C 
ATOM      6  C   UNL     1      -0.816  12.800  18.736  0.00  0.00    +0.000 C 
ATOM      7  C   UNL     1      -0.650  14.187  19.340  0.00  0.00    +0.000 C 
ATOM      8  C   UNL     1       0.695  14.161  20.040  0.00  0.00    +0.000 C 
ATOM      9  C   UNL     1       1.564  13.215  19.215  0.00  0.00    +0.000 C 
ATOM     10  C   UNL     1       0.611  12.335  18.386  0.00  0.00    +0.000 C 
ENDROOT
BRANCH   1  18
ATOM     11  O   UNL     1       0.672   3.029  20.823  0.00  0.00    +0.000 OA
ATOM     12  C   UNL     1       1.351   3.765  20.096  0.00  0.00    +0.000 C 
ATOM     13  C   UNL     1       1.689   3.293  18.695  0.00  0.00    +0.000 C 
ATOM     14  C   UNL     1       1.854   4.297  17.575  0.00  0.00    +0.000 C 
ATOM     15  C   UNL     1       2.960   5.272  17.899  0.00  0.00    +0.000 C 
ATOM     16  C   UNL     1       2.401   6.359  18.763  0.00  0.00    +0.000 A 
ATOM     17  C   UNL     1       2.227   7.627  18.194  0.00  0.00    +0.000 A 
ATOM     18  C   UNL     1       1.852   8.741  18.947  0.00  0.00    +0.000 A 
ATOM     19  C   UNL     1       1.559   8.556  20.298  0.00  0.00    +0.000 A 
ATOM     20  C   UNL     1       1.638   7.273  20.859  0.00  0.00    +0.000 A 
ATOM     21  C   UNL     1       2.011   6.162  20.081  0.00  0.00    +0.000 A 
ATOM     22  N   UNL     1       1.840   4.900  20.672  0.00  0.00    +0.000 N 
ATOM     23  H   UNL     1       1.549   4.922  21.645  0.00  0.00    +0.000 HD
ENDBRANCH   1  18
BRANCH   5  24
ATOM     24  C   UNL     1      -2.108  12.028  20.913  0.00  0.00    +0.000 A 
ATOM     25  C   UNL     1      -3.375  12.642  20.991  0.00  0.00    +0.000 A 
ATOM     26  C   UNL     1      -3.936  12.998  22.216  0.00  0.00    +0.000 A 
ATOM     27  C   UNL     1      -3.256  12.728  23.394  0.00  0.00    +0.000 A 
ATOM     28  C   UNL     1      -2.011  12.101  23.340  0.00  0.00    +0.000 A 
ATOM     29  C   UNL     1      -1.436  11.763  22.114  0.00  0.00    +0.000 A 
ENDBRANCH   5  24
TORSDOF 2
ENDMDL
MODEL 2
REMARK VINA RESULT:      -8.0      2.094      3.399
REMARK  Name = 
REMARK  2 active torsions:
REMARK  status: ('A' for Active; 'I' for Inactive)
REMARK    1  A    between atoms: C_8  and  C_9
REMARK    2  A    between atoms: C_13  and  C_14
REMARK                            x       y       z     vdW  Elec       q    Type
REMARK                         _______ _______ _______ _____ _____    ______ ____
ROOT
ATOM      1  C   UNL     1       1.485   9.121  21.373  0.00  0.00    +0.000 C 
ATOM      2  O   UNL     1       2.198   9.236  22.368  0.00  0.00    +0.000 OA
ATOM      3  N   UNL     1       0.517  10.062  21.032  0.00  0.00    +0.000 N 
ATOM      4  C   UNL     1      -0.322  10.053  19.860  0.00  0.00    +0.000 C 
ATOM      5  C   UNL     1      -0.903  11.454  19.719  0.00  0.00    +0.000 C 
ATOM      6  C   UNL     1      -0.656  12.143  21.085  0.00  0.00    +0.000 C 
ATOM      7  C   UNL     1      -1.853  12.563  21.925  0.00  0.00    +0.000 C 
ATOM      8  C   UNL     1      -2.216  11.340  22.745  0.00  0.00    +0.000 C 
ATOM      9  C   UNL     1      -0.896  10.618  23.004  0.00  0.00    +0.000 C 
ATOM     10  C   UNL     1       0.105  11.114  21.945  0.00  0.00    +0.000 C 
ENDROOT
BRANCH   1  18
ATOM     11  O   UNL     1       4.220   3.007  17.863  0.00  0.00    +0.000 OA
ATOM     12  C   UNL     1       3.323   3.448  18.593  0.00  0.00    +0.000 C 
ATOM     13  C   UNL     1       2.924   2.650  19.820  0.00  0.00    +0.000 C 
ATOM     14  C   UNL     1       2.426   3.361  21.059  0.00  0.00    +0.000 C 
ATOM     15  C   UNL     1       1.190   4.169  20.743  0.00  0.00    +0.000 C 
ATOM     16  C   UNL     1       1.613   5.489  20.180  0.00  0.00    +0.000 A 
ATOM     17  C   UNL     1       1.455   6.626  20.982  0.00  0.00    +0.000 A 
ATOM     18  C   UNL     1       1.680   7.918  20.505  0.00  0.00    +0.000 A 
ATOM     19  C   UNL     1       2.164   8.066  19.204  0.00  0.00    +0.000 A 
ATOM     20  C   UNL     1       2.416   6.929  18.422  0.00  0.00    +0.000 A 
ATOM     21  C   UNL     1       2.189   5.636  18.925  0.00  0.00    +0.000 A 
ATOM     22  N   UNL     1       2.684   4.570  18.156  0.00  0.00    +0.000 N 
ATOM     23  H   UNL     1       3.077   4.840  17.259  0.00  0.00    +0.000 HD
ENDBRANCH   1  18
BRANCH   5  24
ATOM     24  C   UNL     1      -2.297  11.471  19.120  0.00  0.00    +0.000 A 
ATOM     25  C   UNL     1      -3.312  12.357  19.535  0.00  0.00    +0.000 A 
ATOM     26  C   UNL     1      -4.594  12.300  18.991  0.00  0.00    +0.000 A 
ATOM     27  C   UNL     1      -4.886  11.374  18.002  0.00  0.00    +0.000 A 
ATOM     28  C   UNL     1      -3.889  10.502  17.560  0.00  0.00    +0.000 A 
ATOM     29  C   UNL     1      -2.611  10.542  18.118  0.00  0.00    +0.000 A 
ENDBRANCH   5  24
TORSDOF 2
ENDMDL
MODEL 3
REMARK VINA RESULT:      -8.0      2.497      9.266
REMARK  Name = 
REMARK  2 active torsions:
REMARK  status: ('A' for Active; 'I' for Inactive)
REMARK    1  A    between atoms: C_8  and  C_9
REMARK    2  A    between atoms: C_13  and  C_14
REMARK                            x       y       z     vdW  Elec       q    Type
REMARK                         _______ _______ _______ _____ _____    ______ ____
ROOT
ATOM      1  C   UNL     1       1.338   5.292  20.104  0.00  0.00    +0.000 C 
ATOM      2  O   UNL     1       0.583   4.654  20.835  0.00  0.00    +0.000 OA
ATOM      3  N   UNL     1       2.161   4.682  19.162  0.00  0.00    +0.000 N 
ATOM      4  C   UNL     1       3.030   5.339  18.219  0.00  0.00    +0.000 C 
ATOM      5  C   UNL     1       3.395   4.309  17.157  0.00  0.00    +0.000 C 
ATOM      6  C   UNL     1       2.999   2.937  17.760  0.00  0.00    +0.000 C 
ATOM      7  C   UNL     1       4.089   1.911  18.033  0.00  0.00    +0.000 C 
ATOM      8  C   UNL     1       4.607   2.234  19.420  0.00  0.00    +0.000 C 
ATOM      9  C   UNL     1       3.405   2.784  20.185  0.00  0.00    +0.000 C 
ATOM     10  C   UNL     1       2.377   3.245  19.137  0.00  0.00    +0.000 C 
ENDROOT
BRANCH   1  18
ATOM     11  O   UNL     1      -0.441  12.639  20.311  0.00  0.00    +0.000 OA
ATOM     12  C   UNL     1      -0.020  11.672  20.960  0.00  0.00    +0.000 C 
ATOM     13  C   UNL     1      -0.584  11.427  22.347  0.00  0.00    +0.000 C 
ATOM     14  C   UNL     1      -0.692  10.017  22.883  0.00  0.00    +0.000 C 
ATOM     15  C   UNL     1       0.668   9.363  22.931  0.00  0.00    +0.000 C 
ATOM     16  C   UNL     1       0.977   8.804  21.578  0.00  0.00    +0.000 A 
ATOM     17  C   UNL     1       0.947   7.412  21.420  0.00  0.00    +0.000 A 
ATOM     18  C   UNL     1       1.359   6.782  20.244  0.00  0.00    +0.000 A 
ATOM     19  C   UNL     1       1.730   7.581  19.163  0.00  0.00    +0.000 A 
ATOM     20  C   UNL     1       1.675   8.978  19.277  0.00  0.00    +0.000 A 
ATOM     21  C   UNL     1       1.250   9.593  20.468  0.00  0.00    +0.000 A 
ATOM     22  N   UNL     1       1.013  10.976  20.407  0.00  0.00    +0.000 N 
ATOM     23  H   UNL     1       1.264  11.412  19.525  0.00  0.00    +0.000 HD
ENDBRANCH   1  18
BRANCH   5  24
ATOM     24  C   UNL     1       4.789   4.496  16.588  0.00  0.00    +0.000 A 
ATOM     25  C   UNL     1       5.156   4.105  15.285  0.00  0.00    +0.000 A 
ATOM     26  C   UNL     1       6.464   4.249  14.824  0.00  0.00    +0.000 A 
ATOM     27  C   UNL     1       7.430   4.810  15.646  0.00  0.00    +0.000 A 
ATOM     28  C   UNL     1       7.082   5.224  16.932  0.00  0.00    +0.000 A 
ATOM     29  C   UNL     1       5.779   5.061  17.404  0.00  0.00    +0.000 A 
ENDBRANCH   5  24
TORSDOF 2
ENDMDL
MODEL 4
REMARK VINA RESULT:      -7.8      2.964      7.799
REMARK  Name = 
REMARK  2 active torsions:
REMARK  status: ('A' for Active; 'I' for Inactive)
REMARK    1  A    between atoms: C_8  and  C_9
REMARK    2  A    between atoms: C_13  and  C_14
REMARK                            x       y       z     vdW  Elec       q    Type
REMARK                         _______ _______ _______ _____ _____    ______ ____
ROOT
ATOM      1  C   UNL     1       1.874   9.382  18.073  0.00  0.00    +0.000 C 
ATOM      2  O   UNL     1       2.599  10.218  17.539  0.00  0.00    +0.000 OA
ATOM      3  N   UNL     1       2.357   8.163  18.542  0.00  0.00    +0.000 N 
ATOM      4  C   UNL     1       1.608   7.146  19.236  0.00  0.00    +0.000 C 
ATOM      5  C   UNL     1       2.621   6.217  19.893  0.00  0.00    +0.000 C 
ATOM      6  C   UNL     1       3.977   6.540  19.215  0.00  0.00    +0.000 C 
ATOM      7  C   UNL     1       4.667   5.459  18.397  0.00  0.00    +0.000 C 
ATOM      8  C   UNL     1       4.081   5.575  17.003  0.00  0.00    +0.000 C 
ATOM      9  C   UNL     1       3.769   7.057  16.816  0.00  0.00    +0.000 C 
ATOM     10  C   UNL     1       3.690   7.682  18.220  0.00  0.00    +0.000 C 
ENDROOT
BRANCH   1  18
ATOM     11  O   UNL     1      -4.925  12.690  17.992  0.00  0.00    +0.000 OA
ATOM     12  C   UNL     1      -4.255  11.727  17.599  0.00  0.00    +0.000 C 
ATOM     13  C   UNL     1      -4.366  11.308  16.145  0.00  0.00    +0.000 C 
ATOM     14  C   UNL     1      -3.177  10.694  15.440  0.00  0.00    +0.000 C 
ATOM     15  C   UNL     1      -2.739   9.431  16.142  0.00  0.00    +0.000 C 
ATOM     16  C   UNL     1      -1.845   9.804  17.282  0.00  0.00    +0.000 A 
ATOM     17  C   UNL     1      -0.476   9.529  17.161  0.00  0.00    +0.000 A 
ATOM     18  C   UNL     1       0.419   9.701  18.218  0.00  0.00    +0.000 A 
ATOM     19  C   UNL     1      -0.061  10.250  19.407  0.00  0.00    +0.000 A 
ATOM     20  C   UNL     1      -1.411  10.617  19.509  0.00  0.00    +0.000 A 
ATOM     21  C   UNL     1      -2.295  10.442  18.431  0.00  0.00    +0.000 A 
ATOM     22  N   UNL     1      -3.557  11.046  18.552  0.00  0.00    +0.000 N 
ATOM     23  H   UNL     1      -3.739  11.473  19.456  0.00  0.00    +0.000 HD
ENDBRANCH   1  18
BRANCH   5  24
ATOM     24  C   UNL     1       2.155   4.775  19.973  0.00  0.00    +0.000 A 
ATOM     25  C   UNL     1       1.494   4.111  18.920  0.00  0.00    +0.000 A 
ATOM     26  C   UNL     1       1.038   2.802  19.059  0.00  0.00    +0.000 A 
ATOM     27  C   UNL     1       1.253   2.116  20.245  0.00  0.00    +0.000 A 
ATOM     28  C   UNL     1       1.925   2.747  21.293  0.00  0.00    +0.000 A 
ATOM     29  C   UNL     1       2.364   4.066  21.164  0.00  0.00    +0.000 A 
ENDBRANCH   5  24
TORSDOF 2
ENDMDL
MODEL 5
REMARK VINA RESULT:      -7.6      1.070      1.299
REMARK  Name = 
REMARK  2 active torsions:
REMARK  status: ('A' for Active; 'I' for Inactive)
REMARK    1  A    between atoms: C_8  and  C_9
REMARK    2  A    between atoms: C_13  and  C_14
REMARK                            x       y       z     vdW  Elec       q    Type
REMARK                         _______ _______ _______ _____ _____    ______ ____
ROOT
ATOM      1  C   UNL     1       1.197  11.219  19.076  0.00  0.00    +0.000 C 
ATOM      2  O   UNL     1       2.009  11.717  18.300  0.00  0.00    +0.000 OA
ATOM      3  N   UNL     1       0.058  11.896  19.505  0.00  0.00    +0.000 N 
ATOM      4  C   UNL     1      -0.983  11.382  20.359  0.00  0.00    +0.000 C 
ATOM      5  C   UNL     1      -2.180  12.313  20.211  0.00  0.00    +0.000 C 
ATOM      6  C   UNL     1      -1.627  13.590  19.529  0.00  0.00    +0.000 C 
ATOM      7  C   UNL     1      -1.670  14.907  20.289  0.00  0.00    +0.000 C 
ATOM      8  C   UNL     1      -0.395  14.940  21.108  0.00  0.00    +0.000 C 
ATOM      9  C   UNL     1       0.642  14.190  20.276  0.00  0.00    +0.000 C 
ATOM     10  C   UNL     1      -0.132  13.317  19.271  0.00  0.00    +0.000 C 
ENDROOT
BRANCH   1  18
ATOM     11  O   UNL     1       0.792   3.840  20.676  0.00  0.00    +0.000 OA
ATOM     12  C   UNL     1       1.447   4.727  20.114  0.00  0.00    +0.000 C 
ATOM     13  C   UNL     1       1.982   4.465  18.719  0.00  0.00    +0.000 C 
ATOM     14  C   UNL     1       2.138   5.607  17.739  0.00  0.00    +0.000 C 
ATOM     15  C   UNL     1       3.078   6.652  18.290  0.00  0.00    +0.000 C 
ATOM     16  C   UNL     1       2.306   7.560  19.196  0.00  0.00    +0.000 A 
ATOM     17  C   UNL     1       2.038   8.861  18.749  0.00  0.00    +0.000 A 
ATOM     18  C   UNL     1       1.456   9.830  19.567  0.00  0.00    +0.000 A 
ATOM     19  C   UNL     1       1.050   9.454  20.848  0.00  0.00    +0.000 A 
ATOM     20  C   UNL     1       1.227   8.129  21.274  0.00  0.00    +0.000 A 
ATOM     21  C   UNL     1       1.810   7.167  20.431  0.00  0.00    +0.000 A 
ATOM     22  N   UNL     1       1.733   5.832  20.861  0.00  0.00    +0.000 N 
ATOM     23  H   UNL     1       1.345   5.706  21.791  0.00  0.00    +0.000 HD
ENDBRANCH   1  18
BRANCH   5  24
ATOM     24  C   UNL     1      -3.003  12.444  21.479  0.00  0.00    +0.000 A 
ATOM     25  C   UNL     1      -4.362  12.815  21.489  0.00  0.00    +0.000 A 
ATOM     26  C   UNL     1      -5.064  12.973  22.683  0.00  0.00    +0.000 A 
ATOM     27  C   UNL     1      -4.430  12.742  23.894  0.00  0.00    +0.000 A 
ATOM     28  C   UNL     1      -3.090  12.352  23.906  0.00  0.00    +0.000 A 
ATOM     29  C   UNL     1      -2.379  12.213  22.713  0.00  0.00    +0.000 A 
ENDBRANCH   5  24
TORSDOF 2
ENDMDL
MODEL 6
REMARK VINA RESULT:      -7.6      6.104      9.904
REMARK  Name = 
REMARK  2 active torsions:
REMARK  status: ('A' for Active; 'I' for Inactive)
REMARK    1  A    between atoms: C_8  and  C_9
REMARK    2  A    between atoms: C_13  and  C_14
REMARK                            x       y       z     vdW  Elec       q    Type
REMARK                         _______ _______ _______ _____ _____    ______ ____
ROOT
ATOM      1  C   UNL     1      -6.775  12.972  22.602  0.00  0.00    +0.000 C 
ATOM      2  O   UNL     1      -7.895  12.867  23.098  0.00  0.00    +0.000 OA
ATOM      3  N   UNL     1      -6.500  12.602  21.288  0.00  0.00    +0.000 N 
ATOM      4  C   UNL     1      -5.245  12.743  20.595  0.00  0.00    +0.000 C 
ATOM      5  C   UNL     1      -5.538  12.592  19.108  0.00  0.00    +0.000 C 
ATOM      6  C   UNL     1      -6.958  11.976  19.028  0.00  0.00    +0.000 C 
ATOM      7  C   UNL     1      -7.127  10.592  18.418  0.00  0.00    +0.000 C 
ATOM      8  C   UNL     1      -6.902   9.620  19.559  0.00  0.00    +0.000 C 
ATOM      9  C   UNL     1      -7.411  10.336  20.808  0.00  0.00    +0.000 C 
ATOM     10  C   UNL     1      -7.442  11.840  20.485  0.00  0.00    +0.000 C 
ENDROOT
BRANCH   1  18
ATOM     11  O   UNL     1      -0.271  15.817  25.207  0.00  0.00    +0.000 OA
ATOM     12  C   UNL     1      -1.490  16.001  25.087  0.00  0.00    +0.000 C 
ATOM     13  C   UNL     1      -1.978  17.360  24.624  0.00  0.00    +0.000 C 
ATOM     14  C   UNL     1      -3.247  17.473  23.809  0.00  0.00    +0.000 C 
ATOM     15  C   UNL     1      -4.421  16.917  24.578  0.00  0.00    +0.000 C 
ATOM     16  C   UNL     1      -4.456  15.432  24.390  0.00  0.00    +0.000 A 
ATOM     17  C   UNL     1      -5.466  14.897  23.581  0.00  0.00    +0.000 A 
ATOM     18  C   UNL     1      -5.677  13.522  23.456  0.00  0.00    +0.000 A 
ATOM     19  C   UNL     1      -4.788  12.658  24.096  0.00  0.00    +0.000 A 
ATOM     20  C   UNL     1      -3.716  13.182  24.833  0.00  0.00    +0.000 A 
ATOM     21  C   UNL     1      -3.518  14.570  24.941  0.00  0.00    +0.000 A 
ATOM     22  N   UNL     1      -2.299  14.985  25.502  0.00  0.00    +0.000 N 
ATOM     23  H   UNL     1      -1.718  14.233  25.862  0.00  0.00    +0.000 HD
ENDBRANCH   1  18
BRANCH   5  24
ATOM     24  C   UNL     1      -4.404  11.949  18.331  0.00  0.00    +0.000 A 
ATOM     25  C   UNL     1      -4.489  11.615  16.964  0.00  0.00    +0.000 A 
ATOM     26  C   UNL     1      -3.439  10.977  16.305  0.00  0.00    +0.000 A 
ATOM     27  C   UNL     1      -2.271  10.679  16.990  0.00  0.00    +0.000 A 
ATOM     28  C   UNL     1      -2.158  11.021  18.339  0.00  0.00    +0.000 A 
ATOM     29  C   UNL     1      -3.216  11.640  19.007  0.00  0.00    +0.000 A 
ENDBRANCH   5  24
TORSDOF 2
ENDMDL
MODEL 7
REMARK VINA RESULT:      -7.4      2.919      5.522
REMARK  Name = 
REMARK  2 active torsions:
REMARK  status: ('A' for Active; 'I' for Inactive)
REMARK    1  A    between atoms: C_8  and  C_9
REMARK    2  A    between atoms: C_13  and  C_14
REMARK                            x       y       z     vdW  Elec       q    Type
REMARK                         _______ _______ _______ _____ _____    ______ ____
ROOT
ATOM      1  C   UNL     1      -0.131  14.321  22.113  0.00  0.00    +0.000 C 
ATOM      2  O   UNL     1       0.901  14.925  22.392  0.00  0.00    +0.000 OA
ATOM      3  N   UNL     1      -1.383  14.725  22.570  0.00  0.00    +0.000 N 
ATOM      4  C   UNL     1      -2.654  14.126  22.251  0.00  0.00    +0.000 C 
ATOM      5  C   UNL     1      -3.730  15.135  22.636  0.00  0.00    +0.000 C 
ATOM      6  C   UNL     1      -3.018  16.170  23.544  0.00  0.00    +0.000 C 
ATOM      7  C   UNL     1      -3.458  16.303  24.994  0.00  0.00    +0.000 C 
ATOM      8  C   UNL     1      -2.653  15.266  25.754  0.00  0.00    +0.000 C 
ATOM      9  C   UNL     1      -1.319  15.169  25.019  0.00  0.00    +0.000 C 
ATOM     10  C   UNL     1      -1.541  15.734  23.604  0.00  0.00    +0.000 C 
ENDROOT
BRANCH   1  18
ATOM     11  O   UNL     1       2.319   8.350  18.172  0.00  0.00    +0.000 OA
ATOM     12  C   UNL     1       1.576   8.735  19.084  0.00  0.00    +0.000 C 
ATOM     13  C   UNL     1       1.556   7.954  20.385  0.00  0.00    +0.000 C 
ATOM     14  C   UNL     1       1.289   8.666  21.693  0.00  0.00    +0.000 C 
ATOM     15  C   UNL     1      -0.061   9.340  21.662  0.00  0.00    +0.000 C 
ATOM     16  C   UNL     1       0.083  10.670  20.990  0.00  0.00    +0.000 A 
ATOM     17  C   UNL     1       0.002  11.820  21.786  0.00  0.00    +0.000 A 
ATOM     18  C   UNL     1      -0.022  13.106  21.245  0.00  0.00    +0.000 A 
ATOM     19  C   UNL     1       0.129  13.244  19.865  0.00  0.00    +0.000 A 
ATOM     20  C   UNL     1       0.306  12.105  19.067  0.00  0.00    +0.000 A 
ATOM     21  C   UNL     1       0.334  10.818  19.633  0.00  0.00    +0.000 A 
ATOM     22  N   UNL     1       0.743   9.773  18.788  0.00  0.00    +0.000 N 
ATOM     23  H   UNL     1       0.888  10.041  17.819  0.00  0.00    +0.000 HD
ENDBRANCH   1  18
BRANCH   5  24
ATOM     24  C   UNL     1      -5.018  14.490  23.113  0.00  0.00    +0.000 A 
ATOM     25  C   UNL     1      -6.275  15.125  23.051  0.00  0.00    +0.000 A 
ATOM     26  C   UNL     1      -7.424  14.513  23.549  0.00  0.00    +0.000 A 
ATOM     27  C   UNL     1      -7.349  13.243  24.100  0.00  0.00    +0.000 A 
ATOM     28  C   UNL     1      -6.117  12.588  24.152  0.00  0.00    +0.000 A 
ATOM     29  C   UNL     1      -4.961  13.206  23.673  0.00  0.00    +0.000 A 
ENDBRANCH   5  24
TORSDOF 2
ENDMDL
MODEL 8
REMARK VINA RESULT:      -7.4      2.937      5.853
REMARK  Name = 
REMARK  2 active torsions:
REMARK  status: ('A' for Active; 'I' for Inactive)
REMARK    1  A    between atoms: C_8  and  C_9
REMARK    2  A    between atoms: C_13  and  C_14
REMARK                            x       y       z     vdW  Elec       q    Type
REMARK                         _______ _______ _______ _____ _____    ______ ____
ROOT
ATOM      1  C   UNL     1      -0.293  14.667  21.894  0.00  0.00    +0.000 C 
ATOM      2  O   UNL     1       0.740  15.281  22.150  0.00  0.00    +0.000 OA
ATOM      3  N   UNL     1      -1.519  14.992  22.470  0.00  0.00    +0.000 N 
ATOM      4  C   UNL     1      -2.793  14.380  22.191  0.00  0.00    +0.000 C 
ATOM      5  C   UNL     1      -3.865  15.318  22.733  0.00  0.00    +0.000 C 
ATOM      6  C   UNL     1      -3.117  16.299  23.672  0.00  0.00    +0.000 C 
ATOM      7  C   UNL     1      -3.454  16.299  25.156  0.00  0.00    +0.000 C 
ATOM      8  C   UNL     1      -2.569  15.230  25.768  0.00  0.00    +0.000 C 
ATOM      9  C   UNL     1      -1.289  15.237  24.936  0.00  0.00    +0.000 C 
ATOM     10  C   UNL     1      -1.628  15.907  23.592  0.00  0.00    +0.000 C 
ENDROOT
BRANCH   1  18
ATOM     11  O   UNL     1       2.023   9.111  17.318  0.00  0.00    +0.000 OA
ATOM     12  C   UNL     1       1.334   9.399  18.305  0.00  0.00    +0.000 C 
ATOM     13  C   UNL     1       1.417   8.513  19.534  0.00  0.00    +0.000 C 
ATOM     14  C   UNL     1       1.221   9.108  20.911  0.00  0.00    +0.000 C 
ATOM     15  C   UNL     1      -0.144   9.745  21.023  0.00  0.00    +0.000 C 
ATOM     16  C   UNL     1      -0.073  11.129  20.458  0.00  0.00    +0.000 A 
ATOM     17  C   UNL     1      -0.127  12.207  21.351  0.00  0.00    +0.000 A 
ATOM     18  C   UNL     1      -0.215  13.532  20.922  0.00  0.00    +0.000 A 
ATOM     19  C   UNL     1      -0.158  13.787  19.551  0.00  0.00    +0.000 A 
ATOM     20  C   UNL     1      -0.008  12.722  18.651  0.00  0.00    +0.000 A 
ATOM     21  C   UNL     1       0.085  11.395  19.104  0.00  0.00    +0.000 A 
ATOM     22  N   UNL     1       0.460  10.434  18.151  0.00  0.00    +0.000 N 
ATOM     23  H   UNL     1       0.535  10.784  17.200  0.00  0.00    +0.000 HD
ENDBRANCH   1  18
BRANCH   5  24
ATOM     24  C   UNL     1      -5.097  14.595  23.244  0.00  0.00    +0.000 A 
ATOM     25  C   UNL     1      -5.084  13.262  23.700  0.00  0.00    +0.000 A 
ATOM     26  C   UNL     1      -6.253  12.622  24.110  0.00  0.00    +0.000 A 
ATOM     27  C   UNL     1      -7.458  13.308  24.098  0.00  0.00    +0.000 A 
ATOM     28  C   UNL     1      -7.490  14.636  23.671  0.00  0.00    +0.000 A 
ATOM     29  C   UNL     1      -6.325  15.272  23.238  0.00  0.00    +0.000 A 
ENDBRANCH   5  24
TORSDOF 2
ENDMDL
MODEL 9
REMARK VINA RESULT:      -7.3      2.513      9.223
REMARK  Name = 
REMARK  2 active torsions:
REMARK  status: ('A' for Active; 'I' for Inactive)
REMARK    1  A    between atoms: C_8  and  C_9
REMARK    2  A    between atoms: C_13  and  C_14
REMARK                            x       y       z     vdW  Elec       q    Type
REMARK                         _______ _______ _______ _____ _____    ______ ____
ROOT
ATOM      1  C   UNL     1       1.675   6.380  19.851  0.00  0.00    +0.000 C 
ATOM      2  O   UNL     1       1.051   5.951  20.819  0.00  0.00    +0.000 OA
ATOM      3  N   UNL     1       2.433   5.556  19.023  0.00  0.00    +0.000 N 
ATOM      4  C   UNL     1       3.147   5.947  17.834  0.00  0.00    +0.000 C 
ATOM      5  C   UNL     1       3.467   4.670  17.067  0.00  0.00    +0.000 C 
ATOM      6  C   UNL     1       3.237   3.515  18.075  0.00  0.00    +0.000 C 
ATOM      7  C   UNL     1       4.419   2.651  18.487  0.00  0.00    +0.000 C 
ATOM      8  C   UNL     1       5.060   3.379  19.653  0.00  0.00    +0.000 C 
ATOM      9  C   UNL     1       3.913   4.080  20.375  0.00  0.00    +0.000 C 
ATOM     10  C   UNL     1       2.746   4.182  19.376  0.00  0.00    +0.000 C 
ENDROOT
BRANCH   1  18
ATOM     11  O   UNL     1      -0.507  13.343  17.866  0.00  0.00    +0.000 OA
ATOM     12  C   UNL     1      -0.084  12.629  18.785  0.00  0.00    +0.000 C 
ATOM     13  C   UNL     1      -0.734  12.741  20.151  0.00  0.00    +0.000 C 
ATOM     14  C   UNL     1      -0.806  11.533  21.059  0.00  0.00    +0.000 C 
ATOM     15  C   UNL     1       0.580  11.019  21.365  0.00  0.00    +0.000 C 
ATOM     16  C   UNL     1       1.018  10.128  20.246  0.00  0.00    +0.000 A 
ATOM     17  C   UNL     1       1.075   8.749  20.487  0.00  0.00    +0.000 A 
ATOM     18  C   UNL     1       1.606   7.847  19.564  0.00  0.00    +0.000 A 
ATOM     19  C   UNL     1       2.012   8.337  18.322  0.00  0.00    +0.000 A 
ATOM     20  C   UNL     1       1.873   9.702  18.033  0.00  0.00    +0.000 A 
ATOM     21  C   UNL     1       1.330  10.593  18.975  0.00  0.00    +0.000 A 
ATOM     22  N   UNL     1       1.023  11.883  18.511  0.00  0.00    +0.000 N 
ATOM     23  H   UNL     1       1.315  12.072  17.557  0.00  0.00    +0.000 HD
ENDBRANCH   1  18
BRANCH   5  24
ATOM     24  C   UNL     1       4.774   4.737  16.300  0.00  0.00    +0.000 A 
ATOM     25  C   UNL     1       5.042   3.970  15.149  0.00  0.00    +0.000 A 
ATOM     26  C   UNL     1       6.278   4.027  14.508  0.00  0.00    +0.000 A 
ATOM     27  C   UNL     1       7.269   4.870  14.988  0.00  0.00    +0.000 A 
ATOM     28  C   UNL     1       7.017   5.655  16.114  0.00  0.00    +0.000 A 
ATOM     29  C   UNL     1       5.787   5.584  16.771  0.00  0.00    +0.000 A 
ENDBRANCH   5  24
TORSDOF 2
ENDMDL
