MODEL 1
REMARK VINA RESULT:      -8.5      0.000      0.000
REMARK  Name = 
REMARK  4 active torsions:
REMARK  status: ('A' for Active; 'I' for Inactive)
REMARK    1  A    between atoms: C_1  and  C_2
REMARK    2  A    between atoms: C_2  and  C_3
REMARK    3  A    between atoms: N_5  and  C_6
REMARK    4  A    between atoms: C_9  and  C_10
REMARK                            x       y       z     vdW  Elec       q    Type
REMARK                         _______ _______ _______ _____ _____    ______ ____
ROOT
ATOM      1  C   UNL     1       0.603  10.542  21.036  0.00  0.00    +0.000 C 
ATOM      2  O   UNL     1       1.464  10.270  21.883  0.00  0.00    +0.000 OA
ATOM      3  N   UNL     1       0.551   9.933  19.785  0.00  0.00    +0.000 N 
ATOM      4  H   UNL     1       0.022  10.399  19.056  0.00  0.00    +0.000 HD
ENDROOT
BRANCH   1   6
ATOM      5  C   UNL     1      -1.465  11.622  20.171  0.00  0.00    +0.000 C 
ATOM      6  C   UNL     1      -0.444  11.636  21.340  0.00  0.00    +0.000 C 
ATOM      7  C   UNL     1      -1.182  11.281  22.656  0.00  0.00    +0.000 C 
ATOM      8  C   UNL     1      -2.098  12.417  23.099  0.00  0.00    +0.000 C 
ATOM      9  C   UNL     1      -1.268  13.657  23.416  0.00  0.00    +0.000 C 
ATOM     10  C   UNL     1      -0.236  13.978  22.362  0.00  0.00    +0.000 A 
ATOM     11  C   UNL     1       0.354  15.254  22.370  0.00  0.00    +0.000 A 
ATOM     12  C   UNL     1       1.317  15.604  21.427  0.00  0.00    +0.000 A 
ATOM     13  C   UNL     1       1.707  14.688  20.458  0.00  0.00    +0.000 A 
ATOM     14  C   UNL     1       1.142  13.412  20.445  0.00  0.00    +0.000 A 
ATOM     15  C   UNL     1       0.180  13.034  21.401  0.00  0.00    +0.000 A 
ENDBRANCH   1   6
BRANCH   3  16
ATOM     16  C   UNL     1       1.455   8.914  19.404  0.00  0.00    +0.000 A 
ATOM     17  C   UNL     1       2.076   8.915  18.148  0.00  0.00    +0.000 A 
ATOM     18  C   UNL     1       2.784   7.805  17.687  0.00  0.00    +0.000 A 
ATOM     19  C   UNL     1       2.893   6.666  18.491  0.00  0.00    +0.000 A 
ATOM     20  C   UNL     1       2.328   6.703  19.768  0.00  0.00    +0.000 A 
ATOM     21  F   UNL     1       2.342   5.622  20.563  0.00  0.00    +0.000 F 
ATOM     22  C   UNL     1       1.674   7.840  20.258  0.00  0.00    +0.000 A 
BRANCH  19  23
ATOM     23  C   UNL     1       3.517   5.463  17.884  0.00  0.00    +0.000 C 
ATOM     24  O   UNL     1       2.754   4.598  17.445  0.00  0.00    +0.000 OA
ATOM     25  N   UNL     1       4.898   5.349  17.780  0.00  0.00    +0.000 N 
ATOM     26  C   UNL     1       5.888   6.350  18.177  0.00  0.00    +0.000 C 
ATOM     27  C   UNL     1       6.958   6.527  17.105  0.00  0.00    +0.000 C 
ATOM     28  O   UNL     1       7.561   5.276  16.759  0.00  0.00    +0.000 OA
ATOM     29  C   UNL     1       6.569   4.362  16.262  0.00  0.00    +0.000 C 
ATOM     30  C   UNL     1       5.485   4.092  17.310  0.00  0.00    +0.000 C 
ENDBRANCH  19  23
ENDBRANCH   3  16
TORSDOF 3
ENDMDL
MODEL 2
REMARK VINA RESULT:      -8.4      1.962      2.841
REMARK  Name = 
REMARK  4 active torsions:
REMARK  status: ('A' for Active; 'I' for Inactive)
REMARK    1  A    between atoms: C_1  and  C_2
REMARK    2  A    between atoms: C_2  and  C_3
REMARK    3  A    between atoms: N_5  and  C_6
REMARK    4  A    between atoms: C_9  and  C_10
REMARK                            x       y       z     vdW  Elec       q    Type
REMARK                         _______ _______ _______ _____ _____    ______ ____
ROOT
ATOM      1  C   UNL     1      -0.518  10.698  19.913  0.00  0.00    +0.000 C 
ATOM      2  O   UNL     1      -1.224  10.088  19.098  0.00  0.00    +0.000 OA
ATOM      3  N   UNL     1       0.693  10.202  20.388  0.00  0.00    +0.000 N 
ATOM      4  H   UNL     1       1.060  10.600  21.246  0.00  0.00    +0.000 HD
ENDROOT
BRANCH   1   6
ATOM      5  C   UNL     1      -2.337  12.389  19.751  0.00  0.00    +0.000 C 
ATOM      6  C   UNL     1      -1.005  12.052  20.475  0.00  0.00    +0.000 C 
ATOM      7  C   UNL     1      -1.282  11.902  21.992  0.00  0.00    +0.000 C 
ATOM      8  C   UNL     1      -1.589  13.251  22.634  0.00  0.00    +0.000 C 
ATOM      9  C   UNL     1      -0.372  14.164  22.527  0.00  0.00    +0.000 C 
ATOM     10  C   UNL     1       0.250  14.183  21.151  0.00  0.00    +0.000 A 
ATOM     11  C   UNL     1       1.154  15.213  20.838  0.00  0.00    +0.000 A 
ATOM     12  C   UNL     1       1.763  15.277  19.588  0.00  0.00    +0.000 A 
ATOM     13  C   UNL     1       1.481  14.315  18.626  0.00  0.00    +0.000 A 
ATOM     14  C   UNL     1       0.597  13.278  18.925  0.00  0.00    +0.000 A 
ATOM     15  C   UNL     1      -0.015  13.186  20.189  0.00  0.00    +0.000 A 
ENDBRANCH   1   6
BRANCH   3  16
ATOM     16  C   UNL     1       1.236   8.977  19.936  0.00  0.00    +0.000 A 
ATOM     17  C   UNL     1       1.323   7.858  20.774  0.00  0.00    +0.000 A 
ATOM     18  C   UNL     1       2.058   6.730  20.407  0.00  0.00    +0.000 A 
ATOM     19  C   UNL     1       2.716   6.701  19.174  0.00  0.00    +0.000 A 
ATOM     20  C   UNL     1       2.566   7.795  18.318  0.00  0.00    +0.000 A 
ATOM     21  F   UNL     1       3.222   7.855  17.150  0.00  0.00    +0.000 F 
ATOM     22  C   UNL     1       1.775   8.899  18.657  0.00  0.00    +0.000 A 
BRANCH  19  23
ATOM     23  C   UNL     1       3.611   5.545  18.909  0.00  0.00    +0.000 C 
ATOM     24  O   UNL     1       4.790   5.660  19.255  0.00  0.00    +0.000 OA
ATOM     25  N   UNL     1       3.121   4.377  18.339  0.00  0.00    +0.000 N 
ATOM     26  C   UNL     1       1.730   4.098  17.980  0.00  0.00    +0.000 C 
ATOM     27  C   UNL     1       1.307   2.708  18.442  0.00  0.00    +0.000 C 
ATOM     28  O   UNL     1       2.203   1.702  17.958  0.00  0.00    +0.000 OA
ATOM     29  C   UNL     1       3.538   1.950  18.432  0.00  0.00    +0.000 C 
ATOM     30  C   UNL     1       4.053   3.313  17.959  0.00  0.00    +0.000 C 
ENDBRANCH  19  23
ENDBRANCH   3  16
TORSDOF 3
ENDMDL
MODEL 3
REMARK VINA RESULT:      -8.4      1.643      2.415
REMARK  Name = 
REMARK  4 active torsions:
REMARK  status: ('A' for Active; 'I' for Inactive)
REMARK    1  A    between atoms: C_1  and  C_2
REMARK    2  A    between atoms: C_2  and  C_3
REMARK    3  A    between atoms: N_5  and  C_6
REMARK    4  A    between atoms: C_9  and  C_10
REMARK                            x       y       z     vdW  Elec       q    Type
REMARK                         _______ _______ _______ _____ _____    ______ ____
ROOT
ATOM      1  C   UNL     1       0.266  11.054  20.411  0.00  0.00    +0.000 C 
ATOM      2  O   UNL     1       1.176  11.104  21.249  0.00  0.00    +0.000 OA
ATOM      3  N   UNL     1       0.263  10.157  19.346  0.00  0.00    +0.000 N 
ATOM      4  H   UNL     1      -0.342  10.363  18.558  0.00  0.00    +0.000 HD
ENDROOT
BRANCH   1   6
ATOM      5  C   UNL     1      -1.944  11.637  19.424  0.00  0.00    +0.000 C 
ATOM      6  C   UNL     1      -0.909  12.053  20.505  0.00  0.00    +0.000 C 
ATOM      7  C   UNL     1      -1.567  11.933  21.903  0.00  0.00    +0.000 C 
ATOM      8  C   UNL     1      -2.615  13.021  22.116  0.00  0.00    +0.000 C 
ATOM      9  C   UNL     1      -1.947  14.393  22.093  0.00  0.00    +0.000 C 
ATOM     10  C   UNL     1      -0.987  14.578  20.942  0.00  0.00    +0.000 A 
ATOM     11  C   UNL     1      -0.569  15.881  20.622  0.00  0.00    +0.000 A 
ATOM     12  C   UNL     1       0.321  16.112  19.576  0.00  0.00    +0.000 A 
ATOM     13  C   UNL     1       0.807  15.046  18.829  0.00  0.00    +0.000 A 
ATOM     14  C   UNL     1       0.413  13.745  19.142  0.00  0.00    +0.000 A 
ATOM     15  C   UNL     1      -0.471  13.491  20.207  0.00  0.00    +0.000 A 
ENDBRANCH   1   6
BRANCH   3  16
ATOM     16  C   UNL     1       1.284   9.195  19.168  0.00  0.00    +0.000 A 
ATOM     17  C   UNL     1       2.057   9.151  18.001  0.00  0.00    +0.000 A 
ATOM     18  C   UNL     1       2.901   8.074  17.728  0.00  0.00    +0.000 A 
ATOM     19  C   UNL     1       2.994   7.016  18.638  0.00  0.00    +0.000 A 
ATOM     20  C   UNL     1       2.270   7.104  19.830  0.00  0.00    +0.000 A 
ATOM     21  F   UNL     1       2.268   6.094  20.713  0.00  0.00    +0.000 F 
ATOM     22  C   UNL     1       1.475   8.213  20.135  0.00  0.00    +0.000 A 
BRANCH  19  23
ATOM     23  C   UNL     1       3.781   5.828  18.219  0.00  0.00    +0.000 C 
ATOM     24  O   UNL     1       5.011   5.928  18.262  0.00  0.00    +0.000 OA
ATOM     25  N   UNL     1       3.151   4.649  17.841  0.00  0.00    +0.000 N 
ATOM     26  C   UNL     1       1.711   4.390  17.844  0.00  0.00    +0.000 C 
ATOM     27  C   UNL     1       1.394   3.032  18.460  0.00  0.00    +0.000 C 
ATOM     28  O   UNL     1       2.132   1.984  17.821  0.00  0.00    +0.000 OA
ATOM     29  C   UNL     1       3.545   2.219  17.944  0.00  0.00    +0.000 C 
ATOM     30  C   UNL     1       3.948   3.547  17.296  0.00  0.00    +0.000 C 
ENDBRANCH  19  23
ENDBRANCH   3  16
TORSDOF 3
ENDMDL
MODEL 4
REMARK VINA RESULT:      -8.3      5.719      8.081
REMARK  Name = 
REMARK  4 active torsions:
REMARK  status: ('A' for Active; 'I' for Inactive)
REMARK    1  A    between atoms: C_1  and  C_2
REMARK    2  A    between atoms: C_2  and  C_3
REMARK    3  A    between atoms: N_5  and  C_6
REMARK    4  A    between atoms: C_9  and  C_10
REMARK                            x       y       z     vdW  Elec       q    Type
REMARK                         _______ _______ _______ _____ _____    ______ ____
ROOT
ATOM      1  C   UNL     1       9.418  10.623  19.184  0.00  0.00    +0.000 C 
ATOM      2  O   UNL     1       9.066  10.308  20.328  0.00  0.00    +0.000 OA
ATOM      3  N   UNL     1       9.069   9.890  18.053  0.00  0.00    +0.000 N 
ATOM      4  H   UNL     1       9.618  10.031  17.212  0.00  0.00    +0.000 HD
ENDROOT
BRANCH   1   6
ATOM      5  C   UNL     1      11.265  11.936  20.214  0.00  0.00    +0.000 C 
ATOM      6  C   UNL     1      10.325  11.858  18.981  0.00  0.00    +0.000 C 
ATOM      7  C   UNL     1      11.183  11.653  17.707  0.00  0.00    +0.000 C 
ATOM      8  C   UNL     1      11.963  12.917  17.357  0.00  0.00    +0.000 C 
ATOM      9  C   UNL     1      10.993  14.047  17.022  0.00  0.00    +0.000 C 
ATOM     10  C   UNL     1       9.864  14.188  18.015  0.00  0.00    +0.000 A 
ATOM     11  C   UNL     1       9.109  15.373  18.006  0.00  0.00    +0.000 A 
ATOM     12  C   UNL     1       8.051  15.556  18.893  0.00  0.00    +0.000 A 
ATOM     13  C   UNL     1       7.730  14.560  19.808  0.00  0.00    +0.000 A 
ATOM     14  C   UNL     1       8.461  13.372  19.821  0.00  0.00    +0.000 A 
ATOM     15  C   UNL     1       9.522  13.161  18.919  0.00  0.00    +0.000 A 
ENDBRANCH   1   6
BRANCH   3  16
ATOM     16  C   UNL     1       8.238   8.748  18.123  0.00  0.00    +0.000 A 
ATOM     17  C   UNL     1       8.582   7.634  18.901  0.00  0.00    +0.000 A 
ATOM     18  C   UNL     1       7.886   6.430  18.794  0.00  0.00    +0.000 A 
ATOM     19  C   UNL     1       6.813   6.324  17.903  0.00  0.00    +0.000 A 
ATOM     20  C   UNL     1       6.437   7.460  17.183  0.00  0.00    +0.000 A 
ATOM     21  F   UNL     1       5.458   7.406  16.267  0.00  0.00    +0.000 F 
ATOM     22  C   UNL     1       7.092   8.687  17.338  0.00  0.00    +0.000 A 
BRANCH  19  23
ATOM     23  C   UNL     1       6.218   4.976  17.716  0.00  0.00    +0.000 C 
ATOM     24  O   UNL     1       6.940   4.109  17.216  0.00  0.00    +0.000 OA
ATOM     25  N   UNL     1       4.920   4.704  18.131  0.00  0.00    +0.000 N 
ATOM     26  C   UNL     1       4.012   5.623  18.818  0.00  0.00    +0.000 C 
ATOM     27  C   UNL     1       3.323   4.944  19.996  0.00  0.00    +0.000 C 
ATOM     28  O   UNL     1       2.667   3.737  19.592  0.00  0.00    +0.000 OA
ATOM     29  C   UNL     1       3.617   2.815  19.029  0.00  0.00    +0.000 C 
ATOM     30  C   UNL     1       4.313   3.411  17.802  0.00  0.00    +0.000 C 
ENDBRANCH  19  23
ENDBRANCH   3  16
TORSDOF 3
ENDMDL
MODEL 5
REMARK VINA RESULT:      -8.2      1.189      1.249
REMARK  Name = 
REMARK  4 active torsions:
REMARK  status: ('A' for Active; 'I' for Inactive)
REMARK    1  A    between atoms: C_1  and  C_2
REMARK    2  A    between atoms: C_2  and  C_3
REMARK    3  A    between atoms: N_5  and  C_6
REMARK    4  A    between atoms: C_9  and  C_10
REMARK                            x       y       z     vdW  Elec       q    Type
REMARK                         _______ _______ _______ _____ _____    ______ ____
ROOT
ATOM      1  C   UNL     1      -0.450  10.678  19.883  0.00  0.00    +0.000 C 
ATOM      2  O   UNL     1      -1.026  10.135  18.932  0.00  0.00    +0.000 OA
ATOM      3  N   UNL     1       0.742  10.200  20.423  0.00  0.00    +0.000 N 
ATOM      4  H   UNL     1       0.994  10.508  21.356  0.00  0.00    +0.000 HD
ENDROOT
BRANCH   1   6
ATOM      5  C   UNL     1      -2.455  12.151  19.855  0.00  0.00    +0.000 C 
ATOM      6  C   UNL     1      -1.085  11.920  20.548  0.00  0.00    +0.000 C 
ATOM      7  C   UNL     1      -1.325  11.625  22.050  0.00  0.00    +0.000 C 
ATOM      8  C   UNL     1      -1.781  12.877  22.793  0.00  0.00    +0.000 C 
ATOM      9  C   UNL     1      -0.680  13.932  22.752  0.00  0.00    +0.000 C 
ATOM     10  C   UNL     1      -0.081  14.127  21.380  0.00  0.00    +0.000 A 
ATOM     11  C   UNL     1       0.692  15.277  21.144  0.00  0.00    +0.000 A 
ATOM     12  C   UNL     1       1.276  15.506  19.901  0.00  0.00    +0.000 A 
ATOM     13  C   UNL     1       1.097  14.592  18.870  0.00  0.00    +0.000 A 
ATOM     14  C   UNL     1       0.344  13.438  19.091  0.00  0.00    +0.000 A 
ATOM     15  C   UNL     1      -0.238  13.181  20.347  0.00  0.00    +0.000 A 
ENDBRANCH   1   6
BRANCH   3  16
ATOM     16  C   UNL     1       1.413   9.076  19.888  0.00  0.00    +0.000 A 
ATOM     17  C   UNL     1       1.810   9.027  18.545  0.00  0.00    +0.000 A 
ATOM     18  C   UNL     1       2.264   7.842  17.965  0.00  0.00    +0.000 A 
ATOM     19  C   UNL     1       2.339   6.676  18.732  0.00  0.00    +0.000 A 
ATOM     20  C   UNL     1       2.005   6.754  20.086  0.00  0.00    +0.000 A 
ATOM     21  F   UNL     1       1.996   5.658  20.860  0.00  0.00    +0.000 F 
ATOM     22  C   UNL     1       1.613   7.955  20.686  0.00  0.00    +0.000 A 
BRANCH  19  23
ATOM     23  C   UNL     1       2.674   5.416  18.021  0.00  0.00    +0.000 C 
ATOM     24  O   UNL     1       1.729   4.744  17.597  0.00  0.00    +0.000 OA
ATOM     25  N   UNL     1       3.995   5.044  17.808  0.00  0.00    +0.000 N 
ATOM     26  C   UNL     1       5.187   5.806  18.180  0.00  0.00    +0.000 C 
ATOM     27  C   UNL     1       6.200   5.841  17.042  0.00  0.00    +0.000 C 
ATOM     28  O   UNL     1       6.522   4.521  16.589  0.00  0.00    +0.000 OA
ATOM     29  C   UNL     1       5.339   3.849  16.123  0.00  0.00    +0.000 C 
ATOM     30  C   UNL     1       4.291   3.729  17.234  0.00  0.00    +0.000 C 
ENDBRANCH  19  23
ENDBRANCH   3  16
TORSDOF 3
ENDMDL
MODEL 6
REMARK VINA RESULT:      -8.2      2.721      9.255
REMARK  Name = 
REMARK  4 active torsions:
REMARK  status: ('A' for Active; 'I' for Inactive)
REMARK    1  A    between atoms: C_1  and  C_2
REMARK    2  A    between atoms: C_2  and  C_3
REMARK    3  A    between atoms: N_5  and  C_6
REMARK    4  A    between atoms: C_9  and  C_10
REMARK                            x       y       z     vdW  Elec       q    Type
REMARK                         _______ _______ _______ _____ _____    ______ ____
ROOT
ATOM      1  C   UNL     1       2.826   7.130  18.683  0.00  0.00    +0.000 C 
ATOM      2  O   UNL     1       2.390   7.267  19.833  0.00  0.00    +0.000 OA
ATOM      3  N   UNL     1       2.556   8.031  17.656  0.00  0.00    +0.000 N 
ATOM      4  H   UNL     1       2.693   7.714  16.702  0.00  0.00    +0.000 HD
ENDROOT
BRANCH   1   6
ATOM      5  C   UNL     1       4.092   6.027  16.845  0.00  0.00    +0.000 C 
ATOM      6  C   UNL     1       3.674   5.886  18.335  0.00  0.00    +0.000 C 
ATOM      7  C   UNL     1       4.949   5.878  19.215  0.00  0.00    +0.000 C 
ATOM      8  C   UNL     1       5.731   4.580  19.043  0.00  0.00    +0.000 C 
ATOM      9  C   UNL     1       4.890   3.402  19.527  0.00  0.00    +0.000 C 
ATOM     10  C   UNL     1       3.470   3.422  19.013  0.00  0.00    +0.000 A 
ATOM     11  C   UNL     1       2.706   2.247  19.111  0.00  0.00    +0.000 A 
ATOM     12  C   UNL     1       1.389   2.209  18.662  0.00  0.00    +0.000 A 
ATOM     13  C   UNL     1       0.811   3.343  18.104  0.00  0.00    +0.000 A 
ATOM     14  C   UNL     1       1.551   4.522  18.012  0.00  0.00    +0.000 A 
ATOM     15  C   UNL     1       2.878   4.585  18.478  0.00  0.00    +0.000 A 
ENDBRANCH   1   6
BRANCH   3  16
ATOM     16  C   UNL     1       1.798   9.206  17.865  0.00  0.00    +0.000 A 
ATOM     17  C   UNL     1       2.409  10.437  18.139  0.00  0.00    +0.000 A 
ATOM     18  C   UNL     1       1.667  11.538  18.566  0.00  0.00    +0.000 A 
ATOM     19  C   UNL     1       0.281  11.427  18.716  0.00  0.00    +0.000 A 
ATOM     20  C   UNL     1      -0.325  10.215  18.375  0.00  0.00    +0.000 A 
ATOM     21  F   UNL     1      -1.641  10.024  18.557  0.00  0.00    +0.000 F 
ATOM     22  C   UNL     1       0.410   9.130  17.883  0.00  0.00    +0.000 A 
BRANCH  19  23
ATOM     23  C   UNL     1      -0.430  12.579  19.326  0.00  0.00    +0.000 C 
ATOM     24  O   UNL     1      -0.906  13.416  18.553  0.00  0.00    +0.000 OA
ATOM     25  N   UNL     1      -0.586  12.676  20.703  0.00  0.00    +0.000 N 
ATOM     26  C   UNL     1      -0.150  11.701  21.702  0.00  0.00    +0.000 C 
ATOM     27  C   UNL     1      -1.239  11.440  22.735  0.00  0.00    +0.000 C 
ATOM     28  O   UNL     1      -1.694  12.659  23.333  0.00  0.00    +0.000 OA
ATOM     29  C   UNL     1      -2.223  13.542  22.328  0.00  0.00    +0.000 C 
ATOM     30  C   UNL     1      -1.163  13.893  21.280  0.00  0.00    +0.000 C 
ENDBRANCH  19  23
ENDBRANCH   3  16
TORSDOF 3
ENDMDL
MODEL 7
REMARK VINA RESULT:      -8.2      1.928      3.249
REMARK  Name = 
REMARK  4 active torsions:
REMARK  status: ('A' for Active; 'I' for Inactive)
REMARK    1  A    between atoms: C_1  and  C_2
REMARK    2  A    between atoms: C_2  and  C_3
REMARK    3  A    between atoms: N_5  and  C_6
REMARK    4  A    between atoms: C_9  and  C_10
REMARK                            x       y       z     vdW  Elec       q    Type
REMARK                         _______ _______ _______ _____ _____    ______ ____
ROOT
ATOM      1  C   UNL     1       0.273  11.199  19.471  0.00  0.00    +0.000 C 
ATOM      2  O   UNL     1       1.324  11.612  19.978  0.00  0.00    +0.000 OA
ATOM      3  N   UNL     1       0.145   9.927  18.919  0.00  0.00    +0.000 N 
ATOM      4  H   UNL     1      -0.625   9.767  18.278  0.00  0.00    +0.000 HD
ENDROOT
BRANCH   1   6
ATOM      5  C   UNL     1      -0.471  13.462  18.750  0.00  0.00    +0.000 C 
ATOM      6  C   UNL     1      -0.954  12.135  19.396  0.00  0.00    +0.000 C 
ATOM      7  C   UNL     1      -2.028  11.493  18.482  0.00  0.00    +0.000 C 
ATOM      8  C   UNL     1      -3.330  12.286  18.519  0.00  0.00    +0.000 C 
ATOM      9  C   UNL     1      -3.917  12.253  19.927  0.00  0.00    +0.000 C 
ATOM     10  C   UNL     1      -2.905  12.544  21.009  0.00  0.00    +0.000 A 
ATOM     11  C   UNL     1      -3.373  12.866  22.295  0.00  0.00    +0.000 A 
ATOM     12  C   UNL     1      -2.487  13.135  23.334  0.00  0.00    +0.000 A 
ATOM     13  C   UNL     1      -1.116  13.091  23.108  0.00  0.00    +0.000 A 
ATOM     14  C   UNL     1      -0.634  12.759  21.841  0.00  0.00    +0.000 A 
ATOM     15  C   UNL     1      -1.515  12.465  20.783  0.00  0.00    +0.000 A 
ENDBRANCH   1   6
BRANCH   3  16
ATOM     16  C   UNL     1       1.201   8.987  18.940  0.00  0.00    +0.000 A 
ATOM     17  C   UNL     1       2.057   8.818  17.843  0.00  0.00    +0.000 A 
ATOM     18  C   UNL     1       2.946   7.746  17.774  0.00  0.00    +0.000 A 
ATOM     19  C   UNL     1       3.002   6.820  18.819  0.00  0.00    +0.000 A 
ATOM     20  C   UNL     1       2.193   7.036  19.938  0.00  0.00    +0.000 A 
ATOM     21  F   UNL     1       2.154   6.151  20.945  0.00  0.00    +0.000 F 
ATOM     22  C   UNL     1       1.348   8.148  20.038  0.00  0.00    +0.000 A 
BRANCH  19  23
ATOM     23  C   UNL     1       3.848   5.616  18.616  0.00  0.00    +0.000 C 
ATOM     24  O   UNL     1       5.034   5.703  18.948  0.00  0.00    +0.000 OA
ATOM     25  N   UNL     1       3.308   4.438  18.116  0.00  0.00    +0.000 N 
ATOM     26  C   UNL     1       1.905   4.195  17.781  0.00  0.00    +0.000 C 
ATOM     27  C   UNL     1       1.431   2.851  18.323  0.00  0.00    +0.000 C 
ATOM     28  O   UNL     1       2.283   1.784  17.892  0.00  0.00    +0.000 OA
ATOM     29  C   UNL     1       3.630   2.006  18.343  0.00  0.00    +0.000 C 
ATOM     30  C   UNL     1       4.195   3.318  17.791  0.00  0.00    +0.000 C 
ENDBRANCH  19  23
ENDBRANCH   3  16
TORSDOF 3
ENDMDL
MODEL 8
REMARK VINA RESULT:      -8.2      2.550      9.085
REMARK  Name = 
REMARK  4 active torsions:
REMARK  status: ('A' for Active; 'I' for Inactive)
REMARK    1  A    between atoms: C_1  and  C_2
REMARK    2  A    between atoms: C_2  and  C_3
REMARK    3  A    between atoms: N_5  and  C_6
REMARK    4  A    between atoms: C_9  and  C_10
REMARK                            x       y       z     vdW  Elec       q    Type
REMARK                         _______ _______ _______ _____ _____    ______ ____
ROOT
ATOM      1  C   UNL     1       2.356   7.045  18.924  0.00  0.00    +0.000 C 
ATOM      2  O   UNL     1       2.219   7.441  20.089  0.00  0.00    +0.000 OA
ATOM      3  N   UNL     1       1.981   7.802  17.817  0.00  0.00    +0.000 N 
ATOM      4  H   UNL     1       1.849   7.315  16.937  0.00  0.00    +0.000 HD
ENDROOT
BRANCH   1   6
ATOM      5  C   UNL     1       3.385   5.071  20.035  0.00  0.00    +0.000 C 
ATOM      6  C   UNL     1       2.925   5.633  18.663  0.00  0.00    +0.000 C 
ATOM      7  C   UNL     1       1.799   4.728  18.102  0.00  0.00    +0.000 C 
ATOM      8  C   UNL     1       2.348   3.376  17.656  0.00  0.00    +0.000 C 
ATOM      9  C   UNL     1       3.330   3.572  16.505  0.00  0.00    +0.000 C 
ATOM     10  C   UNL     1       4.333   4.675  16.747  0.00  0.00    +0.000 A 
ATOM     11  C   UNL     1       5.474   4.734  15.929  0.00  0.00    +0.000 A 
ATOM     12  C   UNL     1       6.428   5.733  16.101  0.00  0.00    +0.000 A 
ATOM     13  C   UNL     1       6.262   6.690  17.094  0.00  0.00    +0.000 A 
ATOM     14  C   UNL     1       5.128   6.654  17.906  0.00  0.00    +0.000 A 
ATOM     15  C   UNL     1       4.143   5.663  17.735  0.00  0.00    +0.000 A 
ENDBRANCH   1   6
BRANCH   3  16
ATOM     16  C   UNL     1       1.456   9.110  17.940  0.00  0.00    +0.000 A 
ATOM     17  C   UNL     1       2.291  10.226  18.082  0.00  0.00    +0.000 A 
ATOM     18  C   UNL     1       1.779  11.477  18.428  0.00  0.00    +0.000 A 
ATOM     19  C   UNL     1       0.405  11.634  18.629  0.00  0.00    +0.000 A 
ATOM     20  C   UNL     1      -0.424  10.530  18.418  0.00  0.00    +0.000 A 
ATOM     21  F   UNL     1      -1.743  10.599  18.656  0.00  0.00    +0.000 F 
ATOM     22  C   UNL     1       0.080   9.291  18.007  0.00  0.00    +0.000 A 
BRANCH  19  23
ATOM     23  C   UNL     1      -0.059  12.945  19.152  0.00  0.00    +0.000 C 
ATOM     24  O   UNL     1      -0.395  13.792  18.319  0.00  0.00    +0.000 OA
ATOM     25  N   UNL     1      -0.149  13.179  20.518  0.00  0.00    +0.000 N 
ATOM     26  C   UNL     1       0.130  12.221  21.588  0.00  0.00    +0.000 C 
ATOM     27  C   UNL     1      -0.955  12.253  22.658  0.00  0.00    +0.000 C 
ATOM     28  O   UNL     1      -1.154  13.580  23.158  0.00  0.00    +0.000 OA
ATOM     29  C   UNL     1      -1.542  14.464  22.092  0.00  0.00    +0.000 C 
ATOM     30  C   UNL     1      -0.470  14.525  21.000  0.00  0.00    +0.000 C 
ENDBRANCH  19  23
ENDBRANCH   3  16
TORSDOF 3
ENDMDL
MODEL 9
REMARK VINA RESULT:      -8.0      2.145      3.669
REMARK  Name = 
REMARK  4 active torsions:
REMARK  status: ('A' for Active; 'I' for Inactive)
REMARK    1  A    between atoms: C_1  and  C_2
REMARK    2  A    between atoms: C_2  and  C_3
REMARK    3  A    between atoms: N_5  and  C_6
REMARK    4  A    between atoms: C_9  and  C_10
REMARK                            x       y       z     vdW  Elec       q    Type
REMARK                         _______ _______ _______ _____ _____    ______ ____
ROOT
ATOM      1  C   UNL     1       0.073  10.989  19.689  0.00  0.00    +0.000 C 
ATOM      2  O   UNL     1      -0.787  10.412  19.011  0.00  0.00    +0.000 OA
ATOM      3  N   UNL     1       1.293  10.408  20.022  0.00  0.00    +0.000 N 
ATOM      4  H   UNL     1       1.808  10.807  20.800  0.00  0.00    +0.000 HD
ENDROOT
BRANCH   1   6
ATOM      5  C   UNL     1       1.118  12.946  20.816  0.00  0.00    +0.000 C 
ATOM      6  C   UNL     1      -0.217  12.403  20.238  0.00  0.00    +0.000 C 
ATOM      7  C   UNL     1      -0.669  13.319  19.072  0.00  0.00    +0.000 C 
ATOM      8  C   UNL     1      -1.142  14.675  19.587  0.00  0.00    +0.000 C 
ATOM      9  C   UNL     1      -2.375  14.493  20.466  0.00  0.00    +0.000 C 
ATOM     10  C   UNL     1      -2.233  13.385  21.482  0.00  0.00    +0.000 A 
ATOM     11  C   UNL     1      -3.146  13.334  22.549  0.00  0.00    +0.000 A 
ATOM     12  C   UNL     1      -3.069  12.330  23.511  0.00  0.00    +0.000 A 
ATOM     13  C   UNL     1      -2.078  11.360  23.427  0.00  0.00    +0.000 A 
ATOM     14  C   UNL     1      -1.173  11.388  22.366  0.00  0.00    +0.000 A 
ATOM     15  C   UNL     1      -1.246  12.384  21.374  0.00  0.00    +0.000 A 
ENDBRANCH   1   6
BRANCH   3  16
ATOM     16  C   UNL     1       1.665   9.122  19.566  0.00  0.00    +0.000 A 
ATOM     17  C   UNL     1       1.626   8.004  20.410  0.00  0.00    +0.000 A 
ATOM     18  C   UNL     1       2.202   6.790  20.034  0.00  0.00    +0.000 A 
ATOM     19  C   UNL     1       2.824   6.672  18.788  0.00  0.00    +0.000 A 
ATOM     20  C   UNL     1       2.796   7.773  17.929  0.00  0.00    +0.000 A 
ATOM     21  F   UNL     1       3.430   7.743  16.746  0.00  0.00    +0.000 F 
ATOM     22  C   UNL     1       2.162   8.970  18.277  0.00  0.00    +0.000 A 
BRANCH  19  23
ATOM     23  C   UNL     1       3.557   5.410  18.512  0.00  0.00    +0.000 C 
ATOM     24  O   UNL     1       4.786   5.442  18.619  0.00  0.00    +0.000 OA
ATOM     25  N   UNL     1       2.876   4.241  18.194  0.00  0.00    +0.000 N 
ATOM     26  C   UNL     1       1.425   4.066  18.134  0.00  0.00    +0.000 C 
ATOM     27  C   UNL     1       0.992   2.785  18.838  0.00  0.00    +0.000 C 
ATOM     28  O   UNL     1       1.696   1.647  18.329  0.00  0.00    +0.000 OA
ATOM     29  C   UNL     1       3.112   1.810  18.515  0.00  0.00    +0.000 C 
ATOM     30  C   UNL     1       3.631   3.054  17.787  0.00  0.00    +0.000 C 
ENDBRANCH  19  23
ENDBRANCH   3  16
TORSDOF 3
ENDMDL
