MODEL 1
REMARK VINA RESULT:      -8.3      0.000      0.000
REMARK  Name = 
REMARK  4 active torsions:
REMARK  status: ('A' for Active; 'I' for Inactive)
REMARK    1  A    between atoms: C_1  and  O_2
REMARK    2  A    between atoms: O_2  and  C_3
REMARK    3  A    between atoms: C_9  and  N_10
REMARK    4  A    between atoms: C_16  and  C_17
REMARK                            x       y       z     vdW  Elec       q    Type
REMARK                         _______ _______ _______ _____ _____    ______ ____
ROOT
ATOM      1  N   UNL     1       0.239  12.460  19.158  0.00  0.00    +0.000 N 
ATOM      2  C   UNL     1       0.708  11.519  20.045  0.00  0.00    +0.000 C 
ATOM      3  O   UNL     1       1.128  11.787  21.170  0.00  0.00    +0.000 OA
ATOM      4  N   UNL     1       0.629  10.199  19.617  0.00  0.00    +0.000 N 
ATOM      5  C   UNL     1       0.961   9.164  20.594  0.00  0.00    +0.000 C 
ATOM      6  C   UNL     1       1.817   8.098  19.983  0.00  0.00    +0.000 C 
ATOM      7  C   UNL     1       2.126   8.003  18.676  0.00  0.00    +0.000 C 
ATOM      8  C   UNL     1       1.543   8.993  17.693  0.00  0.00    +0.000 C 
ATOM      9  C   UNL     1       0.315   9.694  18.278  0.00  0.00    +0.000 C 
ATOM     10  H   UNL     1      -0.173  12.114  18.320  0.00  0.00    +0.000 HD
ENDROOT
BRANCH   7  11
ATOM     11  C   UNL     1       2.952   6.975  18.113  0.00  0.00    +0.000 A 
ATOM     12  C   UNL     1       4.135   7.233  17.440  0.00  0.00    +0.000 A 
ATOM     13  N   UNL     1       4.670   6.042  17.037  0.00  0.00    +0.000 N 
ATOM     14  C   UNL     1       3.864   5.001  17.429  0.00  0.00    +0.000 A 
ATOM     15  C   UNL     1       4.023   3.623  17.232  0.00  0.00    +0.000 A 
ATOM     16  C   UNL     1       3.028   2.785  17.728  0.00  0.00    +0.000 A 
ATOM     17  F   UNL     1       3.149   1.461  17.560  0.00  0.00    +0.000 F 
ATOM     18  C   UNL     1       1.916   3.283  18.386  0.00  0.00    +0.000 A 
ATOM     19  C   UNL     1       1.770   4.663  18.571  0.00  0.00    +0.000 A 
ATOM     20  C   UNL     1       2.765   5.551  18.097  0.00  0.00    +0.000 A 
ATOM     21  H   UNL     1       5.533   5.937  16.522  0.00  0.00    +0.000 HD
ENDBRANCH   7  11
BRANCH   1  28
ATOM     22  C   UNL     1       1.104  14.743  18.855  0.00  0.00    +0.000 A 
ATOM     23  C   UNL     1       0.985  16.125  19.124  0.00  0.00    +0.000 A 
ATOM     24 CL   UNL     1       2.162  17.263  18.558  0.00  0.00    +0.000 Cl
ATOM     25  C   UNL     1      -0.092  16.632  19.855  0.00  0.00    +0.000 A 
ATOM     26  C   UNL     1      -1.062  15.766  20.336  0.00  0.00    +0.000 A 
ATOM     27  C   UNL     1      -0.954  14.398  20.085  0.00  0.00    +0.000 A 
ATOM     28  C   UNL     1       0.118  13.860  19.353  0.00  0.00    +0.000 A 
BRANCH  22  30
ATOM     29  C   UNL     1       3.412  14.072  18.992  0.00  0.00    +0.000 C 
ATOM     30  O   UNL     1       2.259  14.361  18.211  0.00  0.00    +0.000 OA
ENDBRANCH  22  30
ENDBRANCH   1  28
TORSDOF 3
ENDMDL
MODEL 2
REMARK VINA RESULT:      -8.2      1.282      1.948
REMARK  Name = 
REMARK  4 active torsions:
REMARK  status: ('A' for Active; 'I' for Inactive)
REMARK    1  A    between atoms: C_1  and  O_2
REMARK    2  A    between atoms: O_2  and  C_3
REMARK    3  A    between atoms: C_9  and  N_10
REMARK    4  A    between atoms: C_16  and  C_17
REMARK                            x       y       z     vdW  Elec       q    Type
REMARK                         _______ _______ _______ _____ _____    ______ ____
ROOT
ATOM      1  N   UNL     1       0.532  12.447  19.140  0.00  0.00    +0.000 N 
ATOM      2  C   UNL     1       0.908  11.466  20.026  0.00  0.00    +0.000 C 
ATOM      3  O   UNL     1       1.277  11.687  21.178  0.00  0.00    +0.000 OA
ATOM      4  N   UNL     1       0.792  10.160  19.561  0.00  0.00    +0.000 N 
ATOM      5  C   UNL     1       1.022   9.089  20.528  0.00  0.00    +0.000 C 
ATOM      6  C   UNL     1       1.860   7.998  19.937  0.00  0.00    +0.000 C 
ATOM      7  C   UNL     1       2.236   7.919  18.646  0.00  0.00    +0.000 C 
ATOM      8  C   UNL     1       1.755   8.957  17.659  0.00  0.00    +0.000 C 
ATOM      9  C   UNL     1       0.530   9.703  18.194  0.00  0.00    +0.000 C 
ATOM     10  H   UNL     1       0.151  12.141  18.271  0.00  0.00    +0.000 HD
ENDROOT
BRANCH   7  11
ATOM     11  C   UNL     1       3.044   6.866  18.103  0.00  0.00    +0.000 A 
ATOM     12  C   UNL     1       4.233   7.091  17.428  0.00  0.00    +0.000 A 
ATOM     13  N   UNL     1       4.747   5.883  17.046  0.00  0.00    +0.000 N 
ATOM     14  C   UNL     1       3.920   4.864  17.454  0.00  0.00    +0.000 A 
ATOM     15  C   UNL     1       4.054   3.480  17.281  0.00  0.00    +0.000 A 
ATOM     16  C   UNL     1       3.043   2.670  17.789  0.00  0.00    +0.000 A 
ATOM     17  F   UNL     1       3.139   1.340  17.644  0.00  0.00    +0.000 F 
ATOM     18  C   UNL     1       1.939   3.200  18.437  0.00  0.00    +0.000 A 
ATOM     19  C   UNL     1       1.819   4.585  18.598  0.00  0.00    +0.000 A 
ATOM     20  C   UNL     1       2.830   5.446  18.111  0.00  0.00    +0.000 A 
ATOM     21  H   UNL     1       5.608   5.753  16.534  0.00  0.00    +0.000 HD
ENDBRANCH   7  11
BRANCH   1  28
ATOM     22  C   UNL     1      -0.709  14.436  19.885  0.00  0.00    +0.000 A 
ATOM     23  C   UNL     1      -0.764  15.840  20.031  0.00  0.00    +0.000 A 
ATOM     24 CL   UNL     1      -2.175  16.632  20.651  0.00  0.00    +0.000 Cl
ATOM     25  C   UNL     1       0.321  16.649  19.687  0.00  0.00    +0.000 A 
ATOM     26  C   UNL     1       1.475  16.069  19.182  0.00  0.00    +0.000 A 
ATOM     27  C   UNL     1       1.542  14.685  19.024  0.00  0.00    +0.000 A 
ATOM     28  C   UNL     1       0.465  13.847  19.362  0.00  0.00    +0.000 A 
BRANCH  22  30
ATOM     29  C   UNL     1      -2.062  13.236  21.474  0.00  0.00    +0.000 C 
ATOM     30  O   UNL     1      -1.876  13.764  20.166  0.00  0.00    +0.000 OA
ENDBRANCH  22  30
ENDBRANCH   1  28
TORSDOF 3
ENDMDL
MODEL 3
REMARK VINA RESULT:      -8.1      1.777      2.649
REMARK  Name = 
REMARK  4 active torsions:
REMARK  status: ('A' for Active; 'I' for Inactive)
REMARK    1  A    between atoms: C_1  and  O_2
REMARK    2  A    between atoms: O_2  and  C_3
REMARK    3  A    between atoms: C_9  and  N_10
REMARK    4  A    between atoms: C_16  and  C_17
REMARK                            x       y       z     vdW  Elec       q    Type
REMARK                         _______ _______ _______ _____ _____    ______ ____
ROOT
ATOM      1  N   UNL     1       1.220  12.349  18.602  0.00  0.00    +0.000 N 
ATOM      2  C   UNL     1       1.281  11.496  19.678  0.00  0.00    +0.000 C 
ATOM      3  O   UNL     1       1.482  11.863  20.834  0.00  0.00    +0.000 OA
ATOM      4  N   UNL     1       1.038  10.156  19.396  0.00  0.00    +0.000 N 
ATOM      5  C   UNL     1       0.930   9.247  20.535  0.00  0.00    +0.000 C 
ATOM      6  C   UNL     1       1.670   7.971  20.281  0.00  0.00    +0.000 C 
ATOM      7  C   UNL     1       2.239   7.621  19.112  0.00  0.00    +0.000 C 
ATOM      8  C   UNL     1       2.102   8.527  17.910  0.00  0.00    +0.000 C 
ATOM      9  C   UNL     1       0.939   9.506  18.086  0.00  0.00    +0.000 C 
ATOM     10  H   UNL     1       0.947  11.950  17.731  0.00  0.00    +0.000 HD
ENDROOT
BRANCH   7  11
ATOM     11  C   UNL     1       2.949   6.394  18.894  0.00  0.00    +0.000 A 
ATOM     12  C   UNL     1       2.815   5.283  19.710  0.00  0.00    +0.000 A 
ATOM     13  N   UNL     1       3.623   4.293  19.225  0.00  0.00    +0.000 N 
ATOM     14  C   UNL     1       4.289   4.727  18.104  0.00  0.00    +0.000 A 
ATOM     15  C   UNL     1       5.207   4.052  17.291  0.00  0.00    +0.000 A 
ATOM     16  C   UNL     1       5.747   4.751  16.216  0.00  0.00    +0.000 A 
ATOM     17  F   UNL     1       6.628   4.134  15.414  0.00  0.00    +0.000 F 
ATOM     18  C   UNL     1       5.402   6.066  15.953  0.00  0.00    +0.000 A 
ATOM     19  C   UNL     1       4.485   6.728  16.778  0.00  0.00    +0.000 A 
ATOM     20  C   UNL     1       3.900   6.052  17.874  0.00  0.00    +0.000 A 
ATOM     21  H   UNL     1       3.722   3.372  19.630  0.00  0.00    +0.000 HD
ENDBRANCH   7  11
BRANCH   1  28
ATOM     22  C   UNL     1       0.222  14.580  18.882  0.00  0.00    +0.000 A 
ATOM     23  C   UNL     1       0.362  15.984  18.807  0.00  0.00    +0.000 A 
ATOM     24 CL   UNL     1      -0.968  17.046  19.126  0.00  0.00    +0.000 Cl
ATOM     25  C   UNL     1       1.584  16.575  18.475  0.00  0.00    +0.000 A 
ATOM     26  C   UNL     1       2.682  15.772  18.206  0.00  0.00    +0.000 A 
ATOM     27  C   UNL     1       2.558  14.384  18.269  0.00  0.00    +0.000 A 
ATOM     28  C   UNL     1       1.341  13.763  18.600  0.00  0.00    +0.000 A 
BRANCH  22  30
ATOM     29  C   UNL     1      -1.450  13.874  20.465  0.00  0.00    +0.000 C 
ATOM     30  O   UNL     1      -1.054  14.124  19.121  0.00  0.00    +0.000 OA
ENDBRANCH  22  30
ENDBRANCH   1  28
TORSDOF 3
ENDMDL
MODEL 4
REMARK VINA RESULT:      -7.6      4.844      9.158
REMARK  Name = 
REMARK  4 active torsions:
REMARK  status: ('A' for Active; 'I' for Inactive)
REMARK    1  A    between atoms: C_1  and  O_2
REMARK    2  A    between atoms: O_2  and  C_3
REMARK    3  A    between atoms: C_9  and  N_10
REMARK    4  A    between atoms: C_16  and  C_17
REMARK                            x       y       z     vdW  Elec       q    Type
REMARK                         _______ _______ _______ _____ _____    ______ ____
ROOT
ATOM      1  N   UNL     1       2.725   6.744  18.140  0.00  0.00    +0.000 N 
ATOM      2  C   UNL     1       2.193   7.075  19.364  0.00  0.00    +0.000 C 
ATOM      3  O   UNL     1       2.065   6.281  20.294  0.00  0.00    +0.000 OA
ATOM      4  N   UNL     1       1.849   8.413  19.526  0.00  0.00    +0.000 N 
ATOM      5  C   UNL     1       1.438   8.835  20.863  0.00  0.00    +0.000 C 
ATOM      6  C   UNL     1       0.239   9.730  20.804  0.00  0.00    +0.000 C 
ATOM      7  C   UNL     1      -0.311  10.218  19.677  0.00  0.00    +0.000 C 
ATOM      8  C   UNL     1       0.324   9.915  18.339  0.00  0.00    +0.000 C 
ATOM      9  C   UNL     1       1.776   9.463  18.506  0.00  0.00    +0.000 C 
ATOM     10  H   UNL     1       2.877   7.494  17.502  0.00  0.00    +0.000 HD
ENDROOT
BRANCH   7  11
ATOM     11  C   UNL     1      -1.464  11.072  19.644  0.00  0.00    +0.000 A 
ATOM     12  C   UNL     1      -1.689  12.081  20.565  0.00  0.00    +0.000 A 
ATOM     13  N   UNL     1      -2.867  12.698  20.249  0.00  0.00    +0.000 N 
ATOM     14  C   UNL     1      -3.426  12.116  19.137  0.00  0.00    +0.000 A 
ATOM     15  C   UNL     1      -4.617  12.424  18.469  0.00  0.00    +0.000 A 
ATOM     16  C   UNL     1      -4.953  11.648  17.364  0.00  0.00    +0.000 A 
ATOM     17  F   UNL     1      -6.086  11.917  16.699  0.00  0.00    +0.000 F 
ATOM     18  C   UNL     1      -4.151  10.603  16.936  0.00  0.00    +0.000 A 
ATOM     19  C   UNL     1      -2.965  10.305  17.617  0.00  0.00    +0.000 A 
ATOM     20  C   UNL     1      -2.577  11.078  18.736  0.00  0.00    +0.000 A 
ATOM     21  H   UNL     1      -3.274  13.470  20.758  0.00  0.00    +0.000 HD
ENDBRANCH   7  11
BRANCH   1  28
ATOM     22  C   UNL     1       4.429   5.417  16.961  0.00  0.00    +0.000 A 
ATOM     23  C   UNL     1       4.876   4.157  16.506  0.00  0.00    +0.000 A 
ATOM     24 CL   UNL     1       6.317   3.994  15.559  0.00  0.00    +0.000 Cl
ATOM     25  C   UNL     1       4.175   2.986  16.806  0.00  0.00    +0.000 A 
ATOM     26  C   UNL     1       3.012   3.058  17.559  0.00  0.00    +0.000 A 
ATOM     27  C   UNL     1       2.554   4.296  18.009  0.00  0.00    +0.000 A 
ATOM     28  C   UNL     1       3.239   5.489  17.722  0.00  0.00    +0.000 A 
BRANCH  22  30
ATOM     29  C   UNL     1       6.226   6.979  17.316  0.00  0.00    +0.000 C 
ATOM     30  O   UNL     1       5.152   6.499  16.516  0.00  0.00    +0.000 OA
ENDBRANCH  22  30
ENDBRANCH   1  28
TORSDOF 3
ENDMDL
MODEL 5
REMARK VINA RESULT:      -7.5      5.084      9.514
REMARK  Name = 
REMARK  4 active torsions:
REMARK  status: ('A' for Active; 'I' for Inactive)
REMARK    1  A    between atoms: C_1  and  O_2
REMARK    2  A    between atoms: O_2  and  C_3
REMARK    3  A    between atoms: C_9  and  N_10
REMARK    4  A    between atoms: C_16  and  C_17
REMARK                            x       y       z     vdW  Elec       q    Type
REMARK                         _______ _______ _______ _____ _____    ______ ____
ROOT
ATOM      1  N   UNL     1       2.594   6.849  18.156  0.00  0.00    +0.000 N 
ATOM      2  C   UNL     1       2.098   7.245  19.376  0.00  0.00    +0.000 C 
ATOM      3  O   UNL     1       2.003   6.503  20.351  0.00  0.00    +0.000 OA
ATOM      4  N   UNL     1       1.749   8.588  19.474  0.00  0.00    +0.000 N 
ATOM      5  C   UNL     1       1.377   9.081  20.799  0.00  0.00    +0.000 C 
ATOM      6  C   UNL     1       0.172   9.966  20.727  0.00  0.00    +0.000 C 
ATOM      7  C   UNL     1      -0.416  10.389  19.592  0.00  0.00    +0.000 C 
ATOM      8  C   UNL     1       0.180  10.016  18.254  0.00  0.00    +0.000 C 
ATOM      9  C   UNL     1       1.639   9.580  18.402  0.00  0.00    +0.000 C 
ATOM     10  H   UNL     1       2.722   7.564  17.473  0.00  0.00    +0.000 HD
ENDROOT
BRANCH   7  11
ATOM     11  C   UNL     1      -1.574  11.234  19.548  0.00  0.00    +0.000 A 
ATOM     12  C   UNL     1      -2.316  11.447  18.398  0.00  0.00    +0.000 A 
ATOM     13  N   UNL     1      -3.344  12.296  18.700  0.00  0.00    +0.000 N 
ATOM     14  C   UNL     1      -3.296  12.650  20.027  0.00  0.00    +0.000 A 
ATOM     15  C   UNL     1      -4.143  13.490  20.760  0.00  0.00    +0.000 A 
ATOM     16  C   UNL     1      -3.844  13.686  22.105  0.00  0.00    +0.000 A 
ATOM     17  F   UNL     1      -4.635  14.483  22.839  0.00  0.00    +0.000 F 
ATOM     18  C   UNL     1      -2.750  13.085  22.705  0.00  0.00    +0.000 A 
ATOM     19  C   UNL     1      -1.910  12.251  21.956  0.00  0.00    +0.000 A 
ATOM     20  C   UNL     1      -2.185  12.011  20.590  0.00  0.00    +0.000 A 
ATOM     21  H   UNL     1      -4.041  12.623  18.044  0.00  0.00    +0.000 HD
ENDBRANCH   7  11
BRANCH   1  28
ATOM     22  C   UNL     1       4.310   5.466  17.063  0.00  0.00    +0.000 A 
ATOM     23  C   UNL     1       4.752   4.186  16.660  0.00  0.00    +0.000 A 
ATOM     24 CL   UNL     1       6.214   3.976  15.755  0.00  0.00    +0.000 Cl
ATOM     25  C   UNL     1       4.030   3.034  16.981  0.00  0.00    +0.000 A 
ATOM     26  C   UNL     1       2.851   3.143  17.702  0.00  0.00    +0.000 A 
ATOM     27  C   UNL     1       2.396   4.400  18.100  0.00  0.00    +0.000 A 
ATOM     28  C   UNL     1       3.103   5.576  17.791  0.00  0.00    +0.000 A 
BRANCH  22  30
ATOM     29  C   UNL     1       6.180   6.952  17.363  0.00  0.00    +0.000 C 
ATOM     30  O   UNL     1       5.057   6.524  16.601  0.00  0.00    +0.000 OA
ENDBRANCH  22  30
ENDBRANCH   1  28
TORSDOF 3
ENDMDL
MODEL 6
REMARK VINA RESULT:      -7.5      2.887      4.033
REMARK  Name = 
REMARK  4 active torsions:
REMARK  status: ('A' for Active; 'I' for Inactive)
REMARK    1  A    between atoms: C_1  and  O_2
REMARK    2  A    between atoms: O_2  and  C_3
REMARK    3  A    between atoms: C_9  and  N_10
REMARK    4  A    between atoms: C_16  and  C_17
REMARK                            x       y       z     vdW  Elec       q    Type
REMARK                         _______ _______ _______ _____ _____    ______ ____
ROOT
ATOM      1  N   UNL     1       0.798   9.294  20.107  0.00  0.00    +0.000 N 
ATOM      2  C   UNL     1       1.513   8.175  20.468  0.00  0.00    +0.000 C 
ATOM      3  O   UNL     1       1.729   7.846  21.633  0.00  0.00    +0.000 OA
ATOM      4  N   UNL     1       1.944   7.374  19.416  0.00  0.00    +0.000 N 
ATOM      5  C   UNL     1       2.559   6.095  19.766  0.00  0.00    +0.000 C 
ATOM      6  C   UNL     1       3.781   5.839  18.940  0.00  0.00    +0.000 C 
ATOM      7  C   UNL     1       4.193   6.595  17.904  0.00  0.00    +0.000 C 
ATOM      8  C   UNL     1       3.362   7.778  17.462  0.00  0.00    +0.000 C 
ATOM      9  C   UNL     1       1.926   7.670  17.981  0.00  0.00    +0.000 C 
ATOM     10  H   UNL     1       0.597   9.400  19.137  0.00  0.00    +0.000 HD
ENDROOT
BRANCH   7  11
ATOM     11  C   UNL     1       5.371   6.333  17.129  0.00  0.00    +0.000 A 
ATOM     12  C   UNL     1       6.604   6.900  17.405  0.00  0.00    +0.000 A 
ATOM     13  N   UNL     1       7.504   6.443  16.484  0.00  0.00    +0.000 N 
ATOM     14  C   UNL     1       6.890   5.586  15.602  0.00  0.00    +0.000 A 
ATOM     15  C   UNL     1       7.424   4.891  14.510  0.00  0.00    +0.000 A 
ATOM     16  C   UNL     1       6.556   4.095  13.769  0.00  0.00    +0.000 A 
ATOM     17  F   UNL     1       7.034   3.414  12.718  0.00  0.00    +0.000 F 
ATOM     18  C   UNL     1       5.212   3.990  14.087  0.00  0.00    +0.000 A 
ATOM     19  C   UNL     1       4.693   4.694  15.179  0.00  0.00    +0.000 A 
ATOM     20  C   UNL     1       5.542   5.504  15.970  0.00  0.00    +0.000 A 
ATOM     21  H   UNL     1       8.481   6.698  16.448  0.00  0.00    +0.000 HD
ENDBRANCH   7  11
BRANCH   1  28
ATOM     22  C   UNL     1       0.048  11.592  20.563  0.00  0.00    +0.000 A 
ATOM     23  C   UNL     1      -0.526  12.518  21.462  0.00  0.00    +0.000 A 
ATOM     24 CL   UNL     1      -0.692  14.193  21.054  0.00  0.00    +0.000 Cl
ATOM     25  C   UNL     1      -0.989  12.120  22.719  0.00  0.00    +0.000 A 
ATOM     26  C   UNL     1      -0.878  10.792  23.099  0.00  0.00    +0.000 A 
ATOM     27  C   UNL     1      -0.306   9.866  22.227  0.00  0.00    +0.000 A 
ATOM     28  C   UNL     1       0.168  10.239  20.957  0.00  0.00    +0.000 A 
BRANCH  22  30
ATOM     29  C   UNL     1       1.895  12.599  19.393  0.00  0.00    +0.000 C 
ATOM     30  O   UNL     1       0.553  12.128  19.401  0.00  0.00    +0.000 OA
ENDBRANCH  22  30
ENDBRANCH   1  28
TORSDOF 3
ENDMDL
MODEL 7
REMARK VINA RESULT:      -7.5      1.186      1.207
REMARK  Name = 
REMARK  4 active torsions:
REMARK  status: ('A' for Active; 'I' for Inactive)
REMARK    1  A    between atoms: C_1  and  O_2
REMARK    2  A    between atoms: O_2  and  C_3
REMARK    3  A    between atoms: C_9  and  N_10
REMARK    4  A    between atoms: C_16  and  C_17
REMARK                            x       y       z     vdW  Elec       q    Type
REMARK                         _______ _______ _______ _____ _____    ______ ____
ROOT
ATOM      1  N   UNL     1       0.730  12.839  18.962  0.00  0.00    +0.000 N 
ATOM      2  C   UNL     1       0.896  11.887  19.941  0.00  0.00    +0.000 C 
ATOM      3  O   UNL     1       1.110  12.150  21.123  0.00  0.00    +0.000 OA
ATOM      4  N   UNL     1       0.747  10.568  19.528  0.00  0.00    +0.000 N 
ATOM      5  C   UNL     1       0.751   9.542  20.568  0.00  0.00    +0.000 C 
ATOM      6  C   UNL     1       1.579   8.363  20.162  0.00  0.00    +0.000 C 
ATOM      7  C   UNL     1       2.130   8.181  18.947  0.00  0.00    +0.000 C 
ATOM      8  C   UNL     1       1.879   9.190  17.850  0.00  0.00    +0.000 C 
ATOM      9  C   UNL     1       0.651  10.050  18.161  0.00  0.00    +0.000 C 
ATOM     10  H   UNL     1       0.457  12.509  18.063  0.00  0.00    +0.000 HD
ENDROOT
BRANCH   7  11
ATOM     11  C   UNL     1       2.924   7.044  18.581  0.00  0.00    +0.000 A 
ATOM     12  C   UNL     1       3.808   7.045  17.515  0.00  0.00    +0.000 A 
ATOM     13  N   UNL     1       4.399   5.815  17.444  0.00  0.00    +0.000 N 
ATOM     14  C   UNL     1       3.922   4.999  18.442  0.00  0.00    +0.000 A 
ATOM     15  C   UNL     1       4.247   3.671  18.744  0.00  0.00    +0.000 A 
ATOM     16  C   UNL     1       3.588   3.076  19.816  0.00  0.00    +0.000 A 
ATOM     17  F   UNL     1       3.876   1.806  20.134  0.00  0.00    +0.000 F 
ATOM     18  C   UNL     1       2.640   3.760  20.559  0.00  0.00    +0.000 A 
ATOM     19  C   UNL     1       2.323   5.086  20.241  0.00  0.00    +0.000 A 
ATOM     20  C   UNL     1       2.980   5.735  19.170  0.00  0.00    +0.000 A 
ATOM     21  H   UNL     1       5.087   5.538  16.757  0.00  0.00    +0.000 HD
ENDBRANCH   7  11
BRANCH   1  28
ATOM     22  C   UNL     1       1.958  14.945  19.290  0.00  0.00    +0.000 A 
ATOM     23  C   UNL     1       1.924  16.343  19.495  0.00  0.00    +0.000 A 
ATOM     24 CL   UNL     1       3.374  17.258  19.742  0.00  0.00    +0.000 Cl
ATOM     25  C   UNL     1       0.718  17.047  19.502  0.00  0.00    +0.000 A 
ATOM     26  C   UNL     1      -0.474  16.365  19.312  0.00  0.00    +0.000 A 
ATOM     27  C   UNL     1      -0.459  14.984  19.117  0.00  0.00    +0.000 A 
ATOM     28  C   UNL     1       0.741  14.250  19.105  0.00  0.00    +0.000 A 
BRANCH  22  30
ATOM     29  C   UNL     1       3.996  14.217  18.236  0.00  0.00    +0.000 C 
ATOM     30  O   UNL     1       3.197  14.359  19.404  0.00  0.00    +0.000 OA
ENDBRANCH  22  30
ENDBRANCH   1  28
TORSDOF 3
ENDMDL
MODEL 8
REMARK VINA RESULT:      -7.5      1.629      2.104
REMARK  Name = 
REMARK  4 active torsions:
REMARK  status: ('A' for Active; 'I' for Inactive)
REMARK    1  A    between atoms: C_1  and  O_2
REMARK    2  A    between atoms: O_2  and  C_3
REMARK    3  A    between atoms: C_9  and  N_10
REMARK    4  A    between atoms: C_16  and  C_17
REMARK                            x       y       z     vdW  Elec       q    Type
REMARK                         _______ _______ _______ _____ _____    ______ ____
ROOT
ATOM      1  N   UNL     1       0.826  12.506  18.951  0.00  0.00    +0.000 N 
ATOM      2  C   UNL     1       0.954  11.631  20.005  0.00  0.00    +0.000 C 
ATOM      3  O   UNL     1       1.162  11.981  21.165  0.00  0.00    +0.000 OA
ATOM      4  N   UNL     1       0.773  10.288  19.694  0.00  0.00    +0.000 N 
ATOM      5  C   UNL     1       0.737   9.348  20.813  0.00  0.00    +0.000 C 
ATOM      6  C   UNL     1       1.536   8.118  20.512  0.00  0.00    +0.000 C 
ATOM      7  C   UNL     1       2.096   7.826  19.323  0.00  0.00    +0.000 C 
ATOM      8  C   UNL     1       1.886   8.751  18.147  0.00  0.00    +0.000 C 
ATOM      9  C   UNL     1       0.679   9.665  18.371  0.00  0.00    +0.000 C 
ATOM     10  H   UNL     1       0.554  12.113  18.077  0.00  0.00    +0.000 HD
ENDROOT
BRANCH   7  11
ATOM     11  C   UNL     1       2.862   6.642  19.059  0.00  0.00    +0.000 A 
ATOM     12  C   UNL     1       2.830   5.520  19.871  0.00  0.00    +0.000 A 
ATOM     13  N   UNL     1       3.668   4.580  19.338  0.00  0.00    +0.000 N 
ATOM     14  C   UNL     1       4.254   5.059  18.191  0.00  0.00    +0.000 A 
ATOM     15  C   UNL     1       5.169   4.442  17.329  0.00  0.00    +0.000 A 
ATOM     16  C   UNL     1       5.616   5.178  16.235  0.00  0.00    +0.000 A 
ATOM     17  F   UNL     1       6.491   4.618  15.387  0.00  0.00    +0.000 F 
ATOM     18  C   UNL     1       5.185   6.474  16.002  0.00  0.00    +0.000 A 
ATOM     19  C   UNL     1       4.274   7.077  16.876  0.00  0.00    +0.000 A 
ATOM     20  C   UNL     1       3.780   6.361  17.992  0.00  0.00    +0.000 A 
ATOM     21  H   UNL     1       3.839   3.664  19.729  0.00  0.00    +0.000 HD
ENDBRANCH   7  11
BRANCH   1  28
ATOM     22  C   UNL     1       2.110  14.598  19.109  0.00  0.00    +0.000 A 
ATOM     23  C   UNL     1       2.115  16.008  19.203  0.00  0.00    +0.000 A 
ATOM     24 CL   UNL     1       3.589  16.901  19.373  0.00  0.00    +0.000 Cl
ATOM     25  C   UNL     1       0.927  16.742  19.157  0.00  0.00    +0.000 A 
ATOM     26  C   UNL     1      -0.283  16.079  19.025  0.00  0.00    +0.000 A 
ATOM     27  C   UNL     1      -0.305  14.687  18.940  0.00  0.00    +0.000 A 
ATOM     28  C   UNL     1       0.874  13.923  18.982  0.00  0.00    +0.000 A 
BRANCH  22  30
ATOM     29  C   UNL     1       4.160  13.812  18.121  0.00  0.00    +0.000 C 
ATOM     30  O   UNL     1       3.334  13.990  19.266  0.00  0.00    +0.000 OA
ENDBRANCH  22  30
ENDBRANCH   1  28
TORSDOF 3
ENDMDL
MODEL 9
REMARK VINA RESULT:      -7.4      2.543      3.395
REMARK  Name = 
REMARK  4 active torsions:
REMARK  status: ('A' for Active; 'I' for Inactive)
REMARK    1  A    between atoms: C_1  and  O_2
REMARK    2  A    between atoms: O_2  and  C_3
REMARK    3  A    between atoms: C_9  and  N_10
REMARK    4  A    between atoms: C_16  and  C_17
REMARK                            x       y       z     vdW  Elec       q    Type
REMARK                         _______ _______ _______ _____ _____    ______ ____
ROOT
ATOM      1  N   UNL     1       0.933  10.107  20.287  0.00  0.00    +0.000 N 
ATOM      2  C   UNL     1       1.204   8.899  20.884  0.00  0.00    +0.000 C 
ATOM      3  O   UNL     1       1.140   8.704  22.097  0.00  0.00    +0.000 OA
ATOM      4  N   UNL     1       1.509   7.856  20.017  0.00  0.00    +0.000 N 
ATOM      5  C   UNL     1       1.639   6.523  20.602  0.00  0.00    +0.000 C 
ATOM      6  C   UNL     1       2.825   5.800  20.043  0.00  0.00    +0.000 C 
ATOM      7  C   UNL     1       3.594   6.236  19.027  0.00  0.00    +0.000 C 
ATOM      8  C   UNL     1       3.244   7.526  18.321  0.00  0.00    +0.000 C 
ATOM      9  C   UNL     1       1.788   7.920  18.580  0.00  0.00    +0.000 C 
ATOM     10  H   UNL     1       0.914  10.118  19.291  0.00  0.00    +0.000 HD
ENDROOT
BRANCH   7  11
ATOM     11  C   UNL     1       4.729   5.528  18.510  0.00  0.00    +0.000 A 
ATOM     12  C   UNL     1       5.569   4.759  19.299  0.00  0.00    +0.000 A 
ATOM     13  N   UNL     1       6.541   4.225  18.500  0.00  0.00    +0.000 N 
ATOM     14  C   UNL     1       6.361   4.627  17.199  0.00  0.00    +0.000 A 
ATOM     15  C   UNL     1       7.113   4.323  16.057  0.00  0.00    +0.000 A 
ATOM     16  C   UNL     1       6.707   4.890  14.852  0.00  0.00    +0.000 A 
ATOM     17  F   UNL     1       7.402   4.619  13.738  0.00  0.00    +0.000 F 
ATOM     18  C   UNL     1       5.608   5.730  14.774  0.00  0.00    +0.000 A 
ATOM     19  C   UNL     1       4.870   6.027  15.926  0.00  0.00    +0.000 A 
ATOM     20  C   UNL     1       5.237   5.460  17.169  0.00  0.00    +0.000 A 
ATOM     21  H   UNL     1       7.289   3.623  18.817  0.00  0.00    +0.000 HD
ENDBRANCH   7  11
BRANCH   1  28
ATOM     22  C   UNL     1       1.173  12.533  20.624  0.00  0.00    +0.000 A 
ATOM     23  C   UNL     1       0.773  13.702  21.308  0.00  0.00    +0.000 A 
ATOM     24 CL   UNL     1       1.543  15.227  21.024  0.00  0.00    +0.000 Cl
ATOM     25  C   UNL     1      -0.267  13.677  22.241  0.00  0.00    +0.000 A 
ATOM     26  C   UNL     1      -0.917  12.483  22.510  0.00  0.00    +0.000 A 
ATOM     27  C   UNL     1      -0.528  11.318  21.849  0.00  0.00    +0.000 A 
ATOM     28  C   UNL     1       0.514  11.314  20.906  0.00  0.00    +0.000 A 
BRANCH  22  30
ATOM     29  C   UNL     1       2.065  12.885  18.415  0.00  0.00    +0.000 C 
ATOM     30  O   UNL     1       2.272  12.670  19.807  0.00  0.00    +0.000 OA
ENDBRANCH  22  30
ENDBRANCH   1  28
TORSDOF 3
ENDMDL
