MODEL 1
REMARK VINA RESULT:      -7.9      0.000      0.000
REMARK  Name = 
REMARK  4 active torsions:
REMARK  status: ('A' for Active; 'I' for Inactive)
REMARK    1  A    between atoms: C_2  and  C_21
REMARK    2  A    between atoms: N_3  and  C_4
REMARK    3  A    between atoms: C_8  and  N_9
REMARK    4  A    between atoms: C_10  and  C_12
REMARK                            x       y       z     vdW  Elec       q    Type
REMARK                         _______ _______ _______ _____ _____    ______ ____
ROOT
ATOM      1  C   UNL     1      -0.488  11.137  18.715  0.00  0.00    +0.000 A 
ATOM      2  C   UNL     1       0.346  12.248  18.870  0.00  0.00    +0.000 A 
ATOM      3  C   UNL     1       1.698  12.180  18.567  0.00  0.00    +0.000 A 
ATOM      4  C   UNL     1       2.251  10.979  18.148  0.00  0.00    +0.000 A 
ATOM      5  C   UNL     1       1.473   9.823  18.058  0.00  0.00    +0.000 A 
ATOM      6  C   UNL     1       0.089   9.913  18.316  0.00  0.00    +0.000 A 
ENDROOT
BRANCH   1   9
ATOM      7  O   UNL     1      -2.647  11.521  16.777  0.00  0.00    +0.000 OA
ATOM      8  C   UNL     1      -2.847  11.444  17.987  0.00  0.00    +0.000 C 
ATOM      9  N   UNL     1      -1.887  11.215  18.967  0.00  0.00    +0.000 N 
ATOM     10  H   UNL     1      -2.202  10.953  19.891  0.00  0.00    +0.000 HD
BRANCH   8  11
ATOM     11  C   UNL     1      -4.262  11.550  18.416  0.00  0.00    +0.000 A 
ATOM     12  C   UNL     1      -4.528  12.339  19.541  0.00  0.00    +0.000 A 
ATOM     13  C   UNL     1      -5.820  12.385  20.019  0.00  0.00    +0.000 A 
ATOM     14  N   UNL     1      -6.840  11.702  19.458  0.00  0.00    +0.000 NA
ATOM     15  C   UNL     1      -6.551  10.929  18.387  0.00  0.00    +0.000 A 
ATOM     16  C   UNL     1      -5.288  10.818  17.827  0.00  0.00    +0.000 A 
ENDBRANCH   8  11
ENDBRANCH   1   9
BRANCH   5  17
ATOM     17  N   UNL     1       2.044   8.564  17.733  0.00  0.00    +0.000 N 
ATOM     18  C   UNL     1       2.366   7.571  18.654  0.00  0.00    +0.000 C 
ATOM     19  O   UNL     1       2.228   7.654  19.872  0.00  0.00    +0.000 OA
ATOM     20  H   UNL     1       2.114   8.335  16.746  0.00  0.00    +0.000 HD
BRANCH  18  21
ATOM     21  C   UNL     1       2.857   6.263  18.141  0.00  0.00    +0.000 A 
ATOM     22  C   UNL     1       2.001   5.152  18.260  0.00  0.00    +0.000 A 
ATOM     23  C   UNL     1       2.376   3.924  17.730  0.00  0.00    +0.000 A 
ATOM     24  F   UNL     1       1.543   2.880  17.831  0.00  0.00    +0.000 F 
ATOM     25  C   UNL     1       3.593   3.765  17.084  0.00  0.00    +0.000 A 
ATOM     26  C   UNL     1       4.461   4.854  16.984  0.00  0.00    +0.000 A 
ATOM     27  C   UNL     1       4.091   6.090  17.513  0.00  0.00    +0.000 A 
ATOM     28  F   UNL     1       4.948   7.118  17.389  0.00  0.00    +0.000 F 
ENDBRANCH  18  21
ENDBRANCH   5  17
TORSDOF 4
ENDMDL
MODEL 2
REMARK VINA RESULT:      -7.8      4.183      6.008
REMARK  Name = 
REMARK  4 active torsions:
REMARK  status: ('A' for Active; 'I' for Inactive)
REMARK    1  A    between atoms: C_2  and  C_21
REMARK    2  A    between atoms: N_3  and  C_4
REMARK    3  A    between atoms: C_8  and  N_9
REMARK    4  A    between atoms: C_10  and  C_12
REMARK                            x       y       z     vdW  Elec       q    Type
REMARK                         _______ _______ _______ _____ _____    ______ ____
ROOT
ATOM      1  C   UNL     1       1.850   5.623  20.482  0.00  0.00    +0.000 A 
ATOM      2  C   UNL     1       1.541   4.348  20.966  0.00  0.00    +0.000 A 
ATOM      3  C   UNL     1       2.107   3.211  20.409  0.00  0.00    +0.000 A 
ATOM      4  C   UNL     1       2.959   3.328  19.320  0.00  0.00    +0.000 A 
ATOM      5  C   UNL     1       3.230   4.573  18.751  0.00  0.00    +0.000 A 
ATOM      6  C   UNL     1       2.693   5.729  19.357  0.00  0.00    +0.000 A 
ENDROOT
BRANCH   1   9
ATOM      7  O   UNL     1       1.844   8.348  19.415  0.00  0.00    +0.000 OA
ATOM      8  C   UNL     1       1.399   8.070  20.526  0.00  0.00    +0.000 C 
ATOM      9  N   UNL     1       1.320   6.798  21.086  0.00  0.00    +0.000 N 
ATOM     10  H   UNL     1       0.737   6.672  21.902  0.00  0.00    +0.000 HD
BRANCH   8  11
ATOM     11  C   UNL     1       0.843   9.203  21.303  0.00  0.00    +0.000 A 
ATOM     12  C   UNL     1       0.239   8.899  22.528  0.00  0.00    +0.000 A 
ATOM     13  C   UNL     1      -0.367   9.918  23.231  0.00  0.00    +0.000 A 
ATOM     14  N   UNL     1      -0.410  11.194  22.794  0.00  0.00    +0.000 NA
ATOM     15  C   UNL     1       0.160  11.455  21.597  0.00  0.00    +0.000 A 
ATOM     16  C   UNL     1       0.798  10.505  20.815  0.00  0.00    +0.000 A 
ENDBRANCH   8  11
ENDBRANCH   1   9
BRANCH   5  17
ATOM     17  N   UNL     1       4.014   4.699  17.573  0.00  0.00    +0.000 N 
ATOM     18  C   UNL     1       5.398   4.548  17.515  0.00  0.00    +0.000 C 
ATOM     19  O   UNL     1       6.131   4.313  18.472  0.00  0.00    +0.000 OA
ATOM     20  H   UNL     1       3.511   4.795  16.697  0.00  0.00    +0.000 HD
BRANCH  18  21
ATOM     21  C   UNL     1       6.059   4.603  16.183  0.00  0.00    +0.000 A 
ATOM     22  C   UNL     1       5.570   3.749  15.176  0.00  0.00    +0.000 A 
ATOM     23  C   UNL     1       6.099   3.812  13.892  0.00  0.00    +0.000 A 
ATOM     24  F   UNL     1       5.610   3.009  12.938  0.00  0.00    +0.000 F 
ATOM     25  C   UNL     1       7.115   4.703  13.580  0.00  0.00    +0.000 A 
ATOM     26  C   UNL     1       7.625   5.536  14.578  0.00  0.00    +0.000 A 
ATOM     27  C   UNL     1       7.098   5.479  15.869  0.00  0.00    +0.000 A 
ATOM     28  F   UNL     1       7.607   6.302  16.801  0.00  0.00    +0.000 F 
ENDBRANCH  18  21
ENDBRANCH   5  17
TORSDOF 4
ENDMDL
MODEL 3
REMARK VINA RESULT:      -7.5      0.746      1.635
REMARK  Name = 
REMARK  4 active torsions:
REMARK  status: ('A' for Active; 'I' for Inactive)
REMARK    1  A    between atoms: C_2  and  C_21
REMARK    2  A    between atoms: N_3  and  C_4
REMARK    3  A    between atoms: C_8  and  N_9
REMARK    4  A    between atoms: C_10  and  C_12
REMARK                            x       y       z     vdW  Elec       q    Type
REMARK                         _______ _______ _______ _____ _____    ______ ____
ROOT
ATOM      1  C   UNL     1      -0.456  11.077  18.687  0.00  0.00    +0.000 A 
ATOM      2  C   UNL     1       0.395  12.172  18.862  0.00  0.00    +0.000 A 
ATOM      3  C   UNL     1       1.750  12.080  18.580  0.00  0.00    +0.000 A 
ATOM      4  C   UNL     1       2.288  10.872  18.163  0.00  0.00    +0.000 A 
ATOM      5  C   UNL     1       1.490   9.731  18.054  0.00  0.00    +0.000 A 
ATOM      6  C   UNL     1       0.104   9.846  18.291  0.00  0.00    +0.000 A 
ENDROOT
BRANCH   1   9
ATOM      7  O   UNL     1      -2.571  11.567  16.724  0.00  0.00    +0.000 OA
ATOM      8  C   UNL     1      -2.795  11.459  17.928  0.00  0.00    +0.000 C 
ATOM      9  N   UNL     1      -1.858  11.179  18.917  0.00  0.00    +0.000 N 
ATOM     10  H   UNL     1      -2.195  10.899  19.828  0.00  0.00    +0.000 HD
BRANCH   8  11
ATOM     11  C   UNL     1      -4.214  11.584  18.336  0.00  0.00    +0.000 A 
ATOM     12  C   UNL     1      -4.475  12.258  19.534  0.00  0.00    +0.000 A 
ATOM     13  C   UNL     1      -5.776  12.312  19.987  0.00  0.00    +0.000 A 
ATOM     14  N   UNL     1      -6.810  11.744  19.332  0.00  0.00    +0.000 NA
ATOM     15  C   UNL     1      -6.527  11.080  18.190  0.00  0.00    +0.000 A 
ATOM     16  C   UNL     1      -5.257  10.971  17.648  0.00  0.00    +0.000 A 
ENDBRANCH   8  11
ENDBRANCH   1   9
BRANCH   5  17
ATOM     17  N   UNL     1       2.043   8.463  17.730  0.00  0.00    +0.000 N 
ATOM     18  C   UNL     1       2.401   7.487  18.657  0.00  0.00    +0.000 C 
ATOM     19  O   UNL     1       2.313   7.595  19.877  0.00  0.00    +0.000 OA
ATOM     20  H   UNL     1       2.072   8.215  16.746  0.00  0.00    +0.000 HD
BRANCH  18  21
ATOM     21  C   UNL     1       2.865   6.168  18.149  0.00  0.00    +0.000 A 
ATOM     22  C   UNL     1       3.973   6.155  17.281  0.00  0.00    +0.000 A 
ATOM     23  C   UNL     1       4.497   4.947  16.838  0.00  0.00    +0.000 A 
ATOM     24  F   UNL     1       5.565   4.949  16.029  0.00  0.00    +0.000 F 
ATOM     25  C   UNL     1       3.940   3.739  17.230  0.00  0.00    +0.000 A 
ATOM     26  C   UNL     1       2.825   3.741  18.070  0.00  0.00    +0.000 A 
ATOM     27  C   UNL     1       2.294   4.950  18.520  0.00  0.00    +0.000 A 
ATOM     28  F   UNL     1       1.226   4.912  19.334  0.00  0.00    +0.000 F 
ENDBRANCH  18  21
ENDBRANCH   5  17
TORSDOF 4
ENDMDL
MODEL 4
REMARK VINA RESULT:      -7.5      4.427      9.909
REMARK  Name = 
REMARK  4 active torsions:
REMARK  status: ('A' for Active; 'I' for Inactive)
REMARK    1  A    between atoms: C_2  and  C_21
REMARK    2  A    between atoms: N_3  and  C_4
REMARK    3  A    between atoms: C_8  and  N_9
REMARK    4  A    between atoms: C_10  and  C_12
REMARK                            x       y       z     vdW  Elec       q    Type
REMARK                         _______ _______ _______ _____ _____    ______ ____
ROOT
ATOM      1  C   UNL     1       4.006   3.804  17.874  0.00  0.00    +0.000 A 
ATOM      2  C   UNL     1       4.116   2.684  18.704  0.00  0.00    +0.000 A 
ATOM      3  C   UNL     1       3.513   2.655  19.953  0.00  0.00    +0.000 A 
ATOM      4  C   UNL     1       2.826   3.768  20.414  0.00  0.00    +0.000 A 
ATOM      5  C   UNL     1       2.761   4.937  19.653  0.00  0.00    +0.000 A 
ATOM      6  C   UNL     1       3.331   4.941  18.363  0.00  0.00    +0.000 A 
ENDROOT
BRANCH   1   9
ATOM      7  O   UNL     1       6.768   4.403  17.118  0.00  0.00    +0.000 OA
ATOM      8  C   UNL     1       5.892   4.160  16.291  0.00  0.00    +0.000 C 
ATOM      9  N   UNL     1       4.572   3.820  16.567  0.00  0.00    +0.000 N 
ATOM     10  H   UNL     1       4.013   3.431  15.819  0.00  0.00    +0.000 HD
BRANCH   8  11
ATOM     11  C   UNL     1       6.319   4.180  14.872  0.00  0.00    +0.000 A 
ATOM     12  C   UNL     1       7.353   5.059  14.530  0.00  0.00    +0.000 A 
ATOM     13  C   UNL     1       7.710   5.166  13.203  0.00  0.00    +0.000 A 
ATOM     14  N   UNL     1       7.109   4.469  12.217  0.00  0.00    +0.000 NA
ATOM     15  C   UNL     1       6.098   3.645  12.572  0.00  0.00    +0.000 A 
ATOM     16  C   UNL     1       5.665   3.461  13.875  0.00  0.00    +0.000 A 
ENDBRANCH   8  11
ENDBRANCH   1   9
BRANCH   5  17
ATOM     17  N   UNL     1       2.154   6.119  20.155  0.00  0.00    +0.000 N 
ATOM     18  C   UNL     1       2.226   7.372  19.551  0.00  0.00    +0.000 C 
ATOM     19  O   UNL     1       2.844   7.635  18.522  0.00  0.00    +0.000 OA
ATOM     20  H   UNL     1       1.531   6.012  20.948  0.00  0.00    +0.000 HD
BRANCH  18  21
ATOM     21  C   UNL     1       1.441   8.489  20.145  0.00  0.00    +0.000 A 
ATOM     22  C   UNL     1       1.278   8.501  21.543  0.00  0.00    +0.000 A 
ATOM     23  C   UNL     1       0.621   9.559  22.158  0.00  0.00    +0.000 A 
ATOM     24  F   UNL     1       0.492   9.569  23.491  0.00  0.00    +0.000 F 
ATOM     25  C   UNL     1       0.109  10.612  21.415  0.00  0.00    +0.000 A 
ATOM     26  C   UNL     1       0.242  10.597  20.025  0.00  0.00    +0.000 A 
ATOM     27  C   UNL     1       0.902   9.538  19.401  0.00  0.00    +0.000 A 
ATOM     28  F   UNL     1       1.019   9.563  18.062  0.00  0.00    +0.000 F 
ENDBRANCH  18  21
ENDBRANCH   5  17
TORSDOF 4
ENDMDL
MODEL 5
REMARK VINA RESULT:      -7.4      4.453      9.843
REMARK  Name = 
REMARK  4 active torsions:
REMARK  status: ('A' for Active; 'I' for Inactive)
REMARK    1  A    between atoms: C_2  and  C_21
REMARK    2  A    between atoms: N_3  and  C_4
REMARK    3  A    between atoms: C_8  and  N_9
REMARK    4  A    between atoms: C_10  and  C_12
REMARK                            x       y       z     vdW  Elec       q    Type
REMARK                         _______ _______ _______ _____ _____    ______ ____
ROOT
ATOM      1  C   UNL     1       3.788   3.980  18.259  0.00  0.00    +0.000 A 
ATOM      2  C   UNL     1       3.880   2.842  19.066  0.00  0.00    +0.000 A 
ATOM      3  C   UNL     1       3.265   2.791  20.308  0.00  0.00    +0.000 A 
ATOM      4  C   UNL     1       2.585   3.901  20.787  0.00  0.00    +0.000 A 
ATOM      5  C   UNL     1       2.539   5.087  20.052  0.00  0.00    +0.000 A 
ATOM      6  C   UNL     1       3.121   5.113  18.767  0.00  0.00    +0.000 A 
ENDROOT
BRANCH   1   9
ATOM      7  O   UNL     1       6.534   4.684  17.532  0.00  0.00    +0.000 OA
ATOM      8  C   UNL     1       5.677   4.410  16.697  0.00  0.00    +0.000 C 
ATOM      9  N   UNL     1       4.367   4.019  16.959  0.00  0.00    +0.000 N 
ATOM     10  H   UNL     1       3.831   3.610  16.205  0.00  0.00    +0.000 HD
BRANCH   8  11
ATOM     11  C   UNL     1       6.116   4.447  15.282  0.00  0.00    +0.000 A 
ATOM     12  C   UNL     1       5.375   3.694  14.365  0.00  0.00    +0.000 A 
ATOM     13  C   UNL     1       5.812   3.636  13.059  0.00  0.00    +0.000 A 
ATOM     14  N   UNL     1       6.922   4.266  12.622  0.00  0.00    +0.000 NA
ATOM     15  C   UNL     1       7.632   4.967  13.533  0.00  0.00    +0.000 A 
ATOM     16  C   UNL     1       7.277   5.093  14.867  0.00  0.00    +0.000 A 
ENDBRANCH   8  11
ENDBRANCH   1   9
BRANCH   5  17
ATOM     17  N   UNL     1       1.938   6.264  20.573  0.00  0.00    +0.000 N 
ATOM     18  C   UNL     1       1.952   7.510  19.952  0.00  0.00    +0.000 C 
ATOM     19  O   UNL     1       2.505   7.771  18.887  0.00  0.00    +0.000 OA
ATOM     20  H   UNL     1       1.364   6.155  21.403  0.00  0.00    +0.000 HD
BRANCH  18  21
ATOM     21  C   UNL     1       1.181   8.620  20.577  0.00  0.00    +0.000 A 
ATOM     22  C   UNL     1       0.927   8.540  21.959  0.00  0.00    +0.000 A 
ATOM     23  C   UNL     1       0.279   9.583  22.609  0.00  0.00    +0.000 A 
ATOM     24  F   UNL     1       0.062   9.504  23.928  0.00  0.00    +0.000 F 
ATOM     25  C   UNL     1      -0.135  10.711  21.915  0.00  0.00    +0.000 A 
ATOM     26  C   UNL     1       0.090  10.788  20.539  0.00  0.00    +0.000 A 
ATOM     27  C   UNL     1       0.741   9.745  19.881  0.00  0.00    +0.000 A 
ATOM     28  F   UNL     1       0.947   9.859  18.558  0.00  0.00    +0.000 F 
ENDBRANCH  18  21
ENDBRANCH   5  17
TORSDOF 4
ENDMDL
MODEL 6
REMARK VINA RESULT:      -7.4      4.650      9.181
REMARK  Name = 
REMARK  4 active torsions:
REMARK  status: ('A' for Active; 'I' for Inactive)
REMARK    1  A    between atoms: C_2  and  C_21
REMARK    2  A    between atoms: N_3  and  C_4
REMARK    3  A    between atoms: C_8  and  N_9
REMARK    4  A    between atoms: C_10  and  C_12
REMARK                            x       y       z     vdW  Elec       q    Type
REMARK                         _______ _______ _______ _____ _____    ______ ____
ROOT
ATOM      1  C   UNL     1       1.863   8.084  19.576  0.00  0.00    +0.000 A 
ATOM      2  C   UNL     1       2.268   8.514  18.308  0.00  0.00    +0.000 A 
ATOM      3  C   UNL     1       1.950   9.783  17.845  0.00  0.00    +0.000 A 
ATOM      4  C   UNL     1       1.176  10.628  18.626  0.00  0.00    +0.000 A 
ATOM      5  C   UNL     1       0.680  10.210  19.862  0.00  0.00    +0.000 A 
ATOM      6  C   UNL     1       1.052   8.939  20.349  0.00  0.00    +0.000 A 
ENDROOT
BRANCH   1   9
ATOM      7  O   UNL     1       2.133   5.572  18.099  0.00  0.00    +0.000 OA
ATOM      8  C   UNL     1       2.296   5.648  19.314  0.00  0.00    +0.000 C 
ATOM      9  N   UNL     1       2.235   6.806  20.082  0.00  0.00    +0.000 N 
ATOM     10  H   UNL     1       2.603   6.774  21.023  0.00  0.00    +0.000 HD
BRANCH   8  11
ATOM     11  C   UNL     1       2.651   4.382  19.999  0.00  0.00    +0.000 A 
ATOM     12  C   UNL     1       1.885   4.027  21.115  0.00  0.00    +0.000 A 
ATOM     13  C   UNL     1       2.247   2.904  21.828  0.00  0.00    +0.000 A 
ATOM     14  N   UNL     1       3.304   2.132  21.503  0.00  0.00    +0.000 NA
ATOM     15  C   UNL     1       4.040   2.510  20.435  0.00  0.00    +0.000 A 
ATOM     16  C   UNL     1       3.760   3.618  19.650  0.00  0.00    +0.000 A 
ENDBRANCH   8  11
ENDBRANCH   1   9
BRANCH   5  17
ATOM     17  N   UNL     1      -0.200  11.023  20.625  0.00  0.00    +0.000 N 
ATOM     18  C   UNL     1      -0.209  11.104  22.016  0.00  0.00    +0.000 C 
ATOM     19  O   UNL     1       0.519  10.466  22.773  0.00  0.00    +0.000 OA
ATOM     20  H   UNL     1      -0.784  11.674  20.110  0.00  0.00    +0.000 HD
BRANCH  18  21
ATOM     21  C   UNL     1      -1.121  12.087  22.661  0.00  0.00    +0.000 A 
ATOM     22  C   UNL     1      -2.308  11.598  23.236  0.00  0.00    +0.000 A 
ATOM     23  C   UNL     1      -3.159  12.459  23.917  0.00  0.00    +0.000 A 
ATOM     24  F   UNL     1      -4.275  11.976  24.478  0.00  0.00    +0.000 F 
ATOM     25  C   UNL     1      -2.864  13.809  24.038  0.00  0.00    +0.000 A 
ATOM     26  C   UNL     1      -1.701  14.310  23.449  0.00  0.00    +0.000 A 
ATOM     27  C   UNL     1      -0.842  13.451  22.764  0.00  0.00    +0.000 A 
ATOM     28  F   UNL     1       0.272  13.967  22.218  0.00  0.00    +0.000 F 
ENDBRANCH  18  21
ENDBRANCH   5  17
TORSDOF 4
ENDMDL
MODEL 7
REMARK VINA RESULT:      -7.3      4.483      9.336
REMARK  Name = 
REMARK  4 active torsions:
REMARK  status: ('A' for Active; 'I' for Inactive)
REMARK    1  A    between atoms: C_2  and  C_21
REMARK    2  A    between atoms: N_3  and  C_4
REMARK    3  A    between atoms: C_8  and  N_9
REMARK    4  A    between atoms: C_10  and  C_12
REMARK                            x       y       z     vdW  Elec       q    Type
REMARK                         _______ _______ _______ _____ _____    ______ ____
ROOT
ATOM      1  C   UNL     1       1.770   8.127  19.604  0.00  0.00    +0.000 A 
ATOM      2  C   UNL     1       2.248   8.632  18.391  0.00  0.00    +0.000 A 
ATOM      3  C   UNL     1       1.836   9.868  17.916  0.00  0.00    +0.000 A 
ATOM      4  C   UNL     1       0.896  10.601  18.626  0.00  0.00    +0.000 A 
ATOM      5  C   UNL     1       0.330  10.098  19.799  0.00  0.00    +0.000 A 
ATOM      6  C   UNL     1       0.794   8.865  20.303  0.00  0.00    +0.000 A 
ENDROOT
BRANCH   1   9
ATOM      7  O   UNL     1       2.119   5.592  18.184  0.00  0.00    +0.000 OA
ATOM      8  C   UNL     1       2.328   5.711  19.388  0.00  0.00    +0.000 C 
ATOM      9  N   UNL     1       2.233   6.886  20.128  0.00  0.00    +0.000 N 
ATOM     10  H   UNL     1       2.641   6.901  21.053  0.00  0.00    +0.000 HD
BRANCH   8  11
ATOM     11  C   UNL     1       2.780   4.487  20.091  0.00  0.00    +0.000 A 
ATOM     12  C   UNL     1       3.868   3.801  19.539  0.00  0.00    +0.000 A 
ATOM     13  C   UNL     1       4.254   2.611  20.116  0.00  0.00    +0.000 A 
ATOM     14  N   UNL     1       3.633   2.072  21.186  0.00  0.00    +0.000 NA
ATOM     15  C   UNL     1       2.571   2.743  21.685  0.00  0.00    +0.000 A 
ATOM     16  C   UNL     1       2.105   3.948  21.182  0.00  0.00    +0.000 A 
ENDBRANCH   8  11
ENDBRANCH   1   9
BRANCH   5  17
ATOM     17  N   UNL     1      -0.709  10.788  20.480  0.00  0.00    +0.000 N 
ATOM     18  C   UNL     1      -0.515  11.801  21.416  0.00  0.00    +0.000 C 
ATOM     19  O   UNL     1       0.574  12.219  21.801  0.00  0.00    +0.000 OA
ATOM     20  H   UNL     1      -1.658  10.601  20.174  0.00  0.00    +0.000 HD
BRANCH  18  21
ATOM     21  C   UNL     1      -1.711  12.500  21.959  0.00  0.00    +0.000 A 
ATOM     22  C   UNL     1      -2.361  11.918  23.063  0.00  0.00    +0.000 A 
ATOM     23  C   UNL     1      -3.437  12.566  23.659  0.00  0.00    +0.000 A 
ATOM     24  F   UNL     1      -4.033  12.012  24.723  0.00  0.00    +0.000 F 
ATOM     25  C   UNL     1      -3.894  13.783  23.177  0.00  0.00    +0.000 A 
ATOM     26  C   UNL     1      -3.273  14.356  22.065  0.00  0.00    +0.000 A 
ATOM     27  C   UNL     1      -2.192  13.712  21.463  0.00  0.00    +0.000 A 
ATOM     28  F   UNL     1      -1.614  14.298  20.401  0.00  0.00    +0.000 F 
ENDBRANCH  18  21
ENDBRANCH   5  17
TORSDOF 4
ENDMDL
MODEL 8
REMARK VINA RESULT:      -7.3      4.113      6.611
REMARK  Name = 
REMARK  4 active torsions:
REMARK  status: ('A' for Active; 'I' for Inactive)
REMARK    1  A    between atoms: C_2  and  C_21
REMARK    2  A    between atoms: N_3  and  C_4
REMARK    3  A    between atoms: C_8  and  N_9
REMARK    4  A    between atoms: C_10  and  C_12
REMARK                            x       y       z     vdW  Elec       q    Type
REMARK                         _______ _______ _______ _____ _____    ______ ____
ROOT
ATOM      1  C   UNL     1       2.748   4.841  20.071  0.00  0.00    +0.000 A 
ATOM      2  C   UNL     1       2.692   3.677  20.843  0.00  0.00    +0.000 A 
ATOM      3  C   UNL     1       3.368   2.528  20.461  0.00  0.00    +0.000 A 
ATOM      4  C   UNL     1       4.078   2.509  19.270  0.00  0.00    +0.000 A 
ATOM      5  C   UNL     1       4.093   3.622  18.426  0.00  0.00    +0.000 A 
ATOM      6  C   UNL     1       3.447   4.803  18.847  0.00  0.00    +0.000 A 
ENDROOT
BRANCH   1   9
ATOM      7  O   UNL     1       2.568   7.378  18.623  0.00  0.00    +0.000 OA
ATOM      8  C   UNL     1       2.105   7.223  19.750  0.00  0.00    +0.000 C 
ATOM      9  N   UNL     1       2.105   6.042  20.486  0.00  0.00    +0.000 N 
ATOM     10  H   UNL     1       1.504   5.984  21.297  0.00  0.00    +0.000 HD
BRANCH   8  11
ATOM     11  C   UNL     1       1.433   8.404  20.342  0.00  0.00    +0.000 A 
ATOM     12  C   UNL     1       1.123   9.459  19.476  0.00  0.00    +0.000 A 
ATOM     13  C   UNL     1       0.580  10.608  20.011  0.00  0.00    +0.000 A 
ATOM     14  N   UNL     1       0.337  10.767  21.328  0.00  0.00    +0.000 NA
ATOM     15  C   UNL     1       0.668   9.742  22.145  0.00  0.00    +0.000 A 
ATOM     16  C   UNL     1       1.213   8.545  21.709  0.00  0.00    +0.000 A 
ENDBRANCH   8  11
ENDBRANCH   1   9
BRANCH   5  17
ATOM     17  N   UNL     1       4.726   3.584  17.155  0.00  0.00    +0.000 N 
ATOM     18  C   UNL     1       4.931   4.688  16.332  0.00  0.00    +0.000 C 
ATOM     19  O   UNL     1       4.571   5.837  16.575  0.00  0.00    +0.000 OA
ATOM     20  H   UNL     1       5.157   2.706  16.885  0.00  0.00    +0.000 HD
BRANCH  18  21
ATOM     21  C   UNL     1       5.709   4.500  15.077  0.00  0.00    +0.000 A 
ATOM     22  C   UNL     1       5.111   3.754  14.044  0.00  0.00    +0.000 A 
ATOM     23  C   UNL     1       5.759   3.610  12.823  0.00  0.00    +0.000 A 
ATOM     24  F   UNL     1       5.170   2.915  11.842  0.00  0.00    +0.000 F 
ATOM     25  C   UNL     1       7.001   4.186  12.601  0.00  0.00    +0.000 A 
ATOM     26  C   UNL     1       7.615   4.906  13.628  0.00  0.00    +0.000 A 
ATOM     27  C   UNL     1       6.969   5.055  14.855  0.00  0.00    +0.000 A 
ATOM     28  F   UNL     1       7.586   5.763  15.817  0.00  0.00    +0.000 F 
ENDBRANCH  18  21
ENDBRANCH   5  17
TORSDOF 4
ENDMDL
MODEL 9
REMARK VINA RESULT:      -7.3      3.988      6.242
REMARK  Name = 
REMARK  4 active torsions:
REMARK  status: ('A' for Active; 'I' for Inactive)
REMARK    1  A    between atoms: C_2  and  C_21
REMARK    2  A    between atoms: N_3  and  C_4
REMARK    3  A    between atoms: C_8  and  N_9
REMARK    4  A    between atoms: C_10  and  C_12
REMARK                            x       y       z     vdW  Elec       q    Type
REMARK                         _______ _______ _______ _____ _____    ______ ____
ROOT
ATOM      1  C   UNL     1       2.251   5.269  20.768  0.00  0.00    +0.000 A 
ATOM      2  C   UNL     1       2.008   4.033  21.375  0.00  0.00    +0.000 A 
ATOM      3  C   UNL     1       2.736   2.906  21.024  0.00  0.00    +0.000 A 
ATOM      4  C   UNL     1       3.692   2.986  20.021  0.00  0.00    +0.000 A 
ATOM      5  C   UNL     1       3.909   4.180  19.331  0.00  0.00    +0.000 A 
ATOM      6  C   UNL     1       3.202   5.334  19.730  0.00  0.00    +0.000 A 
ENDROOT
BRANCH   1   9
ATOM      7  O   UNL     1       2.173   7.862  19.413  0.00  0.00    +0.000 OA
ATOM      8  C   UNL     1       1.602   7.654  20.480  0.00  0.00    +0.000 C 
ATOM      9  N   UNL     1       1.548   6.443  21.164  0.00  0.00    +0.000 N 
ATOM     10  H   UNL     1       0.870   6.344  21.907  0.00  0.00    +0.000 HD
BRANCH   8  11
ATOM     11  C   UNL     1       0.854   8.801  21.048  0.00  0.00    +0.000 A 
ATOM     12  C   UNL     1       0.725   9.938  20.242  0.00  0.00    +0.000 A 
ATOM     13  C   UNL     1       0.115  11.053  20.774  0.00  0.00    +0.000 A 
ATOM     14  N   UNL     1      -0.362  11.104  22.035  0.00  0.00    +0.000 NA
ATOM     15  C   UNL     1      -0.204  10.000  22.800  0.00  0.00    +0.000 A 
ATOM     16  C   UNL     1       0.391   8.828  22.360  0.00  0.00    +0.000 A 
ENDBRANCH   8  11
ENDBRANCH   1   9
BRANCH   5  17
ATOM     17  N   UNL     1       4.807   4.253  18.233  0.00  0.00    +0.000 N 
ATOM     18  C   UNL     1       4.461   4.028  16.903  0.00  0.00    +0.000 C 
ATOM     19  O   UNL     1       3.346   3.710  16.498  0.00  0.00    +0.000 OA
ATOM     20  H   UNL     1       5.739   4.605  18.427  0.00  0.00    +0.000 HD
BRANCH  18  21
ATOM     21  C   UNL     1       5.496   4.251  15.856  0.00  0.00    +0.000 A 
ATOM     22  C   UNL     1       5.284   3.668  14.593  0.00  0.00    +0.000 A 
ATOM     23  C   UNL     1       6.178   3.907  13.556  0.00  0.00    +0.000 A 
ATOM     24  F   UNL     1       5.952   3.363  12.354  0.00  0.00    +0.000 F 
ATOM     25  C   UNL     1       7.293   4.709  13.745  0.00  0.00    +0.000 A 
ATOM     26  C   UNL     1       7.527   5.271  15.001  0.00  0.00    +0.000 A 
ATOM     27  C   UNL     1       6.633   5.037  16.046  0.00  0.00    +0.000 A 
ATOM     28  F   UNL     1       6.886   5.602  17.239  0.00  0.00    +0.000 F 
ENDBRANCH  18  21
ENDBRANCH   5  17
TORSDOF 4
ENDMDL
