MODEL 1
REMARK VINA RESULT:      -8.2      0.000      0.000
REMARK  Name = 
REMARK  8 active torsions:
REMARK  status: ('A' for Active; 'I' for Inactive)
REMARK    1  A    between atoms: C_1  and  S_2
REMARK    2  A    between atoms: S_2  and  C_5
REMARK    3  A    between atoms: C_8  and  N_9
REMARK    4  A    between atoms: C_10  and  C_12
REMARK    5  A    between atoms: C_12  and  N_13
REMARK    6  A    between atoms: N_13  and  C_14
REMARK    7  A    between atoms: N_13  and  C_24
REMARK    8  A    between atoms: C_14  and  C_15
REMARK                            x       y       z     vdW  Elec       q    Type
REMARK                         _______ _______ _______ _____ _____    ______ ____
ROOT
ATOM      1  N   UNL     1       5.628   4.558  15.864  0.00  0.00    +0.000 NA
ENDROOT
BRANCH   1   2
ATOM      2  C   UNL     1       6.297   4.069  14.625  0.00  0.00    +0.000 C 
ATOM      3  C   UNL     1       7.228   5.081  13.934  0.00  0.00    +0.000 C 
ATOM      4  C   UNL     1       7.450   4.523  12.528  0.00  0.00    +0.000 C 
ATOM      5  C   UNL     1       6.336   3.510  12.275  0.00  0.00    +0.000 C 
ATOM      6  C   UNL     1       5.396   3.613  13.466  0.00  0.00    +0.000 C 
ENDBRANCH   1   2
BRANCH   1   7
ATOM      7  C   UNL     1       5.521   6.047  15.821  0.00  0.00    +0.000 C 
BRANCH   7   9
ATOM      8  N   UNL     1       3.596   7.013  16.980  0.00  0.00    +0.000 N 
ATOM      9  C   UNL     1       4.940   6.701  17.062  0.00  0.00    +0.000 C 
ATOM     10  O   UNL     1       5.667   6.848  18.044  0.00  0.00    +0.000 OA
ATOM     11  H   UNL     1       3.161   6.813  16.083  0.00  0.00    +0.000 HD
BRANCH   8  15
ATOM     12  C   UNL     1       1.293   8.711  20.065  0.00  0.00    +0.000 A 
ATOM     13  C   UNL     1       1.485   9.429  18.891  0.00  0.00    +0.000 A 
ATOM     14  C   UNL     1       2.235   8.866  17.861  0.00  0.00    +0.000 A 
ATOM     15  C   UNL     1       2.818   7.603  17.996  0.00  0.00    +0.000 A 
ATOM     16  C   UNL     1       2.630   6.895  19.190  0.00  0.00    +0.000 A 
ATOM     17  C   UNL     1       1.869   7.450  20.230  0.00  0.00    +0.000 A 
BRANCH  12  19
ATOM     18  C   UNL     1      -0.626  10.669  20.492  0.00  0.00    +0.000 C 
ATOM     19  S   UNL     1       0.323   9.448  21.354  0.00  0.00    +0.000 S 
ATOM     20  O   UNL     1       1.229  10.132  22.256  0.00  0.00    +0.000 OA
ATOM     21  O   UNL     1      -0.590   8.430  21.848  0.00  0.00    +0.000 OA
ENDBRANCH  12  19
ENDBRANCH   8  15
ENDBRANCH   7   9
ENDBRANCH   1   7
BRANCH   1  22
ATOM     22  C   UNL     1       4.271   3.955  16.001  0.00  0.00    +0.000 C 
BRANCH  22  23
ATOM     23  C   UNL     1       3.880   3.563  17.420  0.00  0.00    +0.000 A 
ATOM     24  C   UNL     1       4.857   3.378  18.426  0.00  0.00    +0.000 A 
ATOM     25  C   UNL     1       4.497   3.032  19.736  0.00  0.00    +0.000 A 
ATOM     26  C   UNL     1       3.152   2.924  20.025  0.00  0.00    +0.000 A 
ATOM     27  C   UNL     1       2.191   3.141  19.067  0.00  0.00    +0.000 A 
ATOM     28  C   UNL     1       2.518   3.445  17.760  0.00  0.00    +0.000 A 
ATOM     29  O   UNL     1       0.931   3.037  19.570  0.00  0.00    +0.000 OA
ATOM     30  C   UNL     1       1.220   2.883  20.977  0.00  0.00    +0.000 C 
ATOM     31  O   UNL     1       2.617   2.632  21.240  0.00  0.00    +0.000 OA
ENDBRANCH  22  23
ENDBRANCH   1  22
TORSDOF 7
ENDMDL
MODEL 2
REMARK VINA RESULT:      -7.9      3.205      5.787
REMARK  Name = 
REMARK  8 active torsions:
REMARK  status: ('A' for Active; 'I' for Inactive)
REMARK    1  A    between atoms: C_1  and  S_2
REMARK    2  A    between atoms: S_2  and  C_5
REMARK    3  A    between atoms: C_8  and  N_9
REMARK    4  A    between atoms: C_10  and  C_12
REMARK    5  A    between atoms: C_12  and  N_13
REMARK    6  A    between atoms: N_13  and  C_14
REMARK    7  A    between atoms: N_13  and  C_24
REMARK    8  A    between atoms: C_14  and  C_15
REMARK                            x       y       z     vdW  Elec       q    Type
REMARK                         _______ _______ _______ _____ _____    ______ ____
ROOT
ATOM      1  N   UNL     1       1.758   5.713  18.983  0.00  0.00    +0.000 NA
ENDROOT
BRANCH   1   2
ATOM      2  C   UNL     1       1.414   4.666  19.986  0.00  0.00    +0.000 C 
ATOM      3  C   UNL     1       2.349   4.587  21.205  0.00  0.00    +0.000 C 
ATOM      4  C   UNL     1       2.058   3.229  21.845  0.00  0.00    +0.000 C 
ATOM      5  C   UNL     1       1.348   2.387  20.787  0.00  0.00    +0.000 C 
ATOM      6  C   UNL     1       1.383   3.206  19.505  0.00  0.00    +0.000 C 
ENDBRANCH   1   2
BRANCH   1   7
ATOM      7  C   UNL     1       2.490   6.829  19.653  0.00  0.00    +0.000 C 
BRANCH   7   9
ATOM      8  N   UNL     1       1.340   8.426  21.105  0.00  0.00    +0.000 N 
ATOM      9  C   UNL     1       1.714   8.124  19.810  0.00  0.00    +0.000 C 
ATOM     10  O   UNL     1       1.530   8.823  18.813  0.00  0.00    +0.000 OA
ATOM     11  H   UNL     1       1.585   7.724  21.799  0.00  0.00    +0.000 HD
BRANCH   8  15
ATOM     12  C   UNL     1      -0.799  11.807  22.406  0.00  0.00    +0.000 A 
ATOM     13  C   UNL     1       0.112  11.942  21.365  0.00  0.00    +0.000 A 
ATOM     14  C   UNL     1       0.813  10.823  20.922  0.00  0.00    +0.000 A 
ATOM     15  C   UNL     1       0.635   9.573  21.520  0.00  0.00    +0.000 A 
ATOM     16  C   UNL     1      -0.276   9.452  22.577  0.00  0.00    +0.000 A 
ATOM     17  C   UNL     1      -0.993  10.571  23.026  0.00  0.00    +0.000 A 
BRANCH  12  19
ATOM     18  C   UNL     1      -3.096  12.563  23.767  0.00  0.00    +0.000 C 
ATOM     19  S   UNL     1      -1.687  13.246  22.941  0.00  0.00    +0.000 S 
ATOM     20  O   UNL     1      -2.151  13.947  21.759  0.00  0.00    +0.000 OA
ATOM     21  O   UNL     1      -0.864  13.922  23.931  0.00  0.00    +0.000 OA
ENDBRANCH  12  19
ENDBRANCH   8  15
ENDBRANCH   7   9
ENDBRANCH   1   7
BRANCH   1  22
ATOM     22  C   UNL     1       2.599   5.138  17.893  0.00  0.00    +0.000 C 
BRANCH  22  23
ATOM     23  C   UNL     1       4.066   5.543  17.928  0.00  0.00    +0.000 A 
ATOM     24  C   UNL     1       4.586   6.499  17.023  0.00  0.00    +0.000 A 
ATOM     25  C   UNL     1       5.933   6.884  17.065  0.00  0.00    +0.000 A 
ATOM     26  C   UNL     1       6.728   6.334  18.050  0.00  0.00    +0.000 A 
ATOM     27  C   UNL     1       6.226   5.436  18.961  0.00  0.00    +0.000 A 
ATOM     28  C   UNL     1       4.913   5.010  18.918  0.00  0.00    +0.000 A 
ATOM     29  O   UNL     1       7.159   5.057  19.877  0.00  0.00    +0.000 OA
ATOM     30  C   UNL     1       8.248   5.938  19.523  0.00  0.00    +0.000 C 
ATOM     31  O   UNL     1       8.041   6.612  18.264  0.00  0.00    +0.000 OA
ENDBRANCH  22  23
ENDBRANCH   1  22
TORSDOF 7
ENDMDL
MODEL 3
REMARK VINA RESULT:      -7.9      3.183      5.747
REMARK  Name = 
REMARK  8 active torsions:
REMARK  status: ('A' for Active; 'I' for Inactive)
REMARK    1  A    between atoms: C_1  and  S_2
REMARK    2  A    between atoms: S_2  and  C_5
REMARK    3  A    between atoms: C_8  and  N_9
REMARK    4  A    between atoms: C_10  and  C_12
REMARK    5  A    between atoms: C_12  and  N_13
REMARK    6  A    between atoms: N_13  and  C_14
REMARK    7  A    between atoms: N_13  and  C_24
REMARK    8  A    between atoms: C_14  and  C_15
REMARK                            x       y       z     vdW  Elec       q    Type
REMARK                         _______ _______ _______ _____ _____    ______ ____
ROOT
ATOM      1  N   UNL     1       1.875   5.627  18.885  0.00  0.00    +0.000 NA
ENDROOT
BRANCH   1   2
ATOM      2  C   UNL     1       1.455   4.580  19.860  0.00  0.00    +0.000 C 
ATOM      3  C   UNL     1       2.262   4.536  21.169  0.00  0.00    +0.000 C 
ATOM      4  C   UNL     1       1.941   3.176  21.790  0.00  0.00    +0.000 C 
ATOM      5  C   UNL     1       1.365   2.307  20.675  0.00  0.00    +0.000 C 
ATOM      6  C   UNL     1       1.511   3.116  19.394  0.00  0.00    +0.000 C 
ENDBRANCH   1   2
BRANCH   1   7
ATOM      7  C   UNL     1       2.568   6.735  19.608  0.00  0.00    +0.000 C 
BRANCH   7   9
ATOM      8  N   UNL     1       1.428   8.261  21.140  0.00  0.00    +0.000 N 
ATOM      9  C   UNL     1       1.749   7.994  19.823  0.00  0.00    +0.000 C 
ATOM     10  O   UNL     1       1.487   8.700  18.849  0.00  0.00    +0.000 OA
ATOM     11  H   UNL     1       1.735   7.561  21.810  0.00  0.00    +0.000 HD
BRANCH   8  15
ATOM     12  C   UNL     1      -0.721  11.624  22.472  0.00  0.00    +0.000 A 
ATOM     13  C   UNL     1      -0.941  10.396  23.083  0.00  0.00    +0.000 A 
ATOM     14  C   UNL     1      -0.222   9.282  22.655  0.00  0.00    +0.000 A 
ATOM     15  C   UNL     1       0.698   9.372  21.607  0.00  0.00    +0.000 A 
ATOM     16  C   UNL     1       0.900  10.613  20.989  0.00  0.00    +0.000 A 
ATOM     17  C   UNL     1       0.187  11.742  21.418  0.00  0.00    +0.000 A 
BRANCH  12  19
ATOM     18  C   UNL     1      -2.066  13.868  21.547  0.00  0.00    +0.000 C 
ATOM     19  S   UNL     1      -1.641  13.028  23.046  0.00  0.00    +0.000 S 
ATOM     20  O   UNL     1      -0.736  13.874  23.799  0.00  0.00    +0.000 OA
ATOM     21  O   UNL     1      -2.867  12.528  23.649  0.00  0.00    +0.000 OA
ENDBRANCH  12  19
ENDBRANCH   8  15
ENDBRANCH   7   9
ENDBRANCH   1   7
BRANCH   1  22
ATOM     22  C   UNL     1       2.782   5.049  17.852  0.00  0.00    +0.000 C 
BRANCH  22  23
ATOM     23  C   UNL     1       4.233   5.502  17.941  0.00  0.00    +0.000 A 
ATOM     24  C   UNL     1       4.752   6.480  17.061  0.00  0.00    +0.000 A 
ATOM     25  C   UNL     1       6.083   6.909  17.152  0.00  0.00    +0.000 A 
ATOM     26  C   UNL     1       6.861   6.380  18.162  0.00  0.00    +0.000 A 
ATOM     27  C   UNL     1       6.358   5.459  19.049  0.00  0.00    +0.000 A 
ATOM     28  C   UNL     1       5.062   4.991  18.958  0.00  0.00    +0.000 A 
ATOM     29  O   UNL     1       7.269   5.106  19.996  0.00  0.00    +0.000 OA
ATOM     30  C   UNL     1       8.341   6.024  19.686  0.00  0.00    +0.000 C 
ATOM     31  O   UNL     1       8.156   6.700  18.424  0.00  0.00    +0.000 OA
ENDBRANCH  22  23
ENDBRANCH   1  22
TORSDOF 7
ENDMDL
MODEL 4
REMARK VINA RESULT:      -7.7      2.479      5.526
REMARK  Name = 
REMARK  8 active torsions:
REMARK  status: ('A' for Active; 'I' for Inactive)
REMARK    1  A    between atoms: C_1  and  S_2
REMARK    2  A    between atoms: S_2  and  C_5
REMARK    3  A    between atoms: C_8  and  N_9
REMARK    4  A    between atoms: C_10  and  C_12
REMARK    5  A    between atoms: C_12  and  N_13
REMARK    6  A    between atoms: N_13  and  C_14
REMARK    7  A    between atoms: N_13  and  C_24
REMARK    8  A    between atoms: C_14  and  C_15
REMARK                            x       y       z     vdW  Elec       q    Type
REMARK                         _______ _______ _______ _____ _____    ______ ____
ROOT
ATOM      1  N   UNL     1       3.621   4.627  18.661  0.00  0.00    +0.000 NA
ENDROOT
BRANCH   1   2
ATOM      2  C   UNL     1       2.739   3.538  19.169  0.00  0.00    +0.000 C 
ATOM      3  C   UNL     1       1.394   3.383  18.438  0.00  0.00    +0.000 C 
ATOM      4  C   UNL     1       0.532   2.527  19.367  0.00  0.00    +0.000 C 
ATOM      5  C   UNL     1       1.176   2.591  20.750  0.00  0.00    +0.000 C 
ATOM      6  C   UNL     1       2.303   3.608  20.641  0.00  0.00    +0.000 C 
ENDBRANCH   1   2
BRANCH   1   7
ATOM      7  C   UNL     1       3.559   5.795  19.590  0.00  0.00    +0.000 C 
BRANCH   7   9
ATOM      8  N   UNL     1       2.126   7.660  20.260  0.00  0.00    +0.000 N 
ATOM      9  C   UNL     1       2.582   6.892  19.206  0.00  0.00    +0.000 C 
ATOM     10  O   UNL     1       2.320   7.054  18.014  0.00  0.00    +0.000 OA
ATOM     11  H   UNL     1       2.458   7.374  21.177  0.00  0.00    +0.000 HD
BRANCH   8  15
ATOM     12  C   UNL     1      -0.554  10.898  20.069  0.00  0.00    +0.000 A 
ATOM     13  C   UNL     1       0.209  10.585  18.951  0.00  0.00    +0.000 A 
ATOM     14  C   UNL     1       1.088   9.506  19.004  0.00  0.00    +0.000 A 
ATOM     15  C   UNL     1       1.234   8.747  20.168  0.00  0.00    +0.000 A 
ATOM     16  C   UNL     1       0.469   9.081  21.294  0.00  0.00    +0.000 A 
ATOM     17  C   UNL     1      -0.424  10.161  21.248  0.00  0.00    +0.000 A 
BRANCH  12  19
ATOM     18  C   UNL     1      -2.850  11.737  18.757  0.00  0.00    +0.000 C 
ATOM     19  S   UNL     1      -1.674  12.270  19.968  0.00  0.00    +0.000 S 
ATOM     20  O   UNL     1      -0.945  13.399  19.425  0.00  0.00    +0.000 OA
ATOM     21  O   UNL     1      -2.355  12.370  21.249  0.00  0.00    +0.000 OA
ENDBRANCH  12  19
ENDBRANCH   8  15
ENDBRANCH   7   9
ENDBRANCH   1   7
BRANCH   1  22
ATOM     22  C   UNL     1       5.028   4.150  18.538  0.00  0.00    +0.000 C 
BRANCH  22  23
ATOM     23  C   UNL     1       5.711   4.490  17.221  0.00  0.00    +0.000 A 
ATOM     24  C   UNL     1       6.845   5.336  17.177  0.00  0.00    +0.000 A 
ATOM     25  C   UNL     1       7.484   5.637  15.967  0.00  0.00    +0.000 A 
ATOM     26  C   UNL     1       6.999   5.042  14.820  0.00  0.00    +0.000 A 
ATOM     27  C   UNL     1       5.924   4.187  14.852  0.00  0.00    +0.000 A 
ATOM     28  C   UNL     1       5.252   3.903  16.025  0.00  0.00    +0.000 A 
ATOM     29  O   UNL     1       5.641   3.670  13.626  0.00  0.00    +0.000 OA
ATOM     30  C   UNL     1       6.754   4.182  12.861  0.00  0.00    +0.000 C 
ATOM     31  O   UNL     1       7.507   5.189  13.568  0.00  0.00    +0.000 OA
ENDBRANCH  22  23
ENDBRANCH   1  22
TORSDOF 7
ENDMDL
MODEL 5
REMARK VINA RESULT:      -7.7      2.482      5.577
REMARK  Name = 
REMARK  8 active torsions:
REMARK  status: ('A' for Active; 'I' for Inactive)
REMARK    1  A    between atoms: C_1  and  S_2
REMARK    2  A    between atoms: S_2  and  C_5
REMARK    3  A    between atoms: C_8  and  N_9
REMARK    4  A    between atoms: C_10  and  C_12
REMARK    5  A    between atoms: C_12  and  N_13
REMARK    6  A    between atoms: N_13  and  C_14
REMARK    7  A    between atoms: N_13  and  C_24
REMARK    8  A    between atoms: C_14  and  C_15
REMARK                            x       y       z     vdW  Elec       q    Type
REMARK                         _______ _______ _______ _____ _____    ______ ____
ROOT
ATOM      1  N   UNL     1       3.617   4.517  18.716  0.00  0.00    +0.000 NA
ENDROOT
BRANCH   1   2
ATOM      2  C   UNL     1       2.752   3.430  19.255  0.00  0.00    +0.000 C 
ATOM      3  C   UNL     1       1.397   3.252  18.547  0.00  0.00    +0.000 C 
ATOM      4  C   UNL     1       0.555   2.407  19.503  0.00  0.00    +0.000 C 
ATOM      5  C   UNL     1       1.219   2.500  20.875  0.00  0.00    +0.000 C 
ATOM      6  C   UNL     1       2.336   3.523  20.732  0.00  0.00    +0.000 C 
ENDBRANCH   1   2
BRANCH   1   7
ATOM      7  C   UNL     1       3.555   5.703  19.621  0.00  0.00    +0.000 C 
BRANCH   7   9
ATOM      8  N   UNL     1       2.180   7.631  20.233  0.00  0.00    +0.000 N 
ATOM      9  C   UNL     1       2.586   6.797  19.209  0.00  0.00    +0.000 C 
ATOM     10  O   UNL     1       2.285   6.898  18.019  0.00  0.00    +0.000 OA
ATOM     11  H   UNL     1       2.539   7.390  21.153  0.00  0.00    +0.000 HD
BRANCH   8  15
ATOM     12  C   UNL     1      -0.403  10.922  19.789  0.00  0.00    +0.000 A 
ATOM     13  C   UNL     1      -0.477  10.156  20.946  0.00  0.00    +0.000 A 
ATOM     14  C   UNL     1       0.385   9.073  21.104  0.00  0.00    +0.000 A 
ATOM     15  C   UNL     1       1.306   8.729  20.110  0.00  0.00    +0.000 A 
ATOM     16  C   UNL     1       1.362   9.501  18.943  0.00  0.00    +0.000 A 
ATOM     17  C   UNL     1       0.503  10.598  18.777  0.00  0.00    +0.000 A 
BRANCH  12  19
ATOM     18  C   UNL     1      -0.619  13.392  18.543  0.00  0.00    +0.000 C 
ATOM     19  S   UNL     1      -1.505  12.302  19.621  0.00  0.00    +0.000 S 
ATOM     20  O   UNL     1      -1.617  12.941  20.918  0.00  0.00    +0.000 OA
ATOM     21  O   UNL     1      -2.688  11.832  18.918  0.00  0.00    +0.000 OA
ENDBRANCH  12  19
ENDBRANCH   8  15
ENDBRANCH   7   9
ENDBRANCH   1   7
BRANCH   1  22
ATOM     22  C   UNL     1       5.027   4.050  18.587  0.00  0.00    +0.000 C 
BRANCH  22  23
ATOM     23  C   UNL     1       5.717   4.433  17.284  0.00  0.00    +0.000 A 
ATOM     24  C   UNL     1       6.847   5.285  17.273  0.00  0.00    +0.000 A 
ATOM     25  C   UNL     1       7.491   5.626  16.076  0.00  0.00    +0.000 A 
ATOM     26  C   UNL     1       7.015   5.064  14.908  0.00  0.00    +0.000 A 
ATOM     27  C   UNL     1       5.944   4.203  14.909  0.00  0.00    +0.000 A 
ATOM     28  C   UNL     1       5.267   3.881  16.068  0.00  0.00    +0.000 A 
ATOM     29  O   UNL     1       5.670   3.723  13.665  0.00  0.00    +0.000 OA
ATOM     30  C   UNL     1       6.786   4.263  12.923  0.00  0.00    +0.000 C 
ATOM     31  O   UNL     1       7.530   5.251  13.665  0.00  0.00    +0.000 OA
ENDBRANCH  22  23
ENDBRANCH   1  22
TORSDOF 7
ENDMDL
MODEL 6
REMARK VINA RESULT:      -7.6      1.143      1.853
REMARK  Name = 
REMARK  8 active torsions:
REMARK  status: ('A' for Active; 'I' for Inactive)
REMARK    1  A    between atoms: C_1  and  S_2
REMARK    2  A    between atoms: S_2  and  C_5
REMARK    3  A    between atoms: C_8  and  N_9
REMARK    4  A    between atoms: C_10  and  C_12
REMARK    5  A    between atoms: C_12  and  N_13
REMARK    6  A    between atoms: N_13  and  C_14
REMARK    7  A    between atoms: N_13  and  C_24
REMARK    8  A    between atoms: C_14  and  C_15
REMARK                            x       y       z     vdW  Elec       q    Type
REMARK                         _______ _______ _______ _____ _____    ______ ____
ROOT
ATOM      1  N   UNL     1       5.939   5.034  16.574  0.00  0.00    +0.000 NA
ENDROOT
BRANCH   1   2
ATOM      2  C   UNL     1       6.396   4.390  15.310  0.00  0.00    +0.000 C 
ATOM      3  C   UNL     1       7.303   5.256  14.418  0.00  0.00    +0.000 C 
ATOM      4  C   UNL     1       7.291   4.570  13.052  0.00  0.00    +0.000 C 
ATOM      5  C   UNL     1       6.078   3.643  13.034  0.00  0.00    +0.000 C 
ATOM      6  C   UNL     1       5.316   3.925  14.320  0.00  0.00    +0.000 C 
ENDBRANCH   1   2
BRANCH   1   7
ATOM      7  C   UNL     1       4.533   5.512  16.412  0.00  0.00    +0.000 C 
BRANCH   7   9
ATOM      8  N   UNL     1       2.834   6.674  17.732  0.00  0.00    +0.000 N 
ATOM      9  C   UNL     1       4.137   6.697  17.275  0.00  0.00    +0.000 C 
ATOM     10  O   UNL     1       4.994   7.537  17.548  0.00  0.00    +0.000 OA
ATOM     11  H   UNL     1       2.274   5.893  17.401  0.00  0.00    +0.000 HD
BRANCH   8  15
ATOM     12  C   UNL     1       1.009   9.602  20.141  0.00  0.00    +0.000 A 
ATOM     13  C   UNL     1       1.436   8.416  20.725  0.00  0.00    +0.000 A 
ATOM     14  C   UNL     1       2.053   7.449  19.935  0.00  0.00    +0.000 A 
ATOM     15  C   UNL     1       2.229   7.639  18.561  0.00  0.00    +0.000 A 
ATOM     16  C   UNL     1       1.781   8.834  17.981  0.00  0.00    +0.000 A 
ATOM     17  C   UNL     1       1.166   9.817  18.770  0.00  0.00    +0.000 A 
BRANCH  12  19
ATOM     18  C   UNL     1      -0.079   9.932  22.672  0.00  0.00    +0.000 C 
ATOM     19  S   UNL     1       0.239  10.821  21.174  0.00  0.00    +0.000 S 
ATOM     20  O   UNL     1      -1.035  11.169  20.575  0.00  0.00    +0.000 OA
ATOM     21  O   UNL     1       1.233  11.844  21.455  0.00  0.00    +0.000 OA
ENDBRANCH  12  19
ENDBRANCH   8  15
ENDBRANCH   7   9
ENDBRANCH   1   7
BRANCH   1  22
ATOM     22  C   UNL     1       6.021   4.075  17.712  0.00  0.00    +0.000 C 
BRANCH  22  23
ATOM     23  C   UNL     1       4.679   3.604  18.257  0.00  0.00    +0.000 A 
ATOM     24  C   UNL     1       3.848   2.734  17.512  0.00  0.00    +0.000 A 
ATOM     25  C   UNL     1       2.620   2.288  18.019  0.00  0.00    +0.000 A 
ATOM     26  C   UNL     1       2.267   2.689  19.292  0.00  0.00    +0.000 A 
ATOM     27  C   UNL     1       3.083   3.501  20.042  0.00  0.00    +0.000 A 
ATOM     28  C   UNL     1       4.280   3.986  19.553  0.00  0.00    +0.000 A 
ATOM     29  O   UNL     1       2.576   3.733  21.283  0.00  0.00    +0.000 OA
ATOM     30  C   UNL     1       1.432   2.851  21.270  0.00  0.00    +0.000 C 
ATOM     31  O   UNL     1       1.137   2.332  19.957  0.00  0.00    +0.000 OA
ENDBRANCH  22  23
ENDBRANCH   1  22
TORSDOF 7
ENDMDL
MODEL 7
REMARK VINA RESULT:      -7.6      2.509      5.643
REMARK  Name = 
REMARK  8 active torsions:
REMARK  status: ('A' for Active; 'I' for Inactive)
REMARK    1  A    between atoms: C_1  and  S_2
REMARK    2  A    between atoms: S_2  and  C_5
REMARK    3  A    between atoms: C_8  and  N_9
REMARK    4  A    between atoms: C_10  and  C_12
REMARK    5  A    between atoms: C_12  and  N_13
REMARK    6  A    between atoms: N_13  and  C_14
REMARK    7  A    between atoms: N_13  and  C_24
REMARK    8  A    between atoms: C_14  and  C_15
REMARK                            x       y       z     vdW  Elec       q    Type
REMARK                         _______ _______ _______ _____ _____    ______ ____
ROOT
ATOM      1  N   UNL     1       3.033   5.006  18.555  0.00  0.00    +0.000 NA
ENDROOT
BRANCH   1   2
ATOM      2  C   UNL     1       1.905   4.244  19.161  0.00  0.00    +0.000 C 
ATOM      3  C   UNL     1       2.074   3.884  20.648  0.00  0.00    +0.000 C 
ATOM      4  C   UNL     1       1.038   2.791  20.915  0.00  0.00    +0.000 C 
ATOM      5  C   UNL     1       0.632   2.228  19.555  0.00  0.00    +0.000 C 
ATOM      6  C   UNL     1       1.552   2.884  18.536  0.00  0.00    +0.000 C 
ENDBRANCH   1   2
BRANCH   1   7
ATOM      7  C   UNL     1       3.339   6.201  19.397  0.00  0.00    +0.000 C 
BRANCH   7   9
ATOM      8  N   UNL     1       1.969   7.924  20.462  0.00  0.00    +0.000 N 
ATOM      9  C   UNL     1       2.372   7.364  19.265  0.00  0.00    +0.000 C 
ATOM     10  O   UNL     1       2.072   7.754  18.137  0.00  0.00    +0.000 OA
ATOM     11  H   UNL     1       2.327   7.465  21.295  0.00  0.00    +0.000 HD
BRANCH   8  15
ATOM     12  C   UNL     1      -0.614  11.224  20.834  0.00  0.00    +0.000 A 
ATOM     13  C   UNL     1      -0.587  10.270  21.844  0.00  0.00    +0.000 A 
ATOM     14  C   UNL     1       0.277   9.182  21.732  0.00  0.00    +0.000 A 
ATOM     15  C   UNL     1       1.098   9.021  20.613  0.00  0.00    +0.000 A 
ATOM     16  C   UNL     1       1.051   9.983  19.595  0.00  0.00    +0.000 A 
ATOM     17  C   UNL     1       0.191  11.085  19.702  0.00  0.00    +0.000 A 
BRANCH  12  19
ATOM     18  C   UNL     1      -1.912  12.738  22.763  0.00  0.00    +0.000 C 
ATOM     19  S   UNL     1      -1.713  12.605  21.010  0.00  0.00    +0.000 S 
ATOM     20  O   UNL     1      -2.991  12.231  20.436  0.00  0.00    +0.000 OA
ATOM     21  O   UNL     1      -1.006  13.787  20.542  0.00  0.00    +0.000 OA
ENDBRANCH  12  19
ENDBRANCH   8  15
ENDBRANCH   7   9
ENDBRANCH   1   7
BRANCH   1  22
ATOM     22  C   UNL     1       4.245   4.145  18.437  0.00  0.00    +0.000 C 
BRANCH  22  23
ATOM     23  C   UNL     1       5.196   4.522  17.310  0.00  0.00    +0.000 A 
ATOM     24  C   UNL     1       6.373   5.268  17.560  0.00  0.00    +0.000 A 
ATOM     25  C   UNL     1       7.257   5.603  16.526  0.00  0.00    +0.000 A 
ATOM     26  C   UNL     1       6.967   5.140  15.258  0.00  0.00    +0.000 A 
ATOM     27  C   UNL     1       5.850   4.380  15.008  0.00  0.00    +0.000 A 
ATOM     28  C   UNL     1       4.942   4.068  16.001  0.00  0.00    +0.000 A 
ATOM     29  O   UNL     1       5.779   3.982  13.709  0.00  0.00    +0.000 OA
ATOM     30  C   UNL     1       7.054   4.453  13.219  0.00  0.00    +0.000 C 
ATOM     31  O   UNL     1       7.722   5.335  14.145  0.00  0.00    +0.000 OA
ENDBRANCH  22  23
ENDBRANCH   1  22
TORSDOF 7
ENDMDL
MODEL 8
REMARK VINA RESULT:      -7.6      3.331      5.859
REMARK  Name = 
REMARK  8 active torsions:
REMARK  status: ('A' for Active; 'I' for Inactive)
REMARK    1  A    between atoms: C_1  and  S_2
REMARK    2  A    between atoms: S_2  and  C_5
REMARK    3  A    between atoms: C_8  and  N_9
REMARK    4  A    between atoms: C_10  and  C_12
REMARK    5  A    between atoms: C_12  and  N_13
REMARK    6  A    between atoms: N_13  and  C_14
REMARK    7  A    between atoms: N_13  and  C_24
REMARK    8  A    between atoms: C_14  and  C_15
REMARK                            x       y       z     vdW  Elec       q    Type
REMARK                         _______ _______ _______ _____ _____    ______ ____
ROOT
ATOM      1  N   UNL     1       1.942   5.626  18.897  0.00  0.00    +0.000 NA
ENDROOT
BRANCH   1   2
ATOM      2  C   UNL     1       1.511   4.492  19.763  0.00  0.00    +0.000 C 
ATOM      3  C   UNL     1       2.148   4.451  21.163  0.00  0.00    +0.000 C 
ATOM      4  C   UNL     1       1.890   3.034  21.678  0.00  0.00    +0.000 C 
ATOM      5  C   UNL     1       1.548   2.179  20.460  0.00  0.00    +0.000 C 
ATOM      6  C   UNL     1       1.771   3.067  19.246  0.00  0.00    +0.000 C 
ENDBRANCH   1   2
BRANCH   1   7
ATOM      7  C   UNL     1       2.553   6.696  19.741  0.00  0.00    +0.000 C 
BRANCH   7   9
ATOM      8  N   UNL     1       1.409   8.256  21.238  0.00  0.00    +0.000 N 
ATOM      9  C   UNL     1       1.714   7.948  19.925  0.00  0.00    +0.000 C 
ATOM     10  O   UNL     1       1.424   8.614  18.931  0.00  0.00    +0.000 OA
ATOM     11  H   UNL     1       1.740   7.585  21.926  0.00  0.00    +0.000 HD
BRANCH   8  15
ATOM     12  C   UNL     1      -0.780  11.626  22.485  0.00  0.00    +0.000 A 
ATOM     13  C   UNL     1      -0.958  10.419  23.150  0.00  0.00    +0.000 A 
ATOM     14  C   UNL     1      -0.226   9.304  22.750  0.00  0.00    +0.000 A 
ATOM     15  C   UNL     1       0.667   9.370  21.677  0.00  0.00    +0.000 A 
ATOM     16  C   UNL     1       0.828  10.589  21.005  0.00  0.00    +0.000 A 
ATOM     17  C   UNL     1       0.101  11.719  21.405  0.00  0.00    +0.000 A 
BRANCH  12  19
ATOM     18  C   UNL     1      -1.991  13.929  21.523  0.00  0.00    +0.000 C 
ATOM     19  S   UNL     1      -1.716  13.033  23.025  0.00  0.00    +0.000 S 
ATOM     20  O   UNL     1      -0.862  13.833  23.880  0.00  0.00    +0.000 OA
ATOM     21  O   UNL     1      -2.999  12.544  23.503  0.00  0.00    +0.000 OA
ENDBRANCH  12  19
ENDBRANCH   8  15
ENDBRANCH   7   9
ENDBRANCH   1   7
BRANCH   1  22
ATOM     22  C   UNL     1       2.924   5.163  17.875  0.00  0.00    +0.000 C 
BRANCH  22  23
ATOM     23  C   UNL     1       4.360   5.610  18.113  0.00  0.00    +0.000 A 
ATOM     24  C   UNL     1       5.211   4.907  18.999  0.00  0.00    +0.000 A 
ATOM     25  C   UNL     1       6.537   5.309  19.207  0.00  0.00    +0.000 A 
ATOM     26  C   UNL     1       7.004   6.386  18.481  0.00  0.00    +0.000 A 
ATOM     27  C   UNL     1       6.201   7.052  17.587  0.00  0.00    +0.000 A 
ATOM     28  C   UNL     1       4.880   6.702  17.392  0.00  0.00    +0.000 A 
ATOM     29  O   UNL     1       6.867   8.046  16.939  0.00  0.00    +0.000 OA
ATOM     30  C   UNL     1       8.210   7.821  17.422  0.00  0.00    +0.000 C 
ATOM     31  O   UNL     1       8.264   6.894  18.526  0.00  0.00    +0.000 OA
ENDBRANCH  22  23
ENDBRANCH   1  22
TORSDOF 7
ENDMDL
MODEL 9
REMARK VINA RESULT:      -7.6      2.788      5.893
REMARK  Name = 
REMARK  8 active torsions:
REMARK  status: ('A' for Active; 'I' for Inactive)
REMARK    1  A    between atoms: C_1  and  S_2
REMARK    2  A    between atoms: S_2  and  C_5
REMARK    3  A    between atoms: C_8  and  N_9
REMARK    4  A    between atoms: C_10  and  C_12
REMARK    5  A    between atoms: C_12  and  N_13
REMARK    6  A    between atoms: N_13  and  C_14
REMARK    7  A    between atoms: N_13  and  C_24
REMARK    8  A    between atoms: C_14  and  C_15
REMARK                            x       y       z     vdW  Elec       q    Type
REMARK                         _______ _______ _______ _____ _____    ______ ____
ROOT
ATOM      1  N   UNL     1       2.234   5.805  19.616  0.00  0.00    +0.000 NA
ENDROOT
BRANCH   1   2
ATOM      2  C   UNL     1       1.530   4.492  19.667  0.00  0.00    +0.000 C 
ATOM      3  C   UNL     1       2.242   3.393  20.475  0.00  0.00    +0.000 C 
ATOM      4  C   UNL     1       1.574   2.086  20.045  0.00  0.00    +0.000 C 
ATOM      5  C   UNL     1       0.856   2.370  18.728  0.00  0.00    +0.000 C 
ATOM      6  C   UNL     1       1.252   3.784  18.331  0.00  0.00    +0.000 C 
ENDBRANCH   1   2
BRANCH   1   7
ATOM      7  C   UNL     1       1.873   6.614  20.818  0.00  0.00    +0.000 C 
BRANCH   7   9
ATOM      8  N   UNL     1       0.439   8.491  21.453  0.00  0.00    +0.000 N 
ATOM      9  C   UNL     1       1.359   8.015  20.538  0.00  0.00    +0.000 C 
ATOM     10  O   UNL     1       1.827   8.633  19.582  0.00  0.00    +0.000 OA
ATOM     11  H   UNL     1       0.175   7.832  22.181  0.00  0.00    +0.000 HD
BRANCH   8  15
ATOM     12  C   UNL     1      -1.396  12.274  21.307  0.00  0.00    +0.000 A 
ATOM     13  C   UNL     1      -1.043  11.741  22.541  0.00  0.00    +0.000 A 
ATOM     14  C   UNL     1      -0.423  10.495  22.594  0.00  0.00    +0.000 A 
ATOM     15  C   UNL     1      -0.171   9.760  21.432  0.00  0.00    +0.000 A 
ATOM     16  C   UNL     1      -0.544  10.303  20.195  0.00  0.00    +0.000 A 
ATOM     17  C   UNL     1      -1.162  11.560  20.130  0.00  0.00    +0.000 A 
BRANCH  12  19
ATOM     18  C   UNL     1      -1.148  14.785  20.153  0.00  0.00    +0.000 C 
ATOM     19  S   UNL     1      -2.172  13.869  21.269  0.00  0.00    +0.000 S 
ATOM     20  O   UNL     1      -2.044  14.456  22.588  0.00  0.00    +0.000 OA
ATOM     21  O   UNL     1      -3.479  13.702  20.653  0.00  0.00    +0.000 OA
ENDBRANCH  12  19
ENDBRANCH   8  15
ENDBRANCH   7   9
ENDBRANCH   1   7
BRANCH   1  22
ATOM     22  C   UNL     1       3.711   5.607  19.562  0.00  0.00    +0.000 C 
BRANCH  22  23
ATOM     23  C   UNL     1       4.317   5.652  18.166  0.00  0.00    +0.000 A 
ATOM     24  C   UNL     1       4.348   6.853  17.418  0.00  0.00    +0.000 A 
ATOM     25  C   UNL     1       4.920   6.900  16.139  0.00  0.00    +0.000 A 
ATOM     26  C   UNL     1       5.495   5.745  15.650  0.00  0.00    +0.000 A 
ATOM     27  C   UNL     1       5.507   4.582  16.382  0.00  0.00    +0.000 A 
ATOM     28  C   UNL     1       4.918   4.498  17.628  0.00  0.00    +0.000 A 
ATOM     29  O   UNL     1       6.168   3.579  15.742  0.00  0.00    +0.000 OA
ATOM     30  C   UNL     1       6.693   4.294  14.602  0.00  0.00    +0.000 C 
ATOM     31  O   UNL     1       6.122   5.610  14.451  0.00  0.00    +0.000 OA
ENDBRANCH  22  23
ENDBRANCH   1  22
TORSDOF 7
ENDMDL
