MODEL 1
REMARK VINA RESULT:      -8.6      0.000      0.000
REMARK  Name = 
REMARK  5 active torsions:
REMARK  status: ('A' for Active; 'I' for Inactive)
REMARK    1  A    between atoms: C_1  and  C_2
REMARK    2  A    between atoms: N_5  and  C_6
REMARK    3  A    between atoms: C_10  and  N_11
REMARK    4  A    between atoms: C_16  and  C_17
REMARK    5  A    between atoms: C_24  and  C_25
REMARK                            x       y       z     vdW  Elec       q    Type
REMARK                         _______ _______ _______ _____ _____    ______ ____
ROOT
ATOM      1  N   UNL     1       3.794   4.993  19.258  0.00  0.00    +0.000 N 
ATOM      2  C   UNL     1       5.179   5.492  19.426  0.00  0.00    +0.000 C 
ATOM      3  C   UNL     1       5.766   5.245  18.069  0.00  0.00    +0.000 A 
ATOM      4  C   UNL     1       5.081   4.161  17.511  0.00  0.00    +0.000 A 
ATOM      5  C   UNL     1       5.250   3.753  16.199  0.00  0.00    +0.000 A 
ATOM      6  C   UNL     1       6.136   4.489  15.411  0.00  0.00    +0.000 A 
ATOM      7  C   UNL     1       6.819   5.599  15.958  0.00  0.00    +0.000 A 
ATOM      8  C   UNL     1       6.643   6.001  17.299  0.00  0.00    +0.000 A 
ATOM      9  C   UNL     1       3.894   3.898  18.360  0.00  0.00    +0.000 C 
ATOM     10  O   UNL     1       3.081   3.019  18.144  0.00  0.00    +0.000 OA
ENDROOT
BRANCH   1  15
ATOM     11  C   UNL     1       1.957   8.168  19.625  0.00  0.00    +0.000 A 
ATOM     12  C   UNL     1       2.407   8.768  18.440  0.00  0.00    +0.000 A 
ATOM     13  C   UNL     1       2.921   8.013  17.393  0.00  0.00    +0.000 A 
ATOM     14  C   UNL     1       3.104   6.649  17.560  0.00  0.00    +0.000 A 
ATOM     15  C   UNL     1       2.925   6.081  18.830  0.00  0.00    +0.000 A 
ATOM     16  C   UNL     1       2.242   6.811  19.815  0.00  0.00    +0.000 A 
BRANCH  11  21
ATOM     17  C   UNL     1      -0.655  10.094  19.382  0.00  0.00    +0.000 C 
ATOM     18  C   UNL     1       0.115   9.542  20.505  0.00  0.00    +0.000 C 
ATOM     19  N   UNL     1      -0.174   9.436  21.758  0.00  0.00    +0.000 NA
ATOM     20  C   UNL     1       1.036   8.650  21.968  0.00  0.00    +0.000 C 
ATOM     21  N   UNL     1       1.325   8.934  20.617  0.00  0.00    +0.000 N 
ENDBRANCH  11  21
ENDBRANCH   1  15
BRANCH   6  22
ATOM     22  C   UNL     1       6.282   4.192  13.980  0.00  0.00    +0.000 C 
ATOM     23  C   UNL     1       7.318   4.672  13.284  0.00  0.00    +0.000 C 
ATOM     24  N   UNL     1       7.560   4.439  11.960  0.00  0.00    +0.000 NA
ATOM     25  C   UNL     1       6.724   3.684  11.320  0.00  0.00    +0.000 C 
ATOM     26  C   UNL     1       5.497   3.027  11.889  0.00  0.00    +0.000 C 
ATOM     27  C   UNL     1       5.239   3.325  13.357  0.00  0.00    +0.000 C 
ENDBRANCH   6  22
BRANCH   8  28
ATOM     28  C   UNL     1       7.297   7.274  17.773  0.00  0.00    +0.000 C 
ATOM     29  F   UNL     1       8.024   7.135  18.916  0.00  0.00    +0.000 F 
ATOM     30  F   UNL     1       8.157   7.783  16.850  0.00  0.00    +0.000 F 
ATOM     31  F   UNL     1       6.391   8.257  18.027  0.00  0.00    +0.000 F 
ENDBRANCH   8  28
TORSDOF 4
ENDMDL
MODEL 2
REMARK VINA RESULT:      -8.1      7.660     11.174
REMARK  Name = 
REMARK  5 active torsions:
REMARK  status: ('A' for Active; 'I' for Inactive)
REMARK    1  A    between atoms: C_1  and  C_2
REMARK    2  A    between atoms: N_5  and  C_6
REMARK    3  A    between atoms: C_10  and  N_11
REMARK    4  A    between atoms: C_16  and  C_17
REMARK    5  A    between atoms: C_24  and  C_25
REMARK                            x       y       z     vdW  Elec       q    Type
REMARK                         _______ _______ _______ _____ _____    ______ ____
ROOT
ATOM      1  N   UNL     1      -0.281  11.261  18.297  0.00  0.00    +0.000 N 
ATOM      2  C   UNL     1       0.431  10.433  19.298  0.00  0.00    +0.000 C 
ATOM      3  C   UNL     1       0.066  11.114  20.582  0.00  0.00    +0.000 A 
ATOM      4  C   UNL     1      -0.176  12.460  20.285  0.00  0.00    +0.000 A 
ATOM      5  C   UNL     1      -0.691  13.357  21.204  0.00  0.00    +0.000 A 
ATOM      6  C   UNL     1      -0.996  12.866  22.474  0.00  0.00    +0.000 A 
ATOM      7  C   UNL     1      -0.775  11.504  22.781  0.00  0.00    +0.000 A 
ATOM      8  C   UNL     1      -0.243  10.600  21.837  0.00  0.00    +0.000 A 
ATOM      9  C   UNL     1      -0.247  12.584  18.810  0.00  0.00    +0.000 C 
ATOM     10  O   UNL     1      -0.453  13.630  18.222  0.00  0.00    +0.000 OA
ENDROOT
BRANCH   1  15
ATOM     11  C   UNL     1      -3.961  11.339  18.091  0.00  0.00    +0.000 A 
ATOM     12  C   UNL     1      -4.076  10.780  16.810  0.00  0.00    +0.000 A 
ATOM     13  C   UNL     1      -3.048  10.031  16.250  0.00  0.00    +0.000 A 
ATOM     14  C   UNL     1      -1.836   9.929  16.914  0.00  0.00    +0.000 A 
ATOM     15  C   UNL     1      -1.609  10.712  18.055  0.00  0.00    +0.000 A 
ATOM     16  C   UNL     1      -2.700  11.313  18.701  0.00  0.00    +0.000 A 
BRANCH  11  21
ATOM     17  C   UNL     1      -6.811  10.087  19.039  0.00  0.00    +0.000 C 
ATOM     18  C   UNL     1      -6.125  11.368  19.260  0.00  0.00    +0.000 C 
ATOM     19  N   UNL     1      -6.332  12.299  20.129  0.00  0.00    +0.000 NA
ATOM     20  C   UNL     1      -5.118  12.976  19.687  0.00  0.00    +0.000 C 
ATOM     21  N   UNL     1      -5.055  11.982  18.690  0.00  0.00    +0.000 N 
ENDBRANCH  11  21
ENDBRANCH   1  15
BRANCH   6  22
ATOM     22  C   UNL     1      -1.653  13.726  23.466  0.00  0.00    +0.000 C 
ATOM     23  C   UNL     1      -1.014  14.777  23.991  0.00  0.00    +0.000 C 
ATOM     24  N   UNL     1      -1.538  15.651  24.901  0.00  0.00    +0.000 NA
ATOM     25  C   UNL     1      -2.760  15.456  25.287  0.00  0.00    +0.000 C 
ATOM     26  C   UNL     1      -3.675  14.353  24.832  0.00  0.00    +0.000 C 
ATOM     27  C   UNL     1      -3.056  13.381  23.841  0.00  0.00    +0.000 C 
ENDBRANCH   6  22
BRANCH   8  28
ATOM     28  C   UNL     1      -0.164   9.136  22.189  0.00  0.00    +0.000 C 
ATOM     29  F   UNL     1      -0.972   8.338  21.438  0.00  0.00    +0.000 F 
ATOM     30  F   UNL     1       1.092   8.639  22.034  0.00  0.00    +0.000 F 
ATOM     31  F   UNL     1      -0.507   8.897  23.484  0.00  0.00    +0.000 F 
ENDBRANCH   8  28
TORSDOF 4
ENDMDL
MODEL 3
REMARK VINA RESULT:      -8.0      7.669     11.230
REMARK  Name = 
REMARK  5 active torsions:
REMARK  status: ('A' for Active; 'I' for Inactive)
REMARK    1  A    between atoms: C_1  and  C_2
REMARK    2  A    between atoms: N_5  and  C_6
REMARK    3  A    between atoms: C_10  and  N_11
REMARK    4  A    between atoms: C_16  and  C_17
REMARK    5  A    between atoms: C_24  and  C_25
REMARK                            x       y       z     vdW  Elec       q    Type
REMARK                         _______ _______ _______ _____ _____    ______ ____
ROOT
ATOM      1  N   UNL     1      -0.286  11.274  18.308  0.00  0.00    +0.000 N 
ATOM      2  C   UNL     1       0.444  10.471  19.315  0.00  0.00    +0.000 C 
ATOM      3  C   UNL     1       0.072  11.159  20.594  0.00  0.00    +0.000 A 
ATOM      4  C   UNL     1      -0.196  12.497  20.282  0.00  0.00    +0.000 A 
ATOM      5  C   UNL     1      -0.724  13.395  21.193  0.00  0.00    +0.000 A 
ATOM      6  C   UNL     1      -1.014  12.912  22.470  0.00  0.00    +0.000 A 
ATOM      7  C   UNL     1      -0.768  11.558  22.791  0.00  0.00    +0.000 A 
ATOM      8  C   UNL     1      -0.223  10.653  21.855  0.00  0.00    +0.000 A 
ATOM      9  C   UNL     1      -0.275  12.604  18.806  0.00  0.00    +0.000 C 
ATOM     10  O   UNL     1      -0.502  13.638  18.207  0.00  0.00    +0.000 OA
ENDROOT
BRANCH   1  15
ATOM     11  C   UNL     1      -3.966  11.294  18.077  0.00  0.00    +0.000 A 
ATOM     12  C   UNL     1      -4.065  10.688  16.816  0.00  0.00    +0.000 A 
ATOM     13  C   UNL     1      -3.023   9.934  16.289  0.00  0.00    +0.000 A 
ATOM     14  C   UNL     1      -1.814   9.873  16.964  0.00  0.00    +0.000 A 
ATOM     15  C   UNL     1      -1.605  10.699  18.078  0.00  0.00    +0.000 A 
ATOM     16  C   UNL     1      -2.709  11.307  18.695  0.00  0.00    +0.000 A 
BRANCH  11  21
ATOM     17  C   UNL     1      -6.810  10.039  19.039  0.00  0.00    +0.000 C 
ATOM     18  C   UNL     1      -6.141  11.334  19.226  0.00  0.00    +0.000 C 
ATOM     19  N   UNL     1      -6.366  12.289  20.063  0.00  0.00    +0.000 NA
ATOM     20  C   UNL     1      -5.156  12.967  19.611  0.00  0.00    +0.000 C 
ATOM     21  N   UNL     1      -5.073  11.942  18.646  0.00  0.00    +0.000 N 
ENDBRANCH  11  21
ENDBRANCH   1  15
BRANCH   6  22
ATOM     22  C   UNL     1      -1.684  13.772  23.455  0.00  0.00    +0.000 C 
ATOM     23  C   UNL     1      -2.930  13.506  23.860  0.00  0.00    +0.000 C 
ATOM     24  N   UNL     1      -3.634  14.224  24.785  0.00  0.00    +0.000 NA
ATOM     25  C   UNL     1      -3.048  15.247  25.325  0.00  0.00    +0.000 C 
ATOM     26  C   UNL     1      -1.655  15.733  25.037  0.00  0.00    +0.000 C 
ATOM     27  C   UNL     1      -0.906  14.930  23.985  0.00  0.00    +0.000 C 
ENDBRANCH   6  22
BRANCH   8  28
ATOM     28  C   UNL     1      -0.116   9.196  22.223  0.00  0.00    +0.000 C 
ATOM     29  F   UNL     1       1.134   8.676  22.085  0.00  0.00    +0.000 F 
ATOM     30  F   UNL     1      -0.469   8.966  23.517  0.00  0.00    +0.000 F 
ATOM     31  F   UNL     1      -0.931   8.410  21.466  0.00  0.00    +0.000 F 
ENDBRANCH   8  28
TORSDOF 4
ENDMDL
MODEL 4
REMARK VINA RESULT:      -7.9      4.628      9.078
REMARK  Name = 
REMARK  5 active torsions:
REMARK  status: ('A' for Active; 'I' for Inactive)
REMARK    1  A    between atoms: C_1  and  C_2
REMARK    2  A    between atoms: N_5  and  C_6
REMARK    3  A    between atoms: C_10  and  N_11
REMARK    4  A    between atoms: C_16  and  C_17
REMARK    5  A    between atoms: C_24  and  C_25
REMARK                            x       y       z     vdW  Elec       q    Type
REMARK                         _______ _______ _______ _____ _____    ______ ____
ROOT
ATOM      1  N   UNL     1       0.756   8.296  21.219  0.00  0.00    +0.000 N 
ATOM      2  C   UNL     1      -0.500   8.620  20.505  0.00  0.00    +0.000 C 
ATOM      3  C   UNL     1      -0.312  10.072  20.185  0.00  0.00    +0.000 A 
ATOM      4  C   UNL     1       0.527  10.608  21.168  0.00  0.00    +0.000 A 
ATOM      5  C   UNL     1       1.045  11.890  21.104  0.00  0.00    +0.000 A 
ATOM      6  C   UNL     1       0.715  12.656  19.985  0.00  0.00    +0.000 A 
ATOM      7  C   UNL     1      -0.115  12.119  18.976  0.00  0.00    +0.000 A 
ATOM      8  C   UNL     1      -0.642  10.812  19.055  0.00  0.00    +0.000 A 
ATOM      9  C   UNL     1       1.098   9.475  21.934  0.00  0.00    +0.000 C 
ATOM     10  O   UNL     1       1.877   9.600  22.860  0.00  0.00    +0.000 OA
ENDROOT
BRANCH   1  15
ATOM     11  C   UNL     1       2.610   5.774  19.271  0.00  0.00    +0.000 A 
ATOM     12  C   UNL     1       2.487   6.395  18.020  0.00  0.00    +0.000 A 
ATOM     13  C   UNL     1       2.203   7.751  17.907  0.00  0.00    +0.000 A 
ATOM     14  C   UNL     1       1.916   8.486  19.047  0.00  0.00    +0.000 A 
ATOM     15  C   UNL     1       1.757   7.822  20.272  0.00  0.00    +0.000 A 
ATOM     16  C   UNL     1       2.219   6.504  20.401  0.00  0.00    +0.000 A 
BRANCH  11  21
ATOM     17  C   UNL     1       0.835   3.112  19.865  0.00  0.00    +0.000 C 
ATOM     18  C   UNL     1       2.207   3.350  19.397  0.00  0.00    +0.000 C 
ATOM     19  N   UNL     1       3.052   2.565  18.818  0.00  0.00    +0.000 NA
ATOM     20  C   UNL     1       3.951   3.694  18.606  0.00  0.00    +0.000 C 
ATOM     21  N   UNL     1       3.023   4.436  19.366  0.00  0.00    +0.000 N 
ENDBRANCH  11  21
ENDBRANCH   1  15
BRANCH   6  22
ATOM     22  C   UNL     1       1.317  13.981  19.787  0.00  0.00    +0.000 C 
ATOM     23  C   UNL     1       2.545  14.250  20.245  0.00  0.00    +0.000 C 
ATOM     24  N   UNL     1       3.205  15.437  20.096  0.00  0.00    +0.000 NA
ATOM     25  C   UNL     1       2.599  16.385  19.452  0.00  0.00    +0.000 C 
ATOM     26  C   UNL     1       1.227  16.315  18.842  0.00  0.00    +0.000 C 
ATOM     27  C   UNL     1       0.506  14.992  19.046  0.00  0.00    +0.000 C 
ENDBRANCH   6  22
BRANCH   8  28
ATOM     28  C   UNL     1      -1.405  10.258  17.879  0.00  0.00    +0.000 C 
ATOM     29  F   UNL     1      -2.549   9.601  18.217  0.00  0.00    +0.000 F 
ATOM     30  F   UNL     1      -1.784  11.233  17.009  0.00  0.00    +0.000 F 
ATOM     31  F   UNL     1      -0.668   9.372  17.156  0.00  0.00    +0.000 F 
ENDBRANCH   8  28
TORSDOF 4
ENDMDL
MODEL 5
REMARK VINA RESULT:      -7.9      4.017      8.705
REMARK  Name = 
REMARK  5 active torsions:
REMARK  status: ('A' for Active; 'I' for Inactive)
REMARK    1  A    between atoms: C_1  and  C_2
REMARK    2  A    between atoms: N_5  and  C_6
REMARK    3  A    between atoms: C_10  and  N_11
REMARK    4  A    between atoms: C_16  and  C_17
REMARK    5  A    between atoms: C_24  and  C_25
REMARK                            x       y       z     vdW  Elec       q    Type
REMARK                         _______ _______ _______ _____ _____    ______ ____
ROOT
ATOM      1  N   UNL     1       2.587   7.917  19.349  0.00  0.00    +0.000 N 
ATOM      2  C   UNL     1       2.232   8.732  20.535  0.00  0.00    +0.000 C 
ATOM      3  C   UNL     1       0.982   9.420  20.078  0.00  0.00    +0.000 A 
ATOM      4  C   UNL     1       1.056   9.536  18.686  0.00  0.00    +0.000 A 
ATOM      5  C   UNL     1       0.002   9.980  17.905  0.00  0.00    +0.000 A 
ATOM      6  C   UNL     1      -1.186  10.301  18.562  0.00  0.00    +0.000 A 
ATOM      7  C   UNL     1      -1.281  10.170  19.966  0.00  0.00    +0.000 A 
ATOM      8  C   UNL     1      -0.197   9.721  20.751  0.00  0.00    +0.000 A 
ATOM      9  C   UNL     1       2.184   8.690  18.228  0.00  0.00    +0.000 C 
ATOM     10  O   UNL     1       2.514   8.564  17.063  0.00  0.00    +0.000 OA
ENDROOT
BRANCH   1  15
ATOM     11  C   UNL     1       2.363   4.272  18.845  0.00  0.00    +0.000 A 
ATOM     12  C   UNL     1       2.073   3.930  20.174  0.00  0.00    +0.000 A 
ATOM     13  C   UNL     1       1.557   4.861  21.067  0.00  0.00    +0.000 A 
ATOM     14  C   UNL     1       1.433   6.185  20.680  0.00  0.00    +0.000 A 
ATOM     15  C   UNL     1       1.979   6.597  19.455  0.00  0.00    +0.000 A 
ATOM     16  C   UNL     1       2.328   5.629  18.501  0.00  0.00    +0.000 A 
BRANCH  11  21
ATOM     17  C   UNL     1       5.091   4.095  17.080  0.00  0.00    +0.000 C 
ATOM     18  C   UNL     1       4.002   3.158  17.388  0.00  0.00    +0.000 C 
ATOM     19  N   UNL     1       3.929   1.876  17.265  0.00  0.00    +0.000 NA
ATOM     20  C   UNL     1       2.647   1.885  17.960  0.00  0.00    +0.000 C 
ATOM     21  N   UNL     1       2.761   3.290  17.926  0.00  0.00    +0.000 N 
ENDBRANCH  11  21
ENDBRANCH   1  15
BRANCH   6  22
ATOM     22  C   UNL     1      -2.384  10.668  17.795  0.00  0.00    +0.000 C 
ATOM     23  C   UNL     1      -3.364  11.383  18.358  0.00  0.00    +0.000 C 
ATOM     24  N   UNL     1      -4.506  11.795  17.731  0.00  0.00    +0.000 NA
ATOM     25  C   UNL     1      -4.655  11.476  16.484  0.00  0.00    +0.000 C 
ATOM     26  C   UNL     1      -3.690  10.689  15.641  0.00  0.00    +0.000 C 
ATOM     27  C   UNL     1      -2.442  10.221  16.372  0.00  0.00    +0.000 C 
ENDBRANCH   6  22
BRANCH   8  28
ATOM     28  C   UNL     1      -0.412   9.474  22.223  0.00  0.00    +0.000 C 
ATOM     29  F   UNL     1       0.721   9.552  22.972  0.00  0.00    +0.000 F 
ATOM     30  F   UNL     1      -1.278  10.369  22.771  0.00  0.00    +0.000 F 
ATOM     31  F   UNL     1      -0.937   8.243  22.469  0.00  0.00    +0.000 F 
ENDBRANCH   8  28
TORSDOF 4
ENDMDL
MODEL 6
REMARK VINA RESULT:      -7.8      4.705      9.090
REMARK  Name = 
REMARK  5 active torsions:
REMARK  status: ('A' for Active; 'I' for Inactive)
REMARK    1  A    between atoms: C_1  and  C_2
REMARK    2  A    between atoms: N_5  and  C_6
REMARK    3  A    between atoms: C_10  and  N_11
REMARK    4  A    between atoms: C_16  and  C_17
REMARK    5  A    between atoms: C_24  and  C_25
REMARK                            x       y       z     vdW  Elec       q    Type
REMARK                         _______ _______ _______ _____ _____    ______ ____
ROOT
ATOM      1  N   UNL     1       0.719   8.443  21.148  0.00  0.00    +0.000 N 
ATOM      2  C   UNL     1      -0.551   8.712  20.433  0.00  0.00    +0.000 C 
ATOM      3  C   UNL     1      -0.386  10.147  20.033  0.00  0.00    +0.000 A 
ATOM      4  C   UNL     1       0.458  10.746  20.974  0.00  0.00    +0.000 A 
ATOM      5  C   UNL     1       0.959  12.029  20.834  0.00  0.00    +0.000 A 
ATOM      6  C   UNL     1       0.605  12.729  19.679  0.00  0.00    +0.000 A 
ATOM      7  C   UNL     1      -0.231  12.127  18.711  0.00  0.00    +0.000 A 
ATOM      8  C   UNL     1      -0.739  10.820  18.869  0.00  0.00    +0.000 A 
ATOM      9  C   UNL     1       1.053   9.663  21.793  0.00  0.00    +0.000 C 
ATOM     10  O   UNL     1       1.842   9.848  22.701  0.00  0.00    +0.000 OA
ENDROOT
BRANCH   1  15
ATOM     11  C   UNL     1       2.597   5.841  19.334  0.00  0.00    +0.000 A 
ATOM     12  C   UNL     1       2.438   6.376  18.047  0.00  0.00    +0.000 A 
ATOM     13  C   UNL     1       2.120   7.714  17.852  0.00  0.00    +0.000 A 
ATOM     14  C   UNL     1       1.836   8.516  18.946  0.00  0.00    +0.000 A 
ATOM     15  C   UNL     1       1.713   7.931  20.214  0.00  0.00    +0.000 A 
ATOM     16  C   UNL     1       2.208   6.634  20.420  0.00  0.00    +0.000 A 
BRANCH  11  21
ATOM     17  C   UNL     1       0.901   3.190  20.164  0.00  0.00    +0.000 C 
ATOM     18  C   UNL     1       2.254   3.423  19.638  0.00  0.00    +0.000 C 
ATOM     19  N   UNL     1       3.099   2.618  19.089  0.00  0.00    +0.000 NA
ATOM     20  C   UNL     1       3.965   3.748  18.773  0.00  0.00    +0.000 C 
ATOM     21  N   UNL     1       3.043   4.522  19.507  0.00  0.00    +0.000 N 
ENDBRANCH  11  21
ENDBRANCH   1  15
BRANCH   6  22
ATOM     22  C   UNL     1       1.187  14.048  19.401  0.00  0.00    +0.000 C 
ATOM     23  C   UNL     1       0.412  15.075  19.039  0.00  0.00    +0.000 C 
ATOM     24  N   UNL     1       0.846  16.345  18.780  0.00  0.00    +0.000 NA
ATOM     25  C   UNL     1       2.114  16.583  18.901  0.00  0.00    +0.000 C 
ATOM     26  C   UNL     1       3.174  15.594  19.303  0.00  0.00    +0.000 C 
ATOM     27  C   UNL     1       2.665  14.185  19.559  0.00  0.00    +0.000 C 
ENDBRANCH   6  22
BRANCH   8  28
ATOM     28  C   UNL     1      -1.510  10.193  17.735  0.00  0.00    +0.000 C 
ATOM     29  F   UNL     1      -1.921  11.077  16.784  0.00  0.00    +0.000 F 
ATOM     30  F   UNL     1      -0.778   9.256  17.074  0.00  0.00    +0.000 F 
ATOM     31  F   UNL     1      -2.636   9.559  18.163  0.00  0.00    +0.000 F 
ENDBRANCH   8  28
TORSDOF 4
ENDMDL
MODEL 7
REMARK VINA RESULT:      -7.8      4.643      8.945
REMARK  Name = 
REMARK  5 active torsions:
REMARK  status: ('A' for Active; 'I' for Inactive)
REMARK    1  A    between atoms: C_1  and  C_2
REMARK    2  A    between atoms: N_5  and  C_6
REMARK    3  A    between atoms: C_10  and  N_11
REMARK    4  A    between atoms: C_16  and  C_17
REMARK    5  A    between atoms: C_24  and  C_25
REMARK                            x       y       z     vdW  Elec       q    Type
REMARK                         _______ _______ _______ _____ _____    ______ ____
ROOT
ATOM      1  N   UNL     1       0.671   8.297  21.279  0.00  0.00    +0.000 N 
ATOM      2  C   UNL     1      -0.563   8.627  20.530  0.00  0.00    +0.000 C 
ATOM      3  C   UNL     1      -0.303  10.040  20.103  0.00  0.00    +0.000 A 
ATOM      4  C   UNL     1       0.556  10.608  21.050  0.00  0.00    +0.000 A 
ATOM      5  C   UNL     1       1.137  11.854  20.895  0.00  0.00    +0.000 A 
ATOM      6  C   UNL     1       0.852  12.548  19.718  0.00  0.00    +0.000 A 
ATOM      7  C   UNL     1       0.002  11.977  18.744  0.00  0.00    +0.000 A 
ATOM      8  C   UNL     1      -0.589  10.707  18.917  0.00  0.00    +0.000 A 
ATOM      9  C   UNL     1       1.066   9.509  21.905  0.00  0.00    +0.000 C 
ATOM     10  O   UNL     1       1.845   9.666  22.827  0.00  0.00    +0.000 OA
ENDROOT
BRANCH   1  15
ATOM     11  C   UNL     1       2.231   5.591  19.321  0.00  0.00    +0.000 A 
ATOM     12  C   UNL     1       2.317   6.283  18.104  0.00  0.00    +0.000 A 
ATOM     13  C   UNL     1       2.273   7.671  18.054  0.00  0.00    +0.000 A 
ATOM     14  C   UNL     1       2.021   8.390  19.212  0.00  0.00    +0.000 A 
ATOM     15  C   UNL     1       1.653   7.705  20.380  0.00  0.00    +0.000 A 
ATOM     16  C   UNL     1       1.876   6.322  20.461  0.00  0.00    +0.000 A 
BRANCH  11  21
ATOM     17  C   UNL     1       4.969   3.854  19.041  0.00  0.00    +0.000 C 
ATOM     18  C   UNL     1       3.594   3.547  19.460  0.00  0.00    +0.000 C 
ATOM     19  N   UNL     1       3.111   2.541  20.107  0.00  0.00    +0.000 NA
ATOM     20  C   UNL     1       1.820   3.213  20.184  0.00  0.00    +0.000 C 
ATOM     21  N   UNL     1       2.406   4.199  19.363  0.00  0.00    +0.000 N 
ENDBRANCH  11  21
ENDBRANCH   1  15
BRANCH   6  22
ATOM     22  C   UNL     1       1.519  13.824  19.426  0.00  0.00    +0.000 C 
ATOM     23  C   UNL     1       1.156  14.945  20.056  0.00  0.00    +0.000 C 
ATOM     24  N   UNL     1       1.723  16.176  19.877  0.00  0.00    +0.000 NA
ATOM     25  C   UNL     1       2.702  16.269  19.032  0.00  0.00    +0.000 C 
ATOM     26  C   UNL     1       3.287  15.150  18.216  0.00  0.00    +0.000 C 
ATOM     27  C   UNL     1       2.619  13.799  18.417  0.00  0.00    +0.000 C 
ENDBRANCH   6  22
BRANCH   8  28
ATOM     28  C   UNL     1      -1.372  10.103  17.780  0.00  0.00    +0.000 C 
ATOM     29  F   UNL     1      -2.502   9.450  18.165  0.00  0.00    +0.000 F 
ATOM     30  F   UNL     1      -1.777  11.040  16.881  0.00  0.00    +0.000 F 
ATOM     31  F   UNL     1      -0.642   9.195  17.074  0.00  0.00    +0.000 F 
ENDBRANCH   8  28
TORSDOF 4
ENDMDL
MODEL 8
REMARK VINA RESULT:      -7.8      4.527      9.053
REMARK  Name = 
REMARK  5 active torsions:
REMARK  status: ('A' for Active; 'I' for Inactive)
REMARK    1  A    between atoms: C_1  and  C_2
REMARK    2  A    between atoms: N_5  and  C_6
REMARK    3  A    between atoms: C_10  and  N_11
REMARK    4  A    between atoms: C_16  and  C_17
REMARK    5  A    between atoms: C_24  and  C_25
REMARK                            x       y       z     vdW  Elec       q    Type
REMARK                         _______ _______ _______ _____ _____    ______ ____
ROOT
ATOM      1  N   UNL     1       0.749   8.299  21.218  0.00  0.00    +0.000 N 
ATOM      2  C   UNL     1      -0.507   8.633  20.508  0.00  0.00    +0.000 C 
ATOM      3  C   UNL     1      -0.299  10.078  20.167  0.00  0.00    +0.000 A 
ATOM      4  C   UNL     1       0.556  10.614  21.136  0.00  0.00    +0.000 A 
ATOM      5  C   UNL     1       1.094  11.887  21.052  0.00  0.00    +0.000 A 
ATOM      6  C   UNL     1       0.768  12.642  19.924  0.00  0.00    +0.000 A 
ATOM      7  C   UNL     1      -0.077  12.105  18.928  0.00  0.00    +0.000 A 
ATOM      8  C   UNL     1      -0.625  10.808  19.029  0.00  0.00    +0.000 A 
ATOM      9  C   UNL     1       1.114   9.482  21.914  0.00  0.00    +0.000 C 
ATOM     10  O   UNL     1       1.901   9.607  22.833  0.00  0.00    +0.000 OA
ENDROOT
BRANCH   1  15
ATOM     11  C   UNL     1       2.484   5.733  19.220  0.00  0.00    +0.000 A 
ATOM     12  C   UNL     1       2.417   6.397  17.987  0.00  0.00    +0.000 A 
ATOM     13  C   UNL     1       2.213   7.770  17.912  0.00  0.00    +0.000 A 
ATOM     14  C   UNL     1       1.951   8.487  19.069  0.00  0.00    +0.000 A 
ATOM     15  C   UNL     1       1.735   7.797  20.271  0.00  0.00    +0.000 A 
ATOM     16  C   UNL     1       2.118   6.450  20.366  0.00  0.00    +0.000 A 
BRANCH  11  21
ATOM     17  C   UNL     1       5.398   4.317  18.917  0.00  0.00    +0.000 C 
ATOM     18  C   UNL     1       4.075   3.861  19.364  0.00  0.00    +0.000 C 
ATOM     19  N   UNL     1       3.721   2.817  20.034  0.00  0.00    +0.000 NA
ATOM     20  C   UNL     1       2.362   3.338  20.124  0.00  0.00    +0.000 C 
ATOM     21  N   UNL     1       2.818   4.371  19.279  0.00  0.00    +0.000 N 
ENDBRANCH  11  21
ENDBRANCH   1  15
BRANCH   6  22
ATOM     22  C   UNL     1       1.390  13.955  19.704  0.00  0.00    +0.000 C 
ATOM     23  C   UNL     1       2.683  14.154  19.979  0.00  0.00    +0.000 C 
ATOM     24  N   UNL     1       3.364  15.323  19.792  0.00  0.00    +0.000 NA
ATOM     25  C   UNL     1       2.709  16.327  19.299  0.00  0.00    +0.000 C 
ATOM     26  C   UNL     1       1.258  16.341  18.906  0.00  0.00    +0.000 C 
ATOM     27  C   UNL     1       0.520  15.034  19.150  0.00  0.00    +0.000 C 
ENDBRANCH   6  22
BRANCH   8  28
ATOM     28  C   UNL     1      -1.405  10.250  17.866  0.00  0.00    +0.000 C 
ATOM     29  F   UNL     1      -0.722   9.334  17.126  0.00  0.00    +0.000 F 
ATOM     30  F   UNL     1      -2.544   9.624  18.266  0.00  0.00    +0.000 F 
ATOM     31  F   UNL     1      -1.794  11.218  16.992  0.00  0.00    +0.000 F 
ENDBRANCH   8  28
TORSDOF 4
ENDMDL
MODEL 9
REMARK VINA RESULT:      -7.7      5.489      8.882
REMARK  Name = 
REMARK  5 active torsions:
REMARK  status: ('A' for Active; 'I' for Inactive)
REMARK    1  A    between atoms: C_1  and  C_2
REMARK    2  A    between atoms: N_5  and  C_6
REMARK    3  A    between atoms: C_10  and  N_11
REMARK    4  A    between atoms: C_16  and  C_17
REMARK    5  A    between atoms: C_24  and  C_25
REMARK                            x       y       z     vdW  Elec       q    Type
REMARK                         _______ _______ _______ _____ _____    ______ ____
ROOT
ATOM      1  N   UNL     1      -0.148  13.982  20.102  0.00  0.00    +0.000 N 
ATOM      2  C   UNL     1      -0.985  13.549  18.959  0.00  0.00    +0.000 C 
ATOM      3  C   UNL     1      -0.423  12.193  18.655  0.00  0.00    +0.000 A 
ATOM      4  C   UNL     1       0.918  12.201  19.056  0.00  0.00    +0.000 A 
ATOM      5  C   UNL     1       1.709  11.066  19.072  0.00  0.00    +0.000 A 
ATOM      6  C   UNL     1       1.111   9.865  18.685  0.00  0.00    +0.000 A 
ATOM      7  C   UNL     1      -0.248   9.841  18.298  0.00  0.00    +0.000 A 
ATOM      8  C   UNL     1      -1.043  11.007  18.280  0.00  0.00    +0.000 A 
ATOM      9  C   UNL     1       1.136  13.427  19.859  0.00  0.00    +0.000 C 
ATOM     10  O   UNL     1       2.201  13.732  20.364  0.00  0.00    +0.000 OA
ENDROOT
BRANCH   1  15
ATOM     11  C   UNL     1      -2.968  13.314  22.381  0.00  0.00    +0.000 A 
ATOM     12  C   UNL     1      -2.558  12.039  22.797  0.00  0.00    +0.000 A 
ATOM     13  C   UNL     1      -1.237  11.626  22.676  0.00  0.00    +0.000 A 
ATOM     14  C   UNL     1      -0.323  12.439  22.024  0.00  0.00    +0.000 A 
ATOM     15  C   UNL     1      -0.778  13.585  21.355  0.00  0.00    +0.000 A 
ATOM     16  C   UNL     1      -2.061  14.078  21.636  0.00  0.00    +0.000 A 
BRANCH  11  21
ATOM     17  C   UNL     1      -5.740  12.476  20.895  0.00  0.00    +0.000 C 
ATOM     18  C   UNL     1      -5.413  13.211  22.125  0.00  0.00    +0.000 C 
ATOM     19  N   UNL     1      -6.142  13.523  23.143  0.00  0.00    +0.000 NA
ATOM     20  C   UNL     1      -4.957  14.016  23.836  0.00  0.00    +0.000 C 
ATOM     21  N   UNL     1      -4.276  13.758  22.629  0.00  0.00    +0.000 N 
ENDBRANCH  11  21
ENDBRANCH   1  15
BRANCH   6  22
ATOM     22  C   UNL     1       1.850   8.600  18.786  0.00  0.00    +0.000 C 
ATOM     23  C   UNL     1       1.750   7.834  19.877  0.00  0.00    +0.000 C 
ATOM     24  N   UNL     1       2.374   6.633  20.064  0.00  0.00    +0.000 NA
ATOM     25  C   UNL     1       3.122   6.189  19.104  0.00  0.00    +0.000 C 
ATOM     26  C   UNL     1       3.379   6.865  17.786  0.00  0.00    +0.000 C 
ATOM     27  C   UNL     1       2.693   8.211  17.617  0.00  0.00    +0.000 C 
ENDBRANCH   6  22
BRANCH   8  28
ATOM     28  C   UNL     1      -2.517  10.883  17.989  0.00  0.00    +0.000 C 
ATOM     29  F   UNL     1      -3.321  11.389  18.963  0.00  0.00    +0.000 F 
ATOM     30  F   UNL     1      -2.870  11.530  16.846  0.00  0.00    +0.000 F 
ATOM     31  F   UNL     1      -2.904   9.588  17.824  0.00  0.00    +0.000 F 
ENDBRANCH   8  28
TORSDOF 4
ENDMDL
