MODEL 1
REMARK VINA RESULT:      -8.7      0.000      0.000
REMARK  Name = 
REMARK  5 active torsions:
REMARK  status: ('A' for Active; 'I' for Inactive)
REMARK    1  A    between atoms: C_1  and  N_2
REMARK    2  A    between atoms: C_6  and  C_7
REMARK    3  A    between atoms: C_7  and  C_8
REMARK    4  A    between atoms: C_8  and  C_9
REMARK    5  A    between atoms: C_13  and  N_14
REMARK                            x       y       z     vdW  Elec       q    Type
REMARK                         _______ _______ _______ _____ _____    ______ ____
ROOT
ATOM      1  C   UNL     1       5.182   6.000  18.113  0.00  0.00    +0.000 A 
ATOM      2  C   UNL     1       4.525   7.194  17.765  0.00  0.00    +0.000 A 
ATOM      3  C   UNL     1       3.131   7.268  17.710  0.00  0.00    +0.000 A 
ATOM      4  C   UNL     1       2.358   6.140  17.980  0.00  0.00    +0.000 A 
ATOM      5  C   UNL     1       2.960   4.933  18.350  0.00  0.00    +0.000 A 
ATOM      6  C   UNL     1       4.355   4.910  18.461  0.00  0.00    +0.000 A 
ENDROOT
BRANCH   5   7
ATOM      7  N   UNL     1       2.190   3.732  18.482  0.00  0.00    +0.000 N 
ATOM      8  C   UNL     1       1.061   3.635  19.399  0.00  0.00    +0.000 C 
ATOM      9  C   UNL     1       1.238   2.699  20.582  0.00  0.00    +0.000 C 
ATOM     10  C   UNL     1       2.489   2.948  21.361  0.00  0.00    +0.000 C 
ATOM     11  F   UNL     1       2.312   3.481  22.579  0.00  0.00    +0.000 F 
ATOM     12  N   UNL     1       3.697   2.713  21.037  0.00  0.00    +0.000 NA
ATOM     13  C   UNL     1       4.265   2.191  19.802  0.00  0.00    +0.000 C 
ATOM     14  C   UNL     1       3.349   1.578  18.753  0.00  0.00    +0.000 C 
ATOM     15  C   UNL     1       2.632   2.575  17.854  0.00  0.00    +0.000 C 
ATOM     16  O   UNL     1       2.428   2.335  16.665  0.00  0.00    +0.000 OA
ENDBRANCH   5   7
BRANCH   1  17
ATOM     17  C   UNL     1       6.780   5.804  18.005  0.00  0.00    +0.000 C 
ATOM     18  C   UNL     1       7.622   7.074  17.676  0.00  0.00    +0.000 C 
ATOM     19  O   UNL     1       8.376   6.966  18.902  0.00  0.00    +0.000 OA
ATOM     20  C   UNL     1       7.550   5.878  19.355  0.00  0.00    +0.000 C 
BRANCH  17  21
ATOM     21  C   UNL     1       7.166   4.551  17.192  0.00  0.00    +0.000 C 
BRANCH  21  27
ATOM     22  C   UNL     1       5.223   3.008  15.271  0.00  0.00    +0.000 C 
ATOM     23  N   UNL     1       6.188   4.011  14.899  0.00  0.00    +0.000 N 
ATOM     24  C   UNL     1       6.433   4.430  13.628  0.00  0.00    +0.000 A 
ATOM     25  N   UNL     1       7.394   5.324  13.641  0.00  0.00    +0.000 NA
ATOM     26  N   UNL     1       7.791   5.485  14.941  0.00  0.00    +0.000 NA
ATOM     27  C   UNL     1       7.053   4.707  15.710  0.00  0.00    +0.000 A 
ENDBRANCH  21  27
ENDBRANCH  17  21
ENDBRANCH   1  17
TORSDOF 4
ENDMDL
MODEL 2
REMARK VINA RESULT:      -8.7      1.968      3.137
REMARK  Name = 
REMARK  5 active torsions:
REMARK  status: ('A' for Active; 'I' for Inactive)
REMARK    1  A    between atoms: C_1  and  N_2
REMARK    2  A    between atoms: C_6  and  C_7
REMARK    3  A    between atoms: C_7  and  C_8
REMARK    4  A    between atoms: C_8  and  C_9
REMARK    5  A    between atoms: C_13  and  N_14
REMARK                            x       y       z     vdW  Elec       q    Type
REMARK                         _______ _______ _______ _____ _____    ______ ____
ROOT
ATOM      1  C   UNL     1       4.747   5.505  16.788  0.00  0.00    +0.000 A 
ATOM      2  C   UNL     1       4.342   6.816  17.100  0.00  0.00    +0.000 A 
ATOM      3  C   UNL     1       3.217   7.061  17.893  0.00  0.00    +0.000 A 
ATOM      4  C   UNL     1       2.455   5.998  18.375  0.00  0.00    +0.000 A 
ATOM      5  C   UNL     1       2.824   4.676  18.112  0.00  0.00    +0.000 A 
ATOM      6  C   UNL     1       3.993   4.463  17.371  0.00  0.00    +0.000 A 
ENDROOT
BRANCH   5   7
ATOM      7  N   UNL     1       1.971   3.583  18.471  0.00  0.00    +0.000 N 
ATOM      8  C   UNL     1       0.915   3.723  19.466  0.00  0.00    +0.000 C 
ATOM      9  C   UNL     1       1.109   2.950  20.760  0.00  0.00    +0.000 C 
ATOM     10  C   UNL     1       2.435   3.187  21.406  0.00  0.00    +0.000 C 
ATOM     11  F   UNL     1       2.402   3.900  22.543  0.00  0.00    +0.000 F 
ATOM     12  N   UNL     1       3.589   2.796  21.040  0.00  0.00    +0.000 NA
ATOM     13  C   UNL     1       4.010   2.054  19.859  0.00  0.00    +0.000 C 
ATOM     14  C   UNL     1       2.964   1.389  18.977  0.00  0.00    +0.000 C 
ATOM     15  C   UNL     1       2.262   2.313  17.992  0.00  0.00    +0.000 C 
ATOM     16  O   UNL     1       1.944   1.929  16.867  0.00  0.00    +0.000 OA
ENDBRANCH   5   7
BRANCH   1  17
ATOM     17  C   UNL     1       5.913   5.167  15.727  0.00  0.00    +0.000 C 
ATOM     18  C   UNL     1       6.050   3.679  15.284  0.00  0.00    +0.000 C 
ATOM     19  O   UNL     1       5.820   4.006  13.898  0.00  0.00    +0.000 OA
ATOM     20  C   UNL     1       5.532   5.377  14.233  0.00  0.00    +0.000 C 
BRANCH  17  21
ATOM     21  C   UNL     1       7.249   5.854  16.080  0.00  0.00    +0.000 C 
BRANCH  21  27
ATOM     22  C   UNL     1       7.996   8.290  17.912  0.00  0.00    +0.000 C 
ATOM     23  N   UNL     1       7.933   6.905  18.301  0.00  0.00    +0.000 N 
ATOM     24  C   UNL     1       8.224   6.426  19.541  0.00  0.00    +0.000 A 
ATOM     25  N   UNL     1       8.098   5.119  19.543  0.00  0.00    +0.000 NA
ATOM     26  N   UNL     1       7.729   4.737  18.282  0.00  0.00    +0.000 NA
ATOM     27  C   UNL     1       7.609   5.814  17.530  0.00  0.00    +0.000 A 
ENDBRANCH  21  27
ENDBRANCH  17  21
ENDBRANCH   1  17
TORSDOF 4
ENDMDL
MODEL 3
REMARK VINA RESULT:      -8.6      1.733      2.299
REMARK  Name = 
REMARK  5 active torsions:
REMARK  status: ('A' for Active; 'I' for Inactive)
REMARK    1  A    between atoms: C_1  and  N_2
REMARK    2  A    between atoms: C_6  and  C_7
REMARK    3  A    between atoms: C_7  and  C_8
REMARK    4  A    between atoms: C_8  and  C_9
REMARK    5  A    between atoms: C_13  and  N_14
REMARK                            x       y       z     vdW  Elec       q    Type
REMARK                         _______ _______ _______ _____ _____    ______ ____
ROOT
ATOM      1  C   UNL     1       5.436   6.196  18.138  0.00  0.00    +0.000 A 
ATOM      2  C   UNL     1       4.566   6.951  17.331  0.00  0.00    +0.000 A 
ATOM      3  C   UNL     1       3.178   6.836  17.451  0.00  0.00    +0.000 A 
ATOM      4  C   UNL     1       2.625   5.942  18.366  0.00  0.00    +0.000 A 
ATOM      5  C   UNL     1       3.445   5.181  19.207  0.00  0.00    +0.000 A 
ATOM      6  C   UNL     1       4.829   5.369  19.109  0.00  0.00    +0.000 A 
ENDROOT
BRANCH   5   7
ATOM      7  N   UNL     1       2.898   4.154  20.042  0.00  0.00    +0.000 N 
ATOM      8  C   UNL     1       3.683   2.999  20.459  0.00  0.00    +0.000 C 
ATOM      9  C   UNL     1       3.251   1.657  19.895  0.00  0.00    +0.000 C 
ATOM     10  C   UNL     1       3.110   1.650  18.407  0.00  0.00    +0.000 C 
ATOM     11  F   UNL     1       4.043   0.948  17.744  0.00  0.00    +0.000 F 
ATOM     12  N   UNL     1       2.224   2.202  17.681  0.00  0.00    +0.000 NA
ATOM     13  C   UNL     1       1.104   3.063  18.039  0.00  0.00    +0.000 C 
ATOM     14  C   UNL     1       0.697   3.199  19.498  0.00  0.00    +0.000 C 
ATOM     15  C   UNL     1       1.538   4.163  20.321  0.00  0.00    +0.000 C 
ATOM     16  O   UNL     1       1.036   4.864  21.199  0.00  0.00    +0.000 OA
ENDBRANCH   5   7
BRANCH   1  17
ATOM     17  C   UNL     1       7.032   6.145  17.913  0.00  0.00    +0.000 C 
ATOM     18  C   UNL     1       7.716   7.463  17.437  0.00  0.00    +0.000 C 
ATOM     19  O   UNL     1       8.566   7.515  18.602  0.00  0.00    +0.000 OA
ATOM     20  C   UNL     1       7.890   6.387  19.189  0.00  0.00    +0.000 C 
BRANCH  17  21
ATOM     21  C   UNL     1       7.480   4.881  17.152  0.00  0.00    +0.000 C 
BRANCH  21  27
ATOM     22  C   UNL     1       4.969   3.478  15.898  0.00  0.00    +0.000 C 
ATOM     23  N   UNL     1       5.983   4.221  15.195  0.00  0.00    +0.000 N 
ATOM     24  C   UNL     1       6.026   4.406  13.848  0.00  0.00    +0.000 A 
ATOM     25  N   UNL     1       7.098   5.098  13.538  0.00  0.00    +0.000 NA
ATOM     26  N   UNL     1       7.772   5.360  14.700  0.00  0.00    +0.000 NA
ATOM     27  C   UNL     1       7.093   4.848  15.709  0.00  0.00    +0.000 A 
ENDBRANCH  21  27
ENDBRANCH  17  21
ENDBRANCH   1  17
TORSDOF 4
ENDMDL
MODEL 4
REMARK VINA RESULT:      -8.6      5.305      7.742
REMARK  Name = 
REMARK  5 active torsions:
REMARK  status: ('A' for Active; 'I' for Inactive)
REMARK    1  A    between atoms: C_1  and  N_2
REMARK    2  A    between atoms: C_6  and  C_7
REMARK    3  A    between atoms: C_7  and  C_8
REMARK    4  A    between atoms: C_8  and  C_9
REMARK    5  A    between atoms: C_13  and  N_14
REMARK                            x       y       z     vdW  Elec       q    Type
REMARK                         _______ _______ _______ _____ _____    ______ ____
ROOT
ATOM      1  C   UNL     1       1.431   8.654  19.915  0.00  0.00    +0.000 A 
ATOM      2  C   UNL     1       1.714   9.131  18.622  0.00  0.00    +0.000 A 
ATOM      3  C   UNL     1       2.412   8.351  17.695  0.00  0.00    +0.000 A 
ATOM      4  C   UNL     1       2.864   7.081  18.048  0.00  0.00    +0.000 A 
ATOM      5  C   UNL     1       2.593   6.551  19.313  0.00  0.00    +0.000 A 
ATOM      6  C   UNL     1       1.834   7.330  20.195  0.00  0.00    +0.000 A 
ENDROOT
BRANCH   5   7
ATOM      7  N   UNL     1       3.178   5.315  19.740  0.00  0.00    +0.000 N 
ATOM      8  C   UNL     1       4.496   4.888  19.285  0.00  0.00    +0.000 C 
ATOM      9  C   UNL     1       4.528   3.666  18.384  0.00  0.00    +0.000 C 
ATOM     10  C   UNL     1       3.607   3.762  17.211  0.00  0.00    +0.000 C 
ATOM     11  F   UNL     1       4.205   3.912  16.019  0.00  0.00    +0.000 F 
ATOM     12  N   UNL     1       2.336   3.708  17.182  0.00  0.00    +0.000 NA
ATOM     13  C   UNL     1       1.365   3.599  18.262  0.00  0.00    +0.000 C 
ATOM     14  C   UNL     1       1.837   3.253  19.666  0.00  0.00    +0.000 C 
ATOM     15  C   UNL     1       2.407   4.417  20.465  0.00  0.00    +0.000 C 
ATOM     16  O   UNL     1       2.221   4.515  21.677  0.00  0.00    +0.000 OA
ENDBRANCH   5   7
BRANCH   1  17
ATOM     17  C   UNL     1       0.804   9.575  21.081  0.00  0.00    +0.000 C 
ATOM     18  C   UNL     1      -0.489   9.048  21.773  0.00  0.00    +0.000 C 
ATOM     19  O   UNL     1       0.142   9.022  23.070  0.00  0.00    +0.000 OA
ATOM     20  C   UNL     1       1.417   9.363  22.495  0.00  0.00    +0.000 C 
BRANCH  17  21
ATOM     21  C   UNL     1       0.759  11.068  20.693  0.00  0.00    +0.000 C 
BRANCH  21  27
ATOM     22  C   UNL     1      -1.080  12.756  22.594  0.00  0.00    +0.000 C 
ATOM     23  N   UNL     1      -1.385  12.332  21.251  0.00  0.00    +0.000 N 
ATOM     24  C   UNL     1      -2.553  12.576  20.599  0.00  0.00    +0.000 A 
ATOM     25  N   UNL     1      -2.512  12.021  19.410  0.00  0.00    +0.000 NA
ATOM     26  N   UNL     1      -1.301  11.395  19.287  0.00  0.00    +0.000 NA
ATOM     27  C   UNL     1      -0.606  11.595  20.391  0.00  0.00    +0.000 A 
ENDBRANCH  21  27
ENDBRANCH  17  21
ENDBRANCH   1  17
TORSDOF 4
ENDMDL
MODEL 5
REMARK VINA RESULT:      -8.6      1.551      1.957
REMARK  Name = 
REMARK  5 active torsions:
REMARK  status: ('A' for Active; 'I' for Inactive)
REMARK    1  A    between atoms: C_1  and  N_2
REMARK    2  A    between atoms: C_6  and  C_7
REMARK    3  A    between atoms: C_7  and  C_8
REMARK    4  A    between atoms: C_8  and  C_9
REMARK    5  A    between atoms: C_13  and  N_14
REMARK                            x       y       z     vdW  Elec       q    Type
REMARK                         _______ _______ _______ _____ _____    ______ ____
ROOT
ATOM      1  C   UNL     1       5.596   5.807  18.102  0.00  0.00    +0.000 A 
ATOM      2  C   UNL     1       4.553   6.681  17.747  0.00  0.00    +0.000 A 
ATOM      3  C   UNL     1       3.213   6.319  17.909  0.00  0.00    +0.000 A 
ATOM      4  C   UNL     1       2.882   5.060  18.409  0.00  0.00    +0.000 A 
ATOM      5  C   UNL     1       3.880   4.160  18.796  0.00  0.00    +0.000 A 
ATOM      6  C   UNL     1       5.212   4.579  18.684  0.00  0.00    +0.000 A 
ENDROOT
BRANCH   5   7
ATOM      7  N   UNL     1       3.560   2.814  19.167  0.00  0.00    +0.000 N 
ATOM      8  C   UNL     1       2.578   2.025  18.434  0.00  0.00    +0.000 C 
ATOM      9  C   UNL     1       1.300   1.685  19.183  0.00  0.00    +0.000 C 
ATOM     10  C   UNL     1       0.628   2.873  19.789  0.00  0.00    +0.000 C 
ATOM     11  F   UNL     1      -0.524   3.242  19.208  0.00  0.00    +0.000 F 
ATOM     12  N   UNL     1       0.985   3.576  20.788  0.00  0.00    +0.000 NA
ATOM     13  C   UNL     1       2.177   3.503  21.623  0.00  0.00    +0.000 C 
ATOM     14  C   UNL     1       3.090   2.291  21.525  0.00  0.00    +0.000 C 
ATOM     15  C   UNL     1       4.064   2.304  20.355  0.00  0.00    +0.000 C 
ATOM     16  O   UNL     1       5.203   1.849  20.463  0.00  0.00    +0.000 OA
ENDBRANCH   5   7
BRANCH   1  17
ATOM     17  C   UNL     1       7.146   6.093  17.761  0.00  0.00    +0.000 C 
ATOM     18  C   UNL     1       7.502   7.526  17.261  0.00  0.00    +0.000 C 
ATOM     19  O   UNL     1       8.408   7.752  18.361  0.00  0.00    +0.000 OA
ATOM     20  C   UNL     1       8.027   6.506  18.975  0.00  0.00    +0.000 C 
BRANCH  17  21
ATOM     21  C   UNL     1       7.790   4.952  16.946  0.00  0.00    +0.000 C 
BRANCH  21  27
ATOM     22  C   UNL     1       5.538   3.133  15.735  0.00  0.00    +0.000 C 
ATOM     23  N   UNL     1       6.367   4.071  15.022  0.00  0.00    +0.000 N 
ATOM     24  C   UNL     1       6.321   4.294  13.681  0.00  0.00    +0.000 A 
ATOM     25  N   UNL     1       7.232   5.182  13.356  0.00  0.00    +0.000 NA
ATOM     26  N   UNL     1       7.890   5.538  14.502  0.00  0.00    +0.000 NA
ATOM     27  C   UNL     1       7.359   4.883  15.517  0.00  0.00    +0.000 A 
ENDBRANCH  21  27
ENDBRANCH  17  21
ENDBRANCH   1  17
TORSDOF 4
ENDMDL
MODEL 6
REMARK VINA RESULT:      -8.5      5.201      7.602
REMARK  Name = 
REMARK  5 active torsions:
REMARK  status: ('A' for Active; 'I' for Inactive)
REMARK    1  A    between atoms: C_1  and  N_2
REMARK    2  A    between atoms: C_6  and  C_7
REMARK    3  A    between atoms: C_7  and  C_8
REMARK    4  A    between atoms: C_8  and  C_9
REMARK    5  A    between atoms: C_13  and  N_14
REMARK                            x       y       z     vdW  Elec       q    Type
REMARK                         _______ _______ _______ _____ _____    ______ ____
ROOT
ATOM      1  C   UNL     1       1.467   8.576  19.827  0.00  0.00    +0.000 A 
ATOM      2  C   UNL     1       1.792   9.050  18.543  0.00  0.00    +0.000 A 
ATOM      3  C   UNL     1       2.524   8.271  17.643  0.00  0.00    +0.000 A 
ATOM      4  C   UNL     1       2.972   7.004  18.015  0.00  0.00    +0.000 A 
ATOM      5  C   UNL     1       2.660   6.477  19.273  0.00  0.00    +0.000 A 
ATOM      6  C   UNL     1       1.868   7.256  20.125  0.00  0.00    +0.000 A 
ENDROOT
BRANCH   5   7
ATOM      7  N   UNL     1       3.238   5.246  19.723  0.00  0.00    +0.000 N 
ATOM      8  C   UNL     1       4.551   4.801  19.276  0.00  0.00    +0.000 C 
ATOM      9  C   UNL     1       4.574   3.561  18.399  0.00  0.00    +0.000 C 
ATOM     10  C   UNL     1       3.651   3.640  17.226  0.00  0.00    +0.000 C 
ATOM     11  F   UNL     1       4.249   3.761  16.030  0.00  0.00    +0.000 F 
ATOM     12  N   UNL     1       2.380   3.594  17.199  0.00  0.00    +0.000 NA
ATOM     13  C   UNL     1       1.410   3.513  18.282  0.00  0.00    +0.000 C 
ATOM     14  C   UNL     1       1.882   3.193  19.692  0.00  0.00    +0.000 C 
ATOM     15  C   UNL     1       2.461   4.368  20.467  0.00  0.00    +0.000 C 
ATOM     16  O   UNL     1       2.277   4.492  21.677  0.00  0.00    +0.000 OA
ENDBRANCH   5   7
BRANCH   1  17
ATOM     17  C   UNL     1       0.797   9.498  20.968  0.00  0.00    +0.000 C 
ATOM     18  C   UNL     1      -0.513   8.962  21.623  0.00  0.00    +0.000 C 
ATOM     19  O   UNL     1       0.079   8.949  22.939  0.00  0.00    +0.000 OA
ATOM     20  C   UNL     1       1.368   9.299  22.402  0.00  0.00    +0.000 C 
BRANCH  17  21
ATOM     21  C   UNL     1       0.749  10.988  20.570  0.00  0.00    +0.000 C 
BRANCH  21  27
ATOM     22  C   UNL     1      -1.332  10.996  18.222  0.00  0.00    +0.000 C 
ATOM     23  N   UNL     1      -1.501  11.580  19.528  0.00  0.00    +0.000 N 
ATOM     24  C   UNL     1      -2.601  12.267  19.942  0.00  0.00    +0.000 A 
ATOM     25  N   UNL     1      -2.412  12.692  21.169  0.00  0.00    +0.000 NA
ATOM     26  N   UNL     1      -1.165  12.285  21.561  0.00  0.00    +0.000 NA
ATOM     27  C   UNL     1      -0.615  11.595  20.578  0.00  0.00    +0.000 A 
ENDBRANCH  21  27
ENDBRANCH  17  21
ENDBRANCH   1  17
TORSDOF 4
ENDMDL
MODEL 7
REMARK VINA RESULT:      -8.4      4.596      6.959
REMARK  Name = 
REMARK  5 active torsions:
REMARK  status: ('A' for Active; 'I' for Inactive)
REMARK    1  A    between atoms: C_1  and  N_2
REMARK    2  A    between atoms: C_6  and  C_7
REMARK    3  A    between atoms: C_7  and  C_8
REMARK    4  A    between atoms: C_8  and  C_9
REMARK    5  A    between atoms: C_13  and  N_14
REMARK                            x       y       z     vdW  Elec       q    Type
REMARK                         _______ _______ _______ _____ _____    ______ ____
ROOT
ATOM      1  C   UNL     1       1.783   7.858  19.670  0.00  0.00    +0.000 A 
ATOM      2  C   UNL     1       2.421   8.190  18.461  0.00  0.00    +0.000 A 
ATOM      3  C   UNL     1       3.207   7.261  17.773  0.00  0.00    +0.000 A 
ATOM      4  C   UNL     1       3.393   5.980  18.292  0.00  0.00    +0.000 A 
ATOM      5  C   UNL     1       2.765   5.592  19.480  0.00  0.00    +0.000 A 
ATOM      6  C   UNL     1       1.932   6.525  20.109  0.00  0.00    +0.000 A 
ENDROOT
BRANCH   5   7
ATOM      7  N   UNL     1       3.067   4.337  20.101  0.00  0.00    +0.000 N 
ATOM      8  C   UNL     1       4.055   3.420  19.547  0.00  0.00    +0.000 C 
ATOM      9  C   UNL     1       3.518   2.109  19.000  0.00  0.00    +0.000 C 
ATOM     10  C   UNL     1       2.399   2.281  18.024  0.00  0.00    +0.000 C 
ATOM     11  F   UNL     1       2.700   1.995  16.748  0.00  0.00    +0.000 F 
ATOM     12  N   UNL     1       1.199   2.645  18.234  0.00  0.00    +0.000 NA
ATOM     13  C   UNL     1       0.536   3.071  19.459  0.00  0.00    +0.000 C 
ATOM     14  C   UNL     1       1.226   2.861  20.799  0.00  0.00    +0.000 C 
ATOM     15  C   UNL     1       2.279   3.900  21.157  0.00  0.00    +0.000 C 
ATOM     16  O   UNL     1       2.435   4.282  22.316  0.00  0.00    +0.000 OA
ENDBRANCH   5   7
BRANCH   1  17
ATOM     17  C   UNL     1       1.029   8.940  20.599  0.00  0.00    +0.000 C 
ATOM     18  C   UNL     1      -0.285   8.471  21.295  0.00  0.00    +0.000 C 
ATOM     19  O   UNL     1       0.250   8.725  22.612  0.00  0.00    +0.000 OA
ATOM     20  C   UNL     1       1.546   9.031  22.064  0.00  0.00    +0.000 C 
BRANCH  17  21
ATOM     21  C   UNL     1       0.940  10.329  19.934  0.00  0.00    +0.000 C 
BRANCH  21  27
ATOM     22  C   UNL     1      -1.498  12.101  20.805  0.00  0.00    +0.000 C 
ATOM     23  N   UNL     1      -1.366  11.358  19.578  0.00  0.00    +0.000 N 
ATOM     24  C   UNL     1      -2.311  11.284  18.602  0.00  0.00    +0.000 A 
ATOM     25  N   UNL     1      -1.883  10.498  17.641  0.00  0.00    +0.000 NA
ATOM     26  N   UNL     1      -0.643  10.043  18.000  0.00  0.00    +0.000 NA
ATOM     27  C   UNL     1      -0.315  10.575  19.163  0.00  0.00    +0.000 A 
ENDBRANCH  21  27
ENDBRANCH  17  21
ENDBRANCH   1  17
TORSDOF 4
ENDMDL
MODEL 8
REMARK VINA RESULT:      -8.4      5.120      7.309
REMARK  Name = 
REMARK  5 active torsions:
REMARK  status: ('A' for Active; 'I' for Inactive)
REMARK    1  A    between atoms: C_1  and  N_2
REMARK    2  A    between atoms: C_6  and  C_7
REMARK    3  A    between atoms: C_7  and  C_8
REMARK    4  A    between atoms: C_8  and  C_9
REMARK    5  A    between atoms: C_13  and  N_14
REMARK                            x       y       z     vdW  Elec       q    Type
REMARK                         _______ _______ _______ _____ _____    ______ ____
ROOT
ATOM      1  C   UNL     1       1.411   8.536  19.645  0.00  0.00    +0.000 A 
ATOM      2  C   UNL     1       1.805   9.021  18.385  0.00  0.00    +0.000 A 
ATOM      3  C   UNL     1       2.648   8.280  17.551  0.00  0.00    +0.000 A 
ATOM      4  C   UNL     1       3.135   7.042  17.969  0.00  0.00    +0.000 A 
ATOM      5  C   UNL     1       2.758   6.505  19.204  0.00  0.00    +0.000 A 
ATOM      6  C   UNL     1       1.861   7.242  19.986  0.00  0.00    +0.000 A 
ENDROOT
BRANCH   5   7
ATOM      7  N   UNL     1       3.368   5.312  19.709  0.00  0.00    +0.000 N 
ATOM      8  C   UNL     1       4.728   4.929  19.352  0.00  0.00    +0.000 C 
ATOM      9  C   UNL     1       4.869   3.681  18.498  0.00  0.00    +0.000 C 
ATOM     10  C   UNL     1       4.019   3.697  17.268  0.00  0.00    +0.000 C 
ATOM     11  F   UNL     1       4.685   3.834  16.111  0.00  0.00    +0.000 F 
ATOM     12  N   UNL     1       2.756   3.585  17.163  0.00  0.00    +0.000 NA
ATOM     13  C   UNL     1       1.725   3.469  18.184  0.00  0.00    +0.000 C 
ATOM     14  C   UNL     1       2.122   3.191  19.626  0.00  0.00    +0.000 C 
ATOM     15  C   UNL     1       2.590   4.404  20.416  0.00  0.00    +0.000 C 
ATOM     16  O   UNL     1       2.325   4.534  21.611  0.00  0.00    +0.000 OA
ENDBRANCH   5   7
BRANCH   1  17
ATOM     17  C   UNL     1       0.603   9.425  20.722  0.00  0.00    +0.000 C 
ATOM     18  C   UNL     1      -0.357   8.661  21.683  0.00  0.00    +0.000 C 
ATOM     19  O   UNL     1       0.353   9.116  22.854  0.00  0.00    +0.000 OA
ATOM     20  C   UNL     1       1.372   9.728  22.041  0.00  0.00    +0.000 C 
BRANCH  17  21
ATOM     21  C   UNL     1       0.003  10.703  20.101  0.00  0.00    +0.000 C 
BRANCH  21  27
ATOM     22  C   UNL     1       2.158  12.390  18.566  0.00  0.00    +0.000 C 
ATOM     23  N   UNL     1       1.584  12.689  19.853  0.00  0.00    +0.000 N 
ATOM     24  C   UNL     1       1.917  13.755  20.631  0.00  0.00    +0.000 A 
ATOM     25  N   UNL     1       1.232  13.708  21.749  0.00  0.00    +0.000 NA
ATOM     26  N   UNL     1       0.446  12.588  21.707  0.00  0.00    +0.000 NA
ATOM     27  C   UNL     1       0.640  11.977  20.553  0.00  0.00    +0.000 A 
ENDBRANCH  21  27
ENDBRANCH  17  21
ENDBRANCH   1  17
TORSDOF 4
ENDMDL
MODEL 9
REMARK VINA RESULT:      -8.4      2.498      3.835
REMARK  Name = 
REMARK  5 active torsions:
REMARK  status: ('A' for Active; 'I' for Inactive)
REMARK    1  A    between atoms: C_1  and  N_2
REMARK    2  A    between atoms: C_6  and  C_7
REMARK    3  A    between atoms: C_7  and  C_8
REMARK    4  A    between atoms: C_8  and  C_9
REMARK    5  A    between atoms: C_13  and  N_14
REMARK                            x       y       z     vdW  Elec       q    Type
REMARK                         _______ _______ _______ _____ _____    ______ ____
ROOT
ATOM      1  C   UNL     1       4.907   5.740  16.876  0.00  0.00    +0.000 A 
ATOM      2  C   UNL     1       4.282   6.987  16.690  0.00  0.00    +0.000 A 
ATOM      3  C   UNL     1       3.302   7.449  17.574  0.00  0.00    +0.000 A 
ATOM      4  C   UNL     1       2.906   6.662  18.654  0.00  0.00    +0.000 A 
ATOM      5  C   UNL     1       3.509   5.424  18.896  0.00  0.00    +0.000 A 
ATOM      6  C   UNL     1       4.533   5.020  18.031  0.00  0.00    +0.000 A 
ENDROOT
BRANCH   5   7
ATOM      7  N   UNL     1       3.009   4.542  19.908  0.00  0.00    +0.000 N 
ATOM      8  C   UNL     1       3.789   3.417  20.406  0.00  0.00    +0.000 C 
ATOM      9  C   UNL     1       3.258   2.034  20.070  0.00  0.00    +0.000 C 
ATOM     10  C   UNL     1       2.976   1.838  18.615  0.00  0.00    +0.000 C 
ATOM     11  F   UNL     1       3.816   1.012  17.973  0.00  0.00    +0.000 F 
ATOM     12  N   UNL     1       2.044   2.331  17.904  0.00  0.00    +0.000 NA
ATOM     13  C   UNL     1       0.995   3.284  18.241  0.00  0.00    +0.000 C 
ATOM     14  C   UNL     1       0.733   3.629  19.699  0.00  0.00    +0.000 C 
ATOM     15  C   UNL     1       1.683   4.653  20.305  0.00  0.00    +0.000 C 
ATOM     16  O   UNL     1       1.292   5.487  21.121  0.00  0.00    +0.000 OA
ENDBRANCH   5   7
BRANCH   1  17
ATOM     17  C   UNL     1       5.897   5.075  15.790  0.00  0.00    +0.000 C 
ATOM     18  C   UNL     1       5.584   3.610  15.360  0.00  0.00    +0.000 C 
ATOM     19  O   UNL     1       5.423   3.985  13.976  0.00  0.00    +0.000 OA
ATOM     20  C   UNL     1       5.553   5.382  14.304  0.00  0.00    +0.000 C 
BRANCH  17  21
ATOM     21  C   UNL     1       7.383   5.347  16.103  0.00  0.00    +0.000 C 
BRANCH  21  27
ATOM     22  C   UNL     1       7.768   8.058  17.636  0.00  0.00    +0.000 C 
ATOM     23  N   UNL     1       7.858   6.731  18.192  0.00  0.00    +0.000 N 
ATOM     24  C   UNL     1       8.161   6.444  19.487  0.00  0.00    +0.000 A 
ATOM     25  N   UNL     1       8.194   5.141  19.647  0.00  0.00    +0.000 NA
ATOM     26  N   UNL     1       7.917   4.568  18.435  0.00  0.00    +0.000 NA
ATOM     27  C   UNL     1       7.694   5.525  17.553  0.00  0.00    +0.000 A 
ENDBRANCH  21  27
ENDBRANCH  17  21
ENDBRANCH   1  17
TORSDOF 4
ENDMDL
