MODEL 1
REMARK VINA RESULT:      -8.4      0.000      0.000
REMARK  Name = 
REMARK  8 active torsions:
REMARK  status: ('A' for Active; 'I' for Inactive)
REMARK    1  A    between atoms: N_5  and  C_6
REMARK    2  A    between atoms: C_6  and  C_7
REMARK    3  A    between atoms: C_7  and  C_8
REMARK    4  A    between atoms: C_7  and  C_9
REMARK    5  A    between atoms: C_13  and  N_14
REMARK    6  A    between atoms: C_15  and  C_17
REMARK    7  A    between atoms: C_21  and  C_22
REMARK    8  A    between atoms: C_22  and  C_23
REMARK                            x       y       z     vdW  Elec       q    Type
REMARK                         _______ _______ _______ _____ _____    ______ ____
ROOT
ATOM      1  C   UNL     1       0.018  10.098  19.328  0.00  0.00    +0.000 A 
ATOM      2  C   UNL     1      -0.267  10.071  20.701  0.00  0.00    +0.000 A 
ATOM      3  C   UNL     1       0.432   9.219  21.551  0.00  0.00    +0.000 A 
ATOM      4  C   UNL     1       1.402   8.358  21.041  0.00  0.00    +0.000 A 
ATOM      5  C   UNL     1       1.693   8.335  19.676  0.00  0.00    +0.000 A 
ATOM      6  C   UNL     1       1.023   9.239  18.831  0.00  0.00    +0.000 A 
ENDROOT
BRANCH   5   7
ATOM      7  N   UNL     1       2.592   7.407  19.098  0.00  0.00    +0.000 N 
ATOM      8  C   UNL     1       2.604   6.035  19.300  0.00  0.00    +0.000 C 
ATOM      9  O   UNL     1       1.880   5.392  20.052  0.00  0.00    +0.000 OA
ATOM     10  H   UNL     1       3.257   7.747  18.408  0.00  0.00    +0.000 HD
BRANCH   8  11
ATOM     11  C   UNL     1       3.598   5.278  18.471  0.00  0.00    +0.000 A 
ATOM     12  C   UNL     1       3.145   4.330  17.554  0.00  0.00    +0.000 A 
ATOM     13  C   UNL     1       4.074   3.688  16.747  0.00  0.00    +0.000 A 
ATOM     14  C   UNL     1       5.421   4.015  16.873  0.00  0.00    +0.000 A 
ATOM     15  C   UNL     1       5.807   4.973  17.818  0.00  0.00    +0.000 A 
ATOM     16  N   UNL     1       4.908   5.606  18.626  0.00  0.00    +0.000 NA
BRANCH  15  17
ATOM     17  C   UNL     1       7.275   5.361  17.939  0.00  0.00    +0.000 C 
ATOM     18  C   UNL     1       7.604   5.765  19.368  0.00  0.00    +0.000 C 
ATOM     19  F   UNL     1       8.111   4.340  17.585  0.00  0.00    +0.000 F 
ATOM     20  F   UNL     1       7.622   6.406  17.127  0.00  0.00    +0.000 F 
ENDBRANCH  15  17
ENDBRANCH   8  11
ENDBRANCH   5   7
BRANCH   1  21
ATOM     21  C   UNL     1      -0.837  10.972  18.412  0.00  0.00    +0.000 C 
ATOM     22  C   UNL     1      -0.945  12.382  19.015  0.00  0.00    +0.000 C 
BRANCH  21  23
ATOM     23  C   UNL     1      -2.218  10.352  18.075  0.00  0.00    +0.000 C 
BRANCH  23  28
ATOM     24  C   UNL     1      -5.034  11.748  16.940  0.00  0.00    +0.000 C 
ATOM     25  C   UNL     1      -3.933  11.184  16.451  0.00  0.00    +0.000 C 
ATOM     26  C   UNL     1      -3.603  10.625  15.164  0.00  0.00    +0.000 C 
ATOM     27  N   UNL     1      -2.518  10.158  15.636  0.00  0.00    +0.000 NA
ATOM     28  N   UNL     1      -2.721  10.877  16.804  0.00  0.00    +0.000 N 
ENDBRANCH  23  28
ENDBRANCH  21  23
ENDBRANCH   1  21
TORSDOF 6
ENDMDL
MODEL 2
REMARK VINA RESULT:      -8.2      3.702      8.911
REMARK  Name = 
REMARK  8 active torsions:
REMARK  status: ('A' for Active; 'I' for Inactive)
REMARK    1  A    between atoms: N_5  and  C_6
REMARK    2  A    between atoms: C_6  and  C_7
REMARK    3  A    between atoms: C_7  and  C_8
REMARK    4  A    between atoms: C_7  and  C_9
REMARK    5  A    between atoms: C_13  and  N_14
REMARK    6  A    between atoms: C_15  and  C_17
REMARK    7  A    between atoms: C_21  and  C_22
REMARK    8  A    between atoms: C_22  and  C_23
REMARK                            x       y       z     vdW  Elec       q    Type
REMARK                         _______ _______ _______ _____ _____    ______ ____
ROOT
ATOM      1  C   UNL     1       4.505   4.885  16.632  0.00  0.00    +0.000 A 
ATOM      2  C   UNL     1       3.962   3.606  16.818  0.00  0.00    +0.000 A 
ATOM      3  C   UNL     1       2.836   3.424  17.615  0.00  0.00    +0.000 A 
ATOM      4  C   UNL     1       2.255   4.511  18.265  0.00  0.00    +0.000 A 
ATOM      5  C   UNL     1       2.783   5.796  18.129  0.00  0.00    +0.000 A 
ATOM      6  C   UNL     1       3.887   5.980  17.276  0.00  0.00    +0.000 A 
ENDROOT
BRANCH   5   7
ATOM      7  N   UNL     1       2.292   6.910  18.850  0.00  0.00    +0.000 N 
ATOM      8  C   UNL     1       2.136   8.201  18.367  0.00  0.00    +0.000 C 
ATOM      9  O   UNL     1       2.444   8.617  17.256  0.00  0.00    +0.000 OA
ATOM     10  H   UNL     1       1.946   6.758  19.794  0.00  0.00    +0.000 HD
BRANCH   8  11
ATOM     11  C   UNL     1       1.486   9.162  19.316  0.00  0.00    +0.000 A 
ATOM     12  C   UNL     1       1.208   8.754  20.621  0.00  0.00    +0.000 A 
ATOM     13  C   UNL     1       0.668   9.678  21.505  0.00  0.00    +0.000 A 
ATOM     14  C   UNL     1       0.430  10.977  21.066  0.00  0.00    +0.000 A 
ATOM     15  C   UNL     1       0.730  11.318  19.742  0.00  0.00    +0.000 A 
ATOM     16  N   UNL     1       1.252  10.420  18.857  0.00  0.00    +0.000 NA
BRANCH  15  17
ATOM     17  C   UNL     1       0.505  12.747  19.264  0.00  0.00    +0.000 C 
ATOM     18  C   UNL     1      -0.777  12.842  18.450  0.00  0.00    +0.000 C 
ATOM     19  F   UNL     1       0.415  13.631  20.300  0.00  0.00    +0.000 F 
ATOM     20  F   UNL     1       1.524  13.215  18.479  0.00  0.00    +0.000 F 
ENDBRANCH  15  17
ENDBRANCH   8  11
ENDBRANCH   5   7
BRANCH   1  21
ATOM     21  C   UNL     1       5.799   5.032  15.832  0.00  0.00    +0.000 C 
ATOM     22  C   UNL     1       5.627   4.351  14.464  0.00  0.00    +0.000 C 
BRANCH  21  23
ATOM     23  C   UNL     1       7.058   4.545  16.595  0.00  0.00    +0.000 C 
BRANCH  23  28
ATOM     24  C   UNL     1       7.530   5.657  19.711  0.00  0.00    +0.000 C 
ATOM     25  C   UNL     1       7.639   6.107  18.464  0.00  0.00    +0.000 C 
ATOM     26  C   UNL     1       7.716   7.431  17.899  0.00  0.00    +0.000 C 
ATOM     27  N   UNL     1       7.584   6.950  16.729  0.00  0.00    +0.000 NA
ATOM     28  N   UNL     1       7.733   5.671  17.244  0.00  0.00    +0.000 N 
ENDBRANCH  23  28
ENDBRANCH  21  23
ENDBRANCH   1  21
TORSDOF 6
ENDMDL
MODEL 3
REMARK VINA RESULT:      -8.2      3.949      9.001
REMARK  Name = 
REMARK  8 active torsions:
REMARK  status: ('A' for Active; 'I' for Inactive)
REMARK    1  A    between atoms: N_5  and  C_6
REMARK    2  A    between atoms: C_6  and  C_7
REMARK    3  A    between atoms: C_7  and  C_8
REMARK    4  A    between atoms: C_7  and  C_9
REMARK    5  A    between atoms: C_13  and  N_14
REMARK    6  A    between atoms: C_15  and  C_17
REMARK    7  A    between atoms: C_21  and  C_22
REMARK    8  A    between atoms: C_22  and  C_23
REMARK                            x       y       z     vdW  Elec       q    Type
REMARK                         _______ _______ _______ _____ _____    ______ ____
ROOT
ATOM      1  C   UNL     1       4.448   5.088  16.702  0.00  0.00    +0.000 A 
ATOM      2  C   UNL     1       3.877   3.822  16.901  0.00  0.00    +0.000 A 
ATOM      3  C   UNL     1       2.726   3.679  17.671  0.00  0.00    +0.000 A 
ATOM      4  C   UNL     1       2.147   4.790  18.280  0.00  0.00    +0.000 A 
ATOM      5  C   UNL     1       2.703   6.061  18.131  0.00  0.00    +0.000 A 
ATOM      6  C   UNL     1       3.833   6.207  17.305  0.00  0.00    +0.000 A 
ENDROOT
BRANCH   5   7
ATOM      7  N   UNL     1       2.213   7.200  18.814  0.00  0.00    +0.000 N 
ATOM      8  C   UNL     1       2.011   8.462  18.274  0.00  0.00    +0.000 C 
ATOM      9  O   UNL     1       2.271   8.828  17.133  0.00  0.00    +0.000 OA
ATOM     10  H   UNL     1       1.904   7.088  19.776  0.00  0.00    +0.000 HD
BRANCH   8  11
ATOM     11  C   UNL     1       1.374   9.456  19.198  0.00  0.00    +0.000 A 
ATOM     12  C   UNL     1       1.158   9.111  20.532  0.00  0.00    +0.000 A 
ATOM     13  C   UNL     1       0.629  10.066  21.389  0.00  0.00    +0.000 A 
ATOM     14  C   UNL     1       0.340  11.334  20.893  0.00  0.00    +0.000 A 
ATOM     15  C   UNL     1       0.578  11.612  19.542  0.00  0.00    +0.000 A 
ATOM     16  N   UNL     1       1.089  10.682  18.684  0.00  0.00    +0.000 NA
BRANCH  15  17
ATOM     17  C   UNL     1       0.297  13.007  19.000  0.00  0.00    +0.000 C 
ATOM     18  C   UNL     1      -0.067  13.957  20.131  0.00  0.00    +0.000 C 
ATOM     19  F   UNL     1       1.371  13.531  18.337  0.00  0.00    +0.000 F 
ATOM     20  F   UNL     1      -0.730  13.033  18.096  0.00  0.00    +0.000 F 
ENDBRANCH  15  17
ENDBRANCH   8  11
ENDBRANCH   5   7
BRANCH   1  21
ATOM     21  C   UNL     1       5.766   5.193  15.935  0.00  0.00    +0.000 C 
ATOM     22  C   UNL     1       5.619   4.485  14.579  0.00  0.00    +0.000 C 
BRANCH  21  23
ATOM     23  C   UNL     1       6.995   4.702  16.744  0.00  0.00    +0.000 C 
BRANCH  23  28
ATOM     24  C   UNL     1       7.721   7.835  17.649  0.00  0.00    +0.000 C 
ATOM     25  C   UNL     1       7.644   6.629  18.204  0.00  0.00    +0.000 C 
ATOM     26  C   UNL     1       8.166   6.075  19.428  0.00  0.00    +0.000 C 
ATOM     27  N   UNL     1       7.823   4.908  19.056  0.00  0.00    +0.000 NA
ATOM     28  N   UNL     1       7.126   5.457  17.991  0.00  0.00    +0.000 N 
ENDBRANCH  23  28
ENDBRANCH  21  23
ENDBRANCH   1  21
TORSDOF 6
ENDMDL
MODEL 4
REMARK VINA RESULT:      -8.2      3.651      8.945
REMARK  Name = 
REMARK  8 active torsions:
REMARK  status: ('A' for Active; 'I' for Inactive)
REMARK    1  A    between atoms: N_5  and  C_6
REMARK    2  A    between atoms: C_6  and  C_7
REMARK    3  A    between atoms: C_7  and  C_8
REMARK    4  A    between atoms: C_7  and  C_9
REMARK    5  A    between atoms: C_13  and  N_14
REMARK    6  A    between atoms: C_15  and  C_17
REMARK    7  A    between atoms: C_21  and  C_22
REMARK    8  A    between atoms: C_22  and  C_23
REMARK                            x       y       z     vdW  Elec       q    Type
REMARK                         _______ _______ _______ _____ _____    ______ ____
ROOT
ATOM      1  C   UNL     1       4.522   4.835  16.541  0.00  0.00    +0.000 A 
ATOM      2  C   UNL     1       4.085   3.513  16.713  0.00  0.00    +0.000 A 
ATOM      3  C   UNL     1       3.038   3.223  17.582  0.00  0.00    +0.000 A 
ATOM      4  C   UNL     1       2.432   4.241  18.315  0.00  0.00    +0.000 A 
ATOM      5  C   UNL     1       2.858   5.565  18.193  0.00  0.00    +0.000 A 
ATOM      6  C   UNL     1       3.879   5.859  17.271  0.00  0.00    +0.000 A 
ENDROOT
BRANCH   5   7
ATOM      7  N   UNL     1       2.345   6.614  18.992  0.00  0.00    +0.000 N 
ATOM      8  C   UNL     1       2.193   7.941  18.613  0.00  0.00    +0.000 C 
ATOM      9  O   UNL     1       2.524   8.447  17.547  0.00  0.00    +0.000 OA
ATOM     10  H   UNL     1       1.980   6.384  19.912  0.00  0.00    +0.000 HD
BRANCH   8  11
ATOM     11  C   UNL     1       1.518   8.818  19.623  0.00  0.00    +0.000 A 
ATOM     12  C   UNL     1       1.456   8.408  20.955  0.00  0.00    +0.000 A 
ATOM     13  C   UNL     1       0.887   9.264  21.888  0.00  0.00    +0.000 A 
ATOM     14  C   UNL     1       0.405  10.501  21.468  0.00  0.00    +0.000 A 
ATOM     15  C   UNL     1       0.496  10.847  20.115  0.00  0.00    +0.000 A 
ATOM     16  N   UNL     1       1.044  10.014  19.183  0.00  0.00    +0.000 NA
BRANCH  15  17
ATOM     17  C   UNL     1       0.004  12.212  19.653  0.00  0.00    +0.000 C 
ATOM     18  C   UNL     1      -1.068  12.059  18.584  0.00  0.00    +0.000 C 
ATOM     19  F   UNL     1      -0.522  12.947  20.677  0.00  0.00    +0.000 F 
ATOM     20  F   UNL     1       0.999  12.991  19.127  0.00  0.00    +0.000 F 
ENDBRANCH  15  17
ENDBRANCH   8  11
ENDBRANCH   5   7
BRANCH   1  21
ATOM     21  C   UNL     1       5.739   5.103  15.656  0.00  0.00    +0.000 C 
ATOM     22  C   UNL     1       5.595   4.312  14.345  0.00  0.00    +0.000 C 
BRANCH  21  23
ATOM     23  C   UNL     1       7.092   4.848  16.369  0.00  0.00    +0.000 C 
BRANCH  23  28
ATOM     24  C   UNL     1       7.727   7.842  17.711  0.00  0.00    +0.000 C 
ATOM     25  C   UNL     1       7.587   6.580  18.108  0.00  0.00    +0.000 C 
ATOM     26  C   UNL     1       7.974   5.877  19.306  0.00  0.00    +0.000 C 
ATOM     27  N   UNL     1       7.668   4.767  18.764  0.00  0.00    +0.000 NA
ATOM     28  N   UNL     1       7.091   5.449  17.704  0.00  0.00    +0.000 N 
ENDBRANCH  23  28
ENDBRANCH  21  23
ENDBRANCH   1  21
TORSDOF 6
ENDMDL
MODEL 5
REMARK VINA RESULT:      -8.2      3.934      8.849
REMARK  Name = 
REMARK  8 active torsions:
REMARK  status: ('A' for Active; 'I' for Inactive)
REMARK    1  A    between atoms: N_5  and  C_6
REMARK    2  A    between atoms: C_6  and  C_7
REMARK    3  A    between atoms: C_7  and  C_8
REMARK    4  A    between atoms: C_7  and  C_9
REMARK    5  A    between atoms: C_13  and  N_14
REMARK    6  A    between atoms: C_15  and  C_17
REMARK    7  A    between atoms: C_21  and  C_22
REMARK    8  A    between atoms: C_22  and  C_23
REMARK                            x       y       z     vdW  Elec       q    Type
REMARK                         _______ _______ _______ _____ _____    ______ ____
ROOT
ATOM      1  C   UNL     1       4.631   4.824  16.664  0.00  0.00    +0.000 A 
ATOM      2  C   UNL     1       4.339   3.536  17.136  0.00  0.00    +0.000 A 
ATOM      3  C   UNL     1       3.307   3.334  18.047  0.00  0.00    +0.000 A 
ATOM      4  C   UNL     1       2.572   4.416  18.526  0.00  0.00    +0.000 A 
ATOM      5  C   UNL     1       2.851   5.717  18.103  0.00  0.00    +0.000 A 
ATOM      6  C   UNL     1       3.858   5.907  17.139  0.00  0.00    +0.000 A 
ENDROOT
BRANCH   5   7
ATOM      7  N   UNL     1       2.203   6.855  18.638  0.00  0.00    +0.000 N 
ATOM      8  C   UNL     1       2.193   8.131  18.092  0.00  0.00    +0.000 C 
ATOM      9  O   UNL     1       2.782   8.510  17.086  0.00  0.00    +0.000 OA
ATOM     10  H   UNL     1       1.624   6.735  19.464  0.00  0.00    +0.000 HD
BRANCH   8  11
ATOM     11  C   UNL     1       1.331   9.124  18.811  0.00  0.00    +0.000 A 
ATOM     12  C   UNL     1       0.718  10.150  18.091  0.00  0.00    +0.000 A 
ATOM     13  C   UNL     1      -0.130  11.019  18.763  0.00  0.00    +0.000 A 
ATOM     14  C   UNL     1      -0.348  10.836  20.125  0.00  0.00    +0.000 A 
ATOM     15  C   UNL     1       0.302   9.788  20.787  0.00  0.00    +0.000 A 
ATOM     16  N   UNL     1       1.147   8.930  20.145  0.00  0.00    +0.000 NA
BRANCH  15  17
ATOM     17  C   UNL     1       0.043   9.559  22.271  0.00  0.00    +0.000 C 
ATOM     18  C   UNL     1       1.332   9.187  22.987  0.00  0.00    +0.000 C 
ATOM     19  F   UNL     1      -0.477  10.665  22.881  0.00  0.00    +0.000 F 
ATOM     20  F   UNL     1      -0.862   8.560  22.508  0.00  0.00    +0.000 F 
ENDBRANCH  15  17
ENDBRANCH   8  11
ENDBRANCH   5   7
BRANCH   1  21
ATOM     21  C   UNL     1       5.835   5.020  15.743  0.00  0.00    +0.000 C 
ATOM     22  C   UNL     1       5.683   4.110  14.514  0.00  0.00    +0.000 C 
BRANCH  21  23
ATOM     23  C   UNL     1       7.199   4.847  16.459  0.00  0.00    +0.000 C 
BRANCH  23  28
ATOM     24  C   UNL     1       7.842   7.842  17.794  0.00  0.00    +0.000 C 
ATOM     25  C   UNL     1       7.666   6.587  18.198  0.00  0.00    +0.000 C 
ATOM     26  C   UNL     1       8.000   5.889  19.415  0.00  0.00    +0.000 C 
ATOM     27  N   UNL     1       7.693   4.780  18.873  0.00  0.00    +0.000 NA
ATOM     28  N   UNL     1       7.164   5.461  17.788  0.00  0.00    +0.000 N 
ENDBRANCH  23  28
ENDBRANCH  21  23
ENDBRANCH   1  21
TORSDOF 6
ENDMDL
MODEL 6
REMARK VINA RESULT:      -8.1      3.923      8.709
REMARK  Name = 
REMARK  8 active torsions:
REMARK  status: ('A' for Active; 'I' for Inactive)
REMARK    1  A    between atoms: N_5  and  C_6
REMARK    2  A    between atoms: C_6  and  C_7
REMARK    3  A    between atoms: C_7  and  C_8
REMARK    4  A    between atoms: C_7  and  C_9
REMARK    5  A    between atoms: C_13  and  N_14
REMARK    6  A    between atoms: C_15  and  C_17
REMARK    7  A    between atoms: C_21  and  C_22
REMARK    8  A    between atoms: C_22  and  C_23
REMARK                            x       y       z     vdW  Elec       q    Type
REMARK                         _______ _______ _______ _____ _____    ______ ____
ROOT
ATOM      1  C   UNL     1       4.628   4.865  16.506  0.00  0.00    +0.000 A 
ATOM      2  C   UNL     1       4.184   3.556  16.741  0.00  0.00    +0.000 A 
ATOM      3  C   UNL     1       3.072   3.320  17.544  0.00  0.00    +0.000 A 
ATOM      4  C   UNL     1       2.405   4.383  18.149  0.00  0.00    +0.000 A 
ATOM      5  C   UNL     1       2.834   5.698  17.963  0.00  0.00    +0.000 A 
ATOM      6  C   UNL     1       3.925   5.933  17.105  0.00  0.00    +0.000 A 
ENDROOT
BRANCH   5   7
ATOM      7  N   UNL     1       2.256   6.799  18.639  0.00  0.00    +0.000 N 
ATOM      8  C   UNL     1       1.907   6.851  19.981  0.00  0.00    +0.000 C 
ATOM      9  O   UNL     1       1.987   5.944  20.802  0.00  0.00    +0.000 OA
ATOM     10  H   UNL     1       2.141   7.670  18.129  0.00  0.00    +0.000 HD
BRANCH   8  11
ATOM     11  C   UNL     1       1.416   8.184  20.459  0.00  0.00    +0.000 A 
ATOM     12  C   UNL     1       1.134   8.366  21.813  0.00  0.00    +0.000 A 
ATOM     13  C   UNL     1       0.745   9.625  22.248  0.00  0.00    +0.000 A 
ATOM     14  C   UNL     1       0.658  10.664  21.325  0.00  0.00    +0.000 A 
ATOM     15  C   UNL     1       0.952  10.411  19.981  0.00  0.00    +0.000 A 
ATOM     16  N   UNL     1       1.326   9.177  19.534  0.00  0.00    +0.000 NA
BRANCH  15  17
ATOM     17  C   UNL     1       0.892  11.549  18.970  0.00  0.00    +0.000 C 
ATOM     18  C   UNL     1       2.124  11.538  18.079  0.00  0.00    +0.000 C 
ATOM     19  F   UNL     1      -0.211  11.471  18.168  0.00  0.00    +0.000 F 
ATOM     20  F   UNL     1       0.821  12.783  19.557  0.00  0.00    +0.000 F 
ENDBRANCH  15  17
ENDBRANCH   8  11
ENDBRANCH   5   7
BRANCH   1  21
ATOM     21  C   UNL     1       5.911   5.078  15.703  0.00  0.00    +0.000 C 
ATOM     22  C   UNL     1       5.801   4.327  14.366  0.00  0.00    +0.000 C 
BRANCH  21  23
ATOM     23  C   UNL     1       7.200   4.728  16.489  0.00  0.00    +0.000 C 
BRANCH  23  28
ATOM     24  C   UNL     1       7.713   7.811  17.672  0.00  0.00    +0.000 C 
ATOM     25  C   UNL     1       7.651   6.564  18.131  0.00  0.00    +0.000 C 
ATOM     26  C   UNL     1       8.106   5.940  19.348  0.00  0.00    +0.000 C 
ATOM     27  N   UNL     1       7.844   4.792  18.868  0.00  0.00    +0.000 NA
ATOM     28  N   UNL     1       7.204   5.392  17.794  0.00  0.00    +0.000 N 
ENDBRANCH  23  28
ENDBRANCH  21  23
ENDBRANCH   1  21
TORSDOF 6
ENDMDL
MODEL 7
REMARK VINA RESULT:      -8.1      4.126      8.986
REMARK  Name = 
REMARK  8 active torsions:
REMARK  status: ('A' for Active; 'I' for Inactive)
REMARK    1  A    between atoms: N_5  and  C_6
REMARK    2  A    between atoms: C_6  and  C_7
REMARK    3  A    between atoms: C_7  and  C_8
REMARK    4  A    between atoms: C_7  and  C_9
REMARK    5  A    between atoms: C_13  and  N_14
REMARK    6  A    between atoms: C_15  and  C_17
REMARK    7  A    between atoms: C_21  and  C_22
REMARK    8  A    between atoms: C_22  and  C_23
REMARK                            x       y       z     vdW  Elec       q    Type
REMARK                         _______ _______ _______ _____ _____    ______ ____
ROOT
ATOM      1  C   UNL     1       5.046   5.276  17.607  0.00  0.00    +0.000 A 
ATOM      2  C   UNL     1       4.356   4.091  17.310  0.00  0.00    +0.000 A 
ATOM      3  C   UNL     1       2.978   4.012  17.487  0.00  0.00    +0.000 A 
ATOM      4  C   UNL     1       2.272   5.102  17.993  0.00  0.00    +0.000 A 
ATOM      5  C   UNL     1       2.927   6.288  18.328  0.00  0.00    +0.000 A 
ATOM      6  C   UNL     1       4.311   6.380  18.093  0.00  0.00    +0.000 A 
ENDROOT
BRANCH   5   7
ATOM      7  N   UNL     1       2.271   7.382  18.941  0.00  0.00    +0.000 N 
ATOM      8  C   UNL     1       1.945   8.590  18.340  0.00  0.00    +0.000 C 
ATOM      9  O   UNL     1       2.212   8.943  17.197  0.00  0.00    +0.000 OA
ATOM     10  H   UNL     1       1.932   7.268  19.892  0.00  0.00    +0.000 HD
BRANCH   8  11
ATOM     11  C   UNL     1       1.148   9.530  19.193  0.00  0.00    +0.000 A 
ATOM     12  C   UNL     1       0.779   9.142  20.481  0.00  0.00    +0.000 A 
ATOM     13  C   UNL     1       0.101  10.051  21.281  0.00  0.00    +0.000 A 
ATOM     14  C   UNL     1      -0.181  11.318  20.777  0.00  0.00    +0.000 A 
ATOM     15  C   UNL     1       0.215  11.640  19.474  0.00  0.00    +0.000 A 
ATOM     16  N   UNL     1       0.874  10.755  18.671  0.00  0.00    +0.000 NA
BRANCH  15  17
ATOM     17  C   UNL     1      -0.059  13.035  18.928  0.00  0.00    +0.000 C 
ATOM     18  C   UNL     1       1.240  13.711  18.512  0.00  0.00    +0.000 C 
ATOM     19  F   UNL     1      -0.889  13.012  17.844  0.00  0.00    +0.000 F 
ATOM     20  F   UNL     1      -0.675  13.854  19.834  0.00  0.00    +0.000 F 
ENDBRANCH  15  17
ENDBRANCH   8  11
ENDBRANCH   5   7
BRANCH   1  21
ATOM     21  C   UNL     1       6.570   5.293  17.495  0.00  0.00    +0.000 C 
ATOM     22  C   UNL     1       7.052   6.748  17.373  0.00  0.00    +0.000 C 
BRANCH  21  23
ATOM     23  C   UNL     1       7.120   4.378  16.370  0.00  0.00    +0.000 C 
BRANCH  23  28
ATOM     24  C   UNL     1       5.303   3.708  13.646  0.00  0.00    +0.000 C 
ATOM     25  C   UNL     1       6.325   4.484  13.998  0.00  0.00    +0.000 C 
ATOM     26  C   UNL     1       7.339   5.177  13.243  0.00  0.00    +0.000 C 
ATOM     27  N   UNL     1       7.965   5.448  14.317  0.00  0.00    +0.000 NA
ATOM     28  N   UNL     1       6.889   4.983  15.056  0.00  0.00    +0.000 N 
ENDBRANCH  23  28
ENDBRANCH  21  23
ENDBRANCH   1  21
TORSDOF 6
ENDMDL
MODEL 8
REMARK VINA RESULT:      -8.0      1.986      2.994
REMARK  Name = 
REMARK  8 active torsions:
REMARK  status: ('A' for Active; 'I' for Inactive)
REMARK    1  A    between atoms: N_5  and  C_6
REMARK    2  A    between atoms: C_6  and  C_7
REMARK    3  A    between atoms: C_7  and  C_8
REMARK    4  A    between atoms: C_7  and  C_9
REMARK    5  A    between atoms: C_13  and  N_14
REMARK    6  A    between atoms: C_15  and  C_17
REMARK    7  A    between atoms: C_21  and  C_22
REMARK    8  A    between atoms: C_22  and  C_23
REMARK                            x       y       z     vdW  Elec       q    Type
REMARK                         _______ _______ _______ _____ _____    ______ ____
ROOT
ATOM      1  C   UNL     1      -0.279  10.117  20.361  0.00  0.00    +0.000 A 
ATOM      2  C   UNL     1      -0.365  10.155  21.761  0.00  0.00    +0.000 A 
ATOM      3  C   UNL     1       0.484   9.378  22.543  0.00  0.00    +0.000 A 
ATOM      4  C   UNL     1       1.409   8.527  21.941  0.00  0.00    +0.000 A 
ATOM      5  C   UNL     1       1.505   8.440  20.551  0.00  0.00    +0.000 A 
ATOM      6  C   UNL     1       0.683   9.270  19.768  0.00  0.00    +0.000 A 
ENDROOT
BRANCH   5   7
ATOM      7  N   UNL     1       2.354   7.516  19.896  0.00  0.00    +0.000 N 
ATOM      8  C   UNL     1       2.268   6.132  19.954  0.00  0.00    +0.000 C 
ATOM      9  O   UNL     1       1.483   5.468  20.621  0.00  0.00    +0.000 OA
ATOM     10  H   UNL     1       3.058   7.878  19.258  0.00  0.00    +0.000 HD
BRANCH   8  11
ATOM     11  C   UNL     1       3.229   5.397  19.069  0.00  0.00    +0.000 A 
ATOM     12  C   UNL     1       2.736   4.534  18.090  0.00  0.00    +0.000 A 
ATOM     13  C   UNL     1       3.638   3.914  17.236  0.00  0.00    +0.000 A 
ATOM     14  C   UNL     1       4.997   4.178  17.377  0.00  0.00    +0.000 A 
ATOM     15  C   UNL     1       5.423   5.052  18.384  0.00  0.00    +0.000 A 
ATOM     16  N   UNL     1       4.552   5.663  19.239  0.00  0.00    +0.000 NA
BRANCH  15  17
ATOM     17  C   UNL     1       6.905   5.374  18.524  0.00  0.00    +0.000 C 
ATOM     18  C   UNL     1       7.251   6.644  17.763  0.00  0.00    +0.000 C 
ATOM     19  F   UNL     1       7.276   5.547  19.827  0.00  0.00    +0.000 F 
ATOM     20  F   UNL     1       7.716   4.378  18.050  0.00  0.00    +0.000 F 
ENDBRANCH  15  17
ENDBRANCH   8  11
ENDBRANCH   5   7
BRANCH   1  21
ATOM     21  C   UNL     1      -1.294  10.907  19.536  0.00  0.00    +0.000 C 
ATOM     22  C   UNL     1      -1.095  10.584  18.046  0.00  0.00    +0.000 C 
BRANCH  21  23
ATOM     23  C   UNL     1      -1.282  12.430  19.830  0.00  0.00    +0.000 C 
BRANCH  23  28
ATOM     24  C   UNL     1       1.916  13.017  20.602  0.00  0.00    +0.000 C 
ATOM     25  C   UNL     1       1.012  13.429  19.718  0.00  0.00    +0.000 C 
ATOM     26  C   UNL     1       0.926  14.589  18.866  0.00  0.00    +0.000 C 
ATOM     27  N   UNL     1      -0.274  14.291  18.566  0.00  0.00    +0.000 NA
ATOM     28  N   UNL     1      -0.123  13.067  19.200  0.00  0.00    +0.000 N 
ENDBRANCH  23  28
ENDBRANCH  21  23
ENDBRANCH   1  21
TORSDOF 6
ENDMDL
MODEL 9
REMARK VINA RESULT:      -7.9      2.407      3.252
REMARK  Name = 
REMARK  8 active torsions:
REMARK  status: ('A' for Active; 'I' for Inactive)
REMARK    1  A    between atoms: N_5  and  C_6
REMARK    2  A    between atoms: C_6  and  C_7
REMARK    3  A    between atoms: C_7  and  C_8
REMARK    4  A    between atoms: C_7  and  C_9
REMARK    5  A    between atoms: C_13  and  N_14
REMARK    6  A    between atoms: C_15  and  C_17
REMARK    7  A    between atoms: C_21  and  C_22
REMARK    8  A    between atoms: C_22  and  C_23
REMARK                            x       y       z     vdW  Elec       q    Type
REMARK                         _______ _______ _______ _____ _____    ______ ____
ROOT
ATOM      1  C   UNL     1      -1.385  10.539  18.013  0.00  0.00    +0.000 A 
ATOM      2  C   UNL     1      -0.981  11.674  18.731  0.00  0.00    +0.000 A 
ATOM      3  C   UNL     1       0.353  11.848  19.086  0.00  0.00    +0.000 A 
ATOM      4  C   UNL     1       1.298  10.878  18.759  0.00  0.00    +0.000 A 
ATOM      5  C   UNL     1       0.930   9.721  18.071  0.00  0.00    +0.000 A 
ATOM      6  C   UNL     1      -0.409   9.579  17.666  0.00  0.00    +0.000 A 
ENDROOT
BRANCH   5   7
ATOM      7  N   UNL     1       1.832   8.662  17.809  0.00  0.00    +0.000 N 
ATOM      8  C   UNL     1       2.274   7.712  18.719  0.00  0.00    +0.000 C 
ATOM      9  O   UNL     1       2.008   7.653  19.915  0.00  0.00    +0.000 OA
ATOM     10  H   UNL     1       2.144   8.520  16.853  0.00  0.00    +0.000 HD
BRANCH   8  11
ATOM     11  C   UNL     1       3.142   6.634  18.143  0.00  0.00    +0.000 A 
ATOM     12  C   UNL     1       4.196   6.980  17.299  0.00  0.00    +0.000 A 
ATOM     13  C   UNL     1       5.030   5.975  16.829  0.00  0.00    +0.000 A 
ATOM     14  C   UNL     1       4.793   4.660  17.220  0.00  0.00    +0.000 A 
ATOM     15  C   UNL     1       3.714   4.382  18.067  0.00  0.00    +0.000 A 
ATOM     16  N   UNL     1       2.878   5.357  18.531  0.00  0.00    +0.000 NA
BRANCH  15  17
ATOM     17  C   UNL     1       3.467   2.951  18.528  0.00  0.00    +0.000 C 
ATOM     18  C   UNL     1       4.315   2.630  19.749  0.00  0.00    +0.000 C 
ATOM     19  F   UNL     1       2.159   2.730  18.851  0.00  0.00    +0.000 F 
ATOM     20  F   UNL     1       3.762   2.022  17.568  0.00  0.00    +0.000 F 
ENDBRANCH  15  17
ENDBRANCH   8  11
ENDBRANCH   5   7
BRANCH   1  21
ATOM     21  C   UNL     1      -2.873  10.334  17.729  0.00  0.00    +0.000 C 
ATOM     22  C   UNL     1      -3.046   9.818  16.291  0.00  0.00    +0.000 C 
BRANCH  21  23
ATOM     23  C   UNL     1      -3.740  11.583  18.031  0.00  0.00    +0.000 C 
BRANCH  23  28
ATOM     24  C   UNL     1      -6.424  13.312  17.044  0.00  0.00    +0.000 C 
ATOM     25  C   UNL     1      -6.143  12.134  17.594  0.00  0.00    +0.000 C 
ATOM     26  C   UNL     1      -6.936  11.174  18.321  0.00  0.00    +0.000 C 
ATOM     27  N   UNL     1      -5.885  10.525  18.626  0.00  0.00    +0.000 NA
ATOM     28  N   UNL     1      -5.151  11.310  17.751  0.00  0.00    +0.000 N 
ENDBRANCH  23  28
ENDBRANCH  21  23
ENDBRANCH   1  21
TORSDOF 6
ENDMDL
