MODEL 1
REMARK VINA RESULT:      -9.3      0.000      0.000
REMARK  Name = 
REMARK  5 active torsions:
REMARK  status: ('A' for Active; 'I' for Inactive)
REMARK    1  A    between atoms: C_1  and  C_2
REMARK    2  A    between atoms: C_7  and  N_8
REMARK    3  A    between atoms: C_9  and  C_11
REMARK    4  A    between atoms: C_14  and  S_15
REMARK    5  A    between atoms: S_15  and  N_18
REMARK                            x       y       z     vdW  Elec       q    Type
REMARK                         _______ _______ _______ _____ _____    ______ ____
ROOT
ATOM      1  C   UNL     1       8.431   9.048  18.477  0.00  0.00    +0.000 A 
ATOM      2  C   UNL     1       8.683   7.804  19.070  0.00  0.00    +0.000 A 
ATOM      3  C   UNL     1       7.978   6.659  18.643  0.00  0.00    +0.000 A 
ATOM      4  C   UNL     1       7.012   6.747  17.627  0.00  0.00    +0.000 A 
ATOM      5  C   UNL     1       6.710   7.998  17.077  0.00  0.00    +0.000 A 
ATOM      6  C   UNL     1       7.407   9.140  17.513  0.00  0.00    +0.000 A 
ENDROOT
BRANCH   1   8
ATOM      7  N   UNL     1       9.527  11.149  17.768  0.00  0.00    +0.000 N 
ATOM      8  C   UNL     1       9.198  10.297  18.823  0.00  0.00    +0.000 C 
ATOM      9  O   UNL     1       9.434  10.489  20.010  0.00  0.00    +0.000 OA
ATOM     10  H   UNL     1       9.217  10.878  16.847  0.00  0.00    +0.000 HD
BRANCH   7  17
ATOM     11  C   UNL     1       8.013  13.679  18.040  0.00  0.00    +0.000 C 
ATOM     12  C   UNL     1       9.510  13.611  17.908  0.00  0.00    +0.000 A 
ATOM     13  C   UNL     1      10.204  14.843  17.857  0.00  0.00    +0.000 A 
ATOM     14  C   UNL     1      11.592  14.885  17.827  0.00  0.00    +0.000 A 
ATOM     15  C   UNL     1      12.302  13.697  17.841  0.00  0.00    +0.000 A 
ATOM     16  C   UNL     1      11.629  12.466  17.842  0.00  0.00    +0.000 A 
ATOM     17  C   UNL     1      10.230  12.394  17.841  0.00  0.00    +0.000 A 
ENDBRANCH   7  17
ENDBRANCH   1   8
BRANCH   4  18
ATOM     18  S   UNL     1       6.481   5.246  16.782  0.00  0.00    +0.000 S 
ATOM     19  O   UNL     1       6.038   5.690  15.479  0.00  0.00    +0.000 OA
ATOM     20  O   UNL     1       7.547   4.273  16.909  0.00  0.00    +0.000 OA
BRANCH  18  21
ATOM     21  N   UNL     1       5.132   4.628  17.615  0.00  0.00    +0.000 NA
ATOM     22  C   UNL     1       4.494   3.359  17.096  0.00  0.00    +0.000 C 
ATOM     23  C   UNL     1       2.965   3.475  16.868  0.00  0.00    +0.000 C 
ATOM     24  C   UNL     1       2.341   3.987  18.141  0.00  0.00    +0.000 A 
ATOM     25  C   UNL     1       1.297   3.347  18.809  0.00  0.00    +0.000 A 
ATOM     26  C   UNL     1       0.932   3.784  20.085  0.00  0.00    +0.000 A 
ATOM     27  C   UNL     1       1.577   4.880  20.668  0.00  0.00    +0.000 A 
ATOM     28  C   UNL     1       2.577   5.560  19.971  0.00  0.00    +0.000 A 
ATOM     29  C   UNL     1       2.969   5.107  18.713  0.00  0.00    +0.000 A 
ATOM     30  C   UNL     1       4.129   5.694  17.941  0.00  0.00    +0.000 C 
ENDBRANCH  18  21
ENDBRANCH   4  18
TORSDOF 4
ENDMDL
MODEL 2
REMARK VINA RESULT:      -9.2      1.057      1.908
REMARK  Name = 
REMARK  5 active torsions:
REMARK  status: ('A' for Active; 'I' for Inactive)
REMARK    1  A    between atoms: C_1  and  C_2
REMARK    2  A    between atoms: C_7  and  N_8
REMARK    3  A    between atoms: C_9  and  C_11
REMARK    4  A    between atoms: C_14  and  S_15
REMARK    5  A    between atoms: S_15  and  N_18
REMARK                            x       y       z     vdW  Elec       q    Type
REMARK                         _______ _______ _______ _____ _____    ______ ____
ROOT
ATOM      1  C   UNL     1       8.556   9.106  18.688  0.00  0.00    +0.000 A 
ATOM      2  C   UNL     1       8.725   7.913  19.402  0.00  0.00    +0.000 A 
ATOM      3  C   UNL     1       8.195   6.705  18.900  0.00  0.00    +0.000 A 
ATOM      4  C   UNL     1       7.487   6.679  17.687  0.00  0.00    +0.000 A 
ATOM      5  C   UNL     1       7.259   7.878  17.003  0.00  0.00    +0.000 A 
ATOM      6  C   UNL     1       7.780   9.083  17.511  0.00  0.00    +0.000 A 
ENDROOT
BRANCH   1   8
ATOM      7  N   UNL     1       9.573  11.283  18.106  0.00  0.00    +0.000 N 
ATOM      8  C   UNL     1       9.159  10.417  19.117  0.00  0.00    +0.000 C 
ATOM      9  O   UNL     1       9.199  10.638  20.322  0.00  0.00    +0.000 OA
ATOM     10  H   UNL     1       9.428  10.980  17.154  0.00  0.00    +0.000 HD
BRANCH   7  17
ATOM     11  C   UNL     1      12.332  11.547  19.146  0.00  0.00    +0.000 C 
ATOM     12  C   UNL     1      11.450  12.719  18.811  0.00  0.00    +0.000 A 
ATOM     13  C   UNL     1      11.973  14.008  19.070  0.00  0.00    +0.000 A 
ATOM     14  C   UNL     1      11.273  15.153  18.712  0.00  0.00    +0.000 A 
ATOM     15  C   UNL     1      10.040  15.023  18.097  0.00  0.00    +0.000 A 
ATOM     16  C   UNL     1       9.485  13.753  17.876  0.00  0.00    +0.000 A 
ATOM     17  C   UNL     1      10.156  12.583  18.256  0.00  0.00    +0.000 A 
ENDBRANCH   7  17
ENDBRANCH   1   8
BRANCH   4  18
ATOM     18  S   UNL     1       7.241   5.106  16.843  0.00  0.00    +0.000 S 
ATOM     19  O   UNL     1       7.449   5.399  15.442  0.00  0.00    +0.000 OA
ATOM     20  O   UNL     1       8.053   4.115  17.519  0.00  0.00    +0.000 OA
BRANCH  18  21
ATOM     21  N   UNL     1       5.614   4.651  17.050  0.00  0.00    +0.000 NA
ATOM     22  C   UNL     1       4.541   5.641  16.657  0.00  0.00    +0.000 C 
ATOM     23  C   UNL     1       3.500   5.912  17.774  0.00  0.00    +0.000 C 
ATOM     24  C   UNL     1       2.955   4.585  18.236  0.00  0.00    +0.000 A 
ATOM     25  C   UNL     1       1.597   4.269  18.273  0.00  0.00    +0.000 A 
ATOM     26  C   UNL     1       1.208   2.949  18.515  0.00  0.00    +0.000 A 
ATOM     27  C   UNL     1       2.168   1.964  18.761  0.00  0.00    +0.000 A 
ATOM     28  C   UNL     1       3.524   2.293  18.789  0.00  0.00    +0.000 A 
ATOM     29  C   UNL     1       3.921   3.601  18.514  0.00  0.00    +0.000 A 
ATOM     30  C   UNL     1       5.367   4.023  18.389  0.00  0.00    +0.000 C 
ENDBRANCH  18  21
ENDBRANCH   4  18
TORSDOF 4
ENDMDL
MODEL 3
REMARK VINA RESULT:      -8.9      0.744      1.411
REMARK  Name = 
REMARK  5 active torsions:
REMARK  status: ('A' for Active; 'I' for Inactive)
REMARK    1  A    between atoms: C_1  and  C_2
REMARK    2  A    between atoms: C_7  and  N_8
REMARK    3  A    between atoms: C_9  and  C_11
REMARK    4  A    between atoms: C_14  and  S_15
REMARK    5  A    between atoms: S_15  and  N_18
REMARK                            x       y       z     vdW  Elec       q    Type
REMARK                         _______ _______ _______ _____ _____    ______ ____
ROOT
ATOM      1  C   UNL     1       8.338   8.805  18.422  0.00  0.00    +0.000 A 
ATOM      2  C   UNL     1       8.537   7.529  18.963  0.00  0.00    +0.000 A 
ATOM      3  C   UNL     1       7.791   6.431  18.484  0.00  0.00    +0.000 A 
ATOM      4  C   UNL     1       6.836   6.600  17.468  0.00  0.00    +0.000 A 
ATOM      5  C   UNL     1       6.587   7.883  16.970  0.00  0.00    +0.000 A 
ATOM      6  C   UNL     1       7.325   8.978  17.457  0.00  0.00    +0.000 A 
ENDROOT
BRANCH   1   8
ATOM      7  N   UNL     1       9.481  10.913  17.815  0.00  0.00    +0.000 N 
ATOM      8  C   UNL     1       9.150  10.008  18.824  0.00  0.00    +0.000 C 
ATOM      9  O   UNL     1       9.420  10.119  20.014  0.00  0.00    +0.000 OA
ATOM     10  H   UNL     1       9.142  10.709  16.887  0.00  0.00    +0.000 HD
BRANCH   7  17
ATOM     11  C   UNL     1       8.060  13.511  17.798  0.00  0.00    +0.000 C 
ATOM     12  C   UNL     1       9.557  13.377  17.876  0.00  0.00    +0.000 A 
ATOM     13  C   UNL     1      10.306  14.577  17.883  0.00  0.00    +0.000 A 
ATOM     14  C   UNL     1      11.686  14.562  18.044  0.00  0.00    +0.000 A 
ATOM     15  C   UNL     1      12.333  13.347  18.192  0.00  0.00    +0.000 A 
ATOM     16  C   UNL     1      11.611  12.145  18.138  0.00  0.00    +0.000 A 
ATOM     17  C   UNL     1      10.223  12.131  17.946  0.00  0.00    +0.000 A 
ENDBRANCH   7  17
ENDBRANCH   1   8
BRANCH   4  18
ATOM     18  S   UNL     1       6.253   5.157  16.558  0.00  0.00    +0.000 S 
ATOM     19  O   UNL     1       6.079   5.620  15.199  0.00  0.00    +0.000 OA
ATOM     20  O   UNL     1       7.152   4.060  16.855  0.00  0.00    +0.000 OA
BRANCH  18  21
ATOM     21  N   UNL     1       4.723   4.736  17.171  0.00  0.00    +0.000 NA
ATOM     22  C   UNL     1       3.773   5.851  17.545  0.00  0.00    +0.000 C 
ATOM     23  C   UNL     1       3.204   5.733  18.983  0.00  0.00    +0.000 C 
ATOM     24  C   UNL     1       2.609   4.357  19.138  0.00  0.00    +0.000 A 
ATOM     25  C   UNL     1       1.300   4.116  19.553  0.00  0.00    +0.000 A 
ATOM     26  C   UNL     1       0.781   2.822  19.462  0.00  0.00    +0.000 A 
ATOM     27  C   UNL     1       1.580   1.771  19.003  0.00  0.00    +0.000 A 
ATOM     28  C   UNL     1       2.911   2.000  18.649  0.00  0.00    +0.000 A 
ATOM     29  C   UNL     1       3.423   3.296  18.704  0.00  0.00    +0.000 A 
ATOM     30  C   UNL     1       4.806   3.664  18.217  0.00  0.00    +0.000 C 
ENDBRANCH  18  21
ENDBRANCH   4  18
TORSDOF 4
ENDMDL
MODEL 4
REMARK VINA RESULT:      -8.9      5.513      8.146
REMARK  Name = 
REMARK  5 active torsions:
REMARK  status: ('A' for Active; 'I' for Inactive)
REMARK    1  A    between atoms: C_1  and  C_2
REMARK    2  A    between atoms: C_7  and  N_8
REMARK    3  A    between atoms: C_9  and  C_11
REMARK    4  A    between atoms: C_14  and  S_15
REMARK    5  A    between atoms: S_15  and  N_18
REMARK                            x       y       z     vdW  Elec       q    Type
REMARK                         _______ _______ _______ _____ _____    ______ ____
ROOT
ATOM      1  C   UNL     1       2.446   8.107  18.508  0.00  0.00    +0.000 A 
ATOM      2  C   UNL     1       3.393   7.848  17.508  0.00  0.00    +0.000 A 
ATOM      3  C   UNL     1       4.111   6.634  17.509  0.00  0.00    +0.000 A 
ATOM      4  C   UNL     1       3.897   5.673  18.511  0.00  0.00    +0.000 A 
ATOM      5  C   UNL     1       3.001   5.954  19.548  0.00  0.00    +0.000 A 
ATOM      6  C   UNL     1       2.293   7.171  19.550  0.00  0.00    +0.000 A 
ENDROOT
BRANCH   1   8
ATOM      7  N   UNL     1       0.430   9.294  19.308  0.00  0.00    +0.000 N 
ATOM      8  C   UNL     1       1.585   9.342  18.528  0.00  0.00    +0.000 C 
ATOM      9  O   UNL     1       1.990  10.309  17.892  0.00  0.00    +0.000 OA
ATOM     10  H   UNL     1       0.255   8.441  19.817  0.00  0.00    +0.000 HD
BRANCH   7  17
ATOM     11  C   UNL     1      -1.640   9.788  17.249  0.00  0.00    +0.000 C 
ATOM     12  C   UNL     1      -1.486  10.617  18.495  0.00  0.00    +0.000 A 
ATOM     13  C   UNL     1      -2.357  11.723  18.638  0.00  0.00    +0.000 A 
ATOM     14  C   UNL     1      -2.354  12.495  19.793  0.00  0.00    +0.000 A 
ATOM     15  C   UNL     1      -1.478  12.174  20.815  0.00  0.00    +0.000 A 
ATOM     16  C   UNL     1      -0.574  11.110  20.670  0.00  0.00    +0.000 A 
ATOM     17  C   UNL     1      -0.534  10.336  19.503  0.00  0.00    +0.000 A 
ENDBRANCH   7  17
ENDBRANCH   1   8
BRANCH   4  18
ATOM     18  S   UNL     1       4.449   3.978  18.241  0.00  0.00    +0.000 S 
ATOM     19  O   UNL     1       5.306   3.682  19.367  0.00  0.00    +0.000 OA
ATOM     20  O   UNL     1       3.275   3.173  17.973  0.00  0.00    +0.000 OA
BRANCH  18  21
ATOM     21  N   UNL     1       5.405   3.960  16.833  0.00  0.00    +0.000 NA
ATOM     22  C   UNL     1       6.791   4.560  16.903  0.00  0.00    +0.000 C 
ATOM     23  C   UNL     1       7.073   5.614  15.802  0.00  0.00    +0.000 C 
ATOM     24  C   UNL     1       6.754   4.991  14.467  0.00  0.00    +0.000 A 
ATOM     25  C   UNL     1       7.649   4.934  13.398  0.00  0.00    +0.000 A 
ATOM     26  C   UNL     1       7.334   4.153  12.283  0.00  0.00    +0.000 A 
ATOM     27  C   UNL     1       6.114   3.473  12.219  0.00  0.00    +0.000 A 
ATOM     28  C   UNL     1       5.191   3.582  13.260  0.00  0.00    +0.000 A 
ATOM     29  C   UNL     1       5.514   4.331  14.390  0.00  0.00    +0.000 A 
ATOM     30  C   UNL     1       4.639   4.400  15.621  0.00  0.00    +0.000 C 
ENDBRANCH  18  21
ENDBRANCH   4  18
TORSDOF 4
ENDMDL
MODEL 5
REMARK VINA RESULT:      -8.9      5.483      8.074
REMARK  Name = 
REMARK  5 active torsions:
REMARK  status: ('A' for Active; 'I' for Inactive)
REMARK    1  A    between atoms: C_1  and  C_2
REMARK    2  A    between atoms: C_7  and  N_8
REMARK    3  A    between atoms: C_9  and  C_11
REMARK    4  A    between atoms: C_14  and  S_15
REMARK    5  A    between atoms: S_15  and  N_18
REMARK                            x       y       z     vdW  Elec       q    Type
REMARK                         _______ _______ _______ _____ _____    ______ ____
ROOT
ATOM      1  C   UNL     1       2.549   8.032  18.324  0.00  0.00    +0.000 A 
ATOM      2  C   UNL     1       3.622   7.821  17.449  0.00  0.00    +0.000 A 
ATOM      3  C   UNL     1       4.388   6.639  17.538  0.00  0.00    +0.000 A 
ATOM      4  C   UNL     1       4.094   5.663  18.504  0.00  0.00    +0.000 A 
ATOM      5  C   UNL     1       3.065   5.898  19.422  0.00  0.00    +0.000 A 
ATOM      6  C   UNL     1       2.310   7.083  19.338  0.00  0.00    +0.000 A 
ENDROOT
BRANCH   1   8
ATOM      7  N   UNL     1       0.551   9.257  19.113  0.00  0.00    +0.000 N 
ATOM      8  C   UNL     1       1.637   9.228  18.239  0.00  0.00    +0.000 C 
ATOM      9  O   UNL     1       1.948  10.103  17.439  0.00  0.00    +0.000 OA
ATOM     10  H   UNL     1       0.455   8.483  19.752  0.00  0.00    +0.000 HD
BRANCH   7  17
ATOM     11  C   UNL     1       0.408  10.871  21.591  0.00  0.00    +0.000 C 
ATOM     12  C   UNL     1      -0.554  11.016  20.443  0.00  0.00    +0.000 A 
ATOM     13  C   UNL     1      -1.609  11.944  20.606  0.00  0.00    +0.000 A 
ATOM     14  C   UNL     1      -2.494  12.216  19.570  0.00  0.00    +0.000 A 
ATOM     15  C   UNL     1      -2.337  11.559  18.362  0.00  0.00    +0.000 A 
ATOM     16  C   UNL     1      -1.326  10.600  18.199  0.00  0.00    +0.000 A 
ATOM     17  C   UNL     1      -0.440  10.284  19.237  0.00  0.00    +0.000 A 
ENDBRANCH   7  17
ENDBRANCH   1   8
BRANCH   4  18
ATOM     18  S   UNL     1       4.750   3.997  18.302  0.00  0.00    +0.000 S 
ATOM     19  O   UNL     1       5.701   3.838  19.380  0.00  0.00    +0.000 OA
ATOM     20  O   UNL     1       3.623   3.096  18.172  0.00  0.00    +0.000 OA
BRANCH  18  21
ATOM     21  N   UNL     1       5.607   3.948  16.833  0.00  0.00    +0.000 NA
ATOM     22  C   UNL     1       7.006   4.523  16.802  0.00  0.00    +0.000 C 
ATOM     23  C   UNL     1       7.231   5.562  15.674  0.00  0.00    +0.000 C 
ATOM     24  C   UNL     1       6.810   4.933  14.370  0.00  0.00    +0.000 A 
ATOM     25  C   UNL     1       7.629   4.850  13.244  0.00  0.00    +0.000 A 
ATOM     26  C   UNL     1       7.224   4.066  12.161  0.00  0.00    +0.000 A 
ATOM     27  C   UNL     1       5.991   3.407  12.186  0.00  0.00    +0.000 A 
ATOM     28  C   UNL     1       5.143   3.543  13.287  0.00  0.00    +0.000 A 
ATOM     29  C   UNL     1       5.556   4.296  14.385  0.00  0.00    +0.000 A 
ATOM     30  C   UNL     1       4.769   4.392  15.671  0.00  0.00    +0.000 C 
ENDBRANCH  18  21
ENDBRANCH   4  18
TORSDOF 4
ENDMDL
MODEL 6
REMARK VINA RESULT:      -8.8      1.613      2.050
REMARK  Name = 
REMARK  5 active torsions:
REMARK  status: ('A' for Active; 'I' for Inactive)
REMARK    1  A    between atoms: C_1  and  C_2
REMARK    2  A    between atoms: C_7  and  N_8
REMARK    3  A    between atoms: C_9  and  C_11
REMARK    4  A    between atoms: C_14  and  S_15
REMARK    5  A    between atoms: S_15  and  N_18
REMARK                            x       y       z     vdW  Elec       q    Type
REMARK                         _______ _______ _______ _____ _____    ______ ____
ROOT
ATOM      1  C   UNL     1       8.257   9.198  18.295  0.00  0.00    +0.000 A 
ATOM      2  C   UNL     1       8.750   8.158  19.093  0.00  0.00    +0.000 A 
ATOM      3  C   UNL     1       8.326   6.832  18.873  0.00  0.00    +0.000 A 
ATOM      4  C   UNL     1       7.400   6.532  17.859  0.00  0.00    +0.000 A 
ATOM      5  C   UNL     1       6.855   7.574  17.102  0.00  0.00    +0.000 A 
ATOM      6  C   UNL     1       7.273   8.898  17.331  0.00  0.00    +0.000 A 
ENDROOT
BRANCH   1   8
ATOM      7  N   UNL     1       9.566  10.925  19.486  0.00  0.00    +0.000 N 
ATOM      8  C   UNL     1       8.722  10.625  18.417  0.00  0.00    +0.000 C 
ATOM      9  O   UNL     1       8.358  11.401  17.540  0.00  0.00    +0.000 OA
ATOM     10  H   UNL     1       9.819  10.164  20.098  0.00  0.00    +0.000 HD
BRANCH   7  17
ATOM     11  C   UNL     1      11.944  11.863  17.993  0.00  0.00    +0.000 C 
ATOM     12  C   UNL     1      11.325  12.618  19.138  0.00  0.00    +0.000 A 
ATOM     13  C   UNL     1      11.969  13.812  19.539  0.00  0.00    +0.000 A 
ATOM     14  C   UNL     1      11.425  14.626  20.524  0.00  0.00    +0.000 A 
ATOM     15  C   UNL     1      10.234  14.253  21.124  0.00  0.00    +0.000 A 
ATOM     16  C   UNL     1       9.608  13.047  20.772  0.00  0.00    +0.000 A 
ATOM     17  C   UNL     1      10.151  12.193  19.805  0.00  0.00    +0.000 A 
ENDBRANCH   7  17
ENDBRANCH   1   8
BRANCH   4  18
ATOM     18  S   UNL     1       7.238   4.830  17.288  0.00  0.00    +0.000 S 
ATOM     19  O   UNL     1       7.425   4.898  15.856  0.00  0.00    +0.000 OA
ATOM     20  O   UNL     1       8.105   4.009  18.109  0.00  0.00    +0.000 OA
BRANCH  18  21
ATOM     21  N   UNL     1       5.639   4.330  17.587  0.00  0.00    +0.000 NA
ATOM     22  C   UNL     1       4.541   4.884  16.706  0.00  0.00    +0.000 C 
ATOM     23  C   UNL     1       3.365   5.515  17.494  0.00  0.00    +0.000 C 
ATOM     24  C   UNL     1       2.878   4.501  18.497  0.00  0.00    +0.000 A 
ATOM     25  C   UNL     1       1.553   4.076  18.596  0.00  0.00    +0.000 A 
ATOM     26  C   UNL     1       1.244   2.984  19.411  0.00  0.00    +0.000 A 
ATOM     27  C   UNL     1       2.245   2.352  20.155  0.00  0.00    +0.000 A 
ATOM     28  C   UNL     1       3.559   2.818  20.106  0.00  0.00    +0.000 A 
ATOM     29  C   UNL     1       3.880   3.885  19.267  0.00  0.00    +0.000 A 
ATOM     30  C   UNL     1       5.293   4.373  19.046  0.00  0.00    +0.000 C 
ENDBRANCH  18  21
ENDBRANCH   4  18
TORSDOF 4
ENDMDL
MODEL 7
REMARK VINA RESULT:      -8.7      5.537      8.141
REMARK  Name = 
REMARK  5 active torsions:
REMARK  status: ('A' for Active; 'I' for Inactive)
REMARK    1  A    between atoms: C_1  and  C_2
REMARK    2  A    between atoms: C_7  and  N_8
REMARK    3  A    between atoms: C_9  and  C_11
REMARK    4  A    between atoms: C_14  and  S_15
REMARK    5  A    between atoms: S_15  and  N_18
REMARK                            x       y       z     vdW  Elec       q    Type
REMARK                         _______ _______ _______ _____ _____    ______ ____
ROOT
ATOM      1  C   UNL     1       2.278   7.777  18.952  0.00  0.00    +0.000 A 
ATOM      2  C   UNL     1       3.106   7.592  17.838  0.00  0.00    +0.000 A 
ATOM      3  C   UNL     1       3.868   6.412  17.709  0.00  0.00    +0.000 A 
ATOM      4  C   UNL     1       3.815   5.411  18.693  0.00  0.00    +0.000 A 
ATOM      5  C   UNL     1       3.040   5.619  19.839  0.00  0.00    +0.000 A 
ATOM      6  C   UNL     1       2.289   6.802  19.970  0.00  0.00    +0.000 A 
ENDROOT
BRANCH   1   8
ATOM      7  N   UNL     1       0.865   9.203  20.397  0.00  0.00    +0.000 N 
ATOM      8  C   UNL     1       1.376   8.972  19.120  0.00  0.00    +0.000 C 
ATOM      9  O   UNL     1       1.197   9.672  18.130  0.00  0.00    +0.000 OA
ATOM     10  H   UNL     1       1.145   8.563  21.126  0.00  0.00    +0.000 HD
BRANCH   7  17
ATOM     11  C   UNL     1       0.128   9.473  23.252  0.00  0.00    +0.000 C 
ATOM     12  C   UNL     1      -0.398  10.370  22.165  0.00  0.00    +0.000 A 
ATOM     13  C   UNL     1      -1.340  11.354  22.547  0.00  0.00    +0.000 A 
ATOM     14  C   UNL     1      -1.815  12.288  21.635  0.00  0.00    +0.000 A 
ATOM     15  C   UNL     1      -1.359  12.244  20.329  0.00  0.00    +0.000 A 
ATOM     16  C   UNL     1      -0.463  11.245  19.921  0.00  0.00    +0.000 A 
ATOM     17  C   UNL     1       0.008  10.273  20.812  0.00  0.00    +0.000 A 
ENDBRANCH   7  17
ENDBRANCH   1   8
BRANCH   4  18
ATOM     18  S   UNL     1       4.399   3.752  18.297  0.00  0.00    +0.000 S 
ATOM     19  O   UNL     1       5.227   3.371  19.419  0.00  0.00    +0.000 OA
ATOM     20  O   UNL     1       3.244   2.959  17.927  0.00  0.00    +0.000 OA
BRANCH  18  21
ATOM     21  N   UNL     1       5.395   3.865  16.922  0.00  0.00    +0.000 NA
ATOM     22  C   UNL     1       6.729   4.564  17.061  0.00  0.00    +0.000 C 
ATOM     23  C   UNL     1       6.963   5.681  16.013  0.00  0.00    +0.000 C 
ATOM     24  C   UNL     1       6.732   5.093  14.644  0.00  0.00    +0.000 A 
ATOM     25  C   UNL     1       7.660   5.148  13.605  0.00  0.00    +0.000 A 
ATOM     26  C   UNL     1       7.439   4.394  12.450  0.00  0.00    +0.000 A 
ATOM     27  C   UNL     1       6.278   3.627  12.318  0.00  0.00    +0.000 A 
ATOM     28  C   UNL     1       5.318   3.623  13.331  0.00  0.00    +0.000 A 
ATOM     29  C   UNL     1       5.549   4.346  14.501  0.00  0.00    +0.000 A 
ATOM     30  C   UNL     1       4.635   4.297  15.703  0.00  0.00    +0.000 C 
ENDBRANCH  18  21
ENDBRANCH   4  18
TORSDOF 4
ENDMDL
MODEL 8
REMARK VINA RESULT:      -8.7      0.481      1.302
REMARK  Name = 
REMARK  5 active torsions:
REMARK  status: ('A' for Active; 'I' for Inactive)
REMARK    1  A    between atoms: C_1  and  C_2
REMARK    2  A    between atoms: C_7  and  N_8
REMARK    3  A    between atoms: C_9  and  C_11
REMARK    4  A    between atoms: C_14  and  S_15
REMARK    5  A    between atoms: S_15  and  N_18
REMARK                            x       y       z     vdW  Elec       q    Type
REMARK                         _______ _______ _______ _____ _____    ______ ____
ROOT
ATOM      1  C   UNL     1       8.422   9.243  18.447  0.00  0.00    +0.000 A 
ATOM      2  C   UNL     1       8.737   8.027  19.068  0.00  0.00    +0.000 A 
ATOM      3  C   UNL     1       8.084   6.840  18.676  0.00  0.00    +0.000 A 
ATOM      4  C   UNL     1       7.107   6.857  17.667  0.00  0.00    +0.000 A 
ATOM      5  C   UNL     1       6.742   8.078  17.089  0.00  0.00    +0.000 A 
ATOM      6  C   UNL     1       7.388   9.262  17.490  0.00  0.00    +0.000 A 
ENDROOT
BRANCH   1   8
ATOM      7  N   UNL     1       8.878  11.613  17.907  0.00  0.00    +0.000 N 
ATOM      8  C   UNL     1       9.132  10.535  18.755  0.00  0.00    +0.000 C 
ATOM      9  O   UNL     1       9.844  10.550  19.753  0.00  0.00    +0.000 OA
ATOM     10  H   UNL     1       8.226  11.459  17.152  0.00  0.00    +0.000 HD
BRANCH   7  17
ATOM     11  C   UNL     1      11.727  12.098  17.266  0.00  0.00    +0.000 C 
ATOM     12  C   UNL     1      10.788  13.166  17.754  0.00  0.00    +0.000 A 
ATOM     13  C   UNL     1      11.335  14.453  17.964  0.00  0.00    +0.000 A 
ATOM     14  C   UNL     1      10.531  15.527  18.327  0.00  0.00    +0.000 A 
ATOM     15  C   UNL     1       9.172  15.324  18.489  0.00  0.00    +0.000 A 
ATOM     16  C   UNL     1       8.620  14.044  18.333  0.00  0.00    +0.000 A 
ATOM     17  C   UNL     1       9.412  12.938  17.999  0.00  0.00    +0.000 A 
ENDBRANCH   7  17
ENDBRANCH   1   8
BRANCH   4  18
ATOM     18  S   UNL     1       6.641   5.312  16.864  0.00  0.00    +0.000 S 
ATOM     19  O   UNL     1       6.243   5.692  15.527  0.00  0.00    +0.000 OA
ATOM     20  O   UNL     1       7.721   4.368  17.073  0.00  0.00    +0.000 OA
BRANCH  18  21
ATOM     21  N   UNL     1       5.272   4.698  17.667  0.00  0.00    +0.000 NA
ATOM     22  C   UNL     1       4.641   3.432  17.135  0.00  0.00    +0.000 C 
ATOM     23  C   UNL     1       3.118   3.553  16.873  0.00  0.00    +0.000 C 
ATOM     24  C   UNL     1       2.467   4.068  18.132  0.00  0.00    +0.000 A 
ATOM     25  C   UNL     1       1.407   3.432  18.778  0.00  0.00    +0.000 A 
ATOM     26  C   UNL     1       1.016   3.871  20.045  0.00  0.00    +0.000 A 
ATOM     27  C   UNL     1       1.652   4.964  20.642  0.00  0.00    +0.000 A 
ATOM     28  C   UNL     1       2.670   5.641  19.967  0.00  0.00    +0.000 A 
ATOM     29  C   UNL     1       3.087   5.186  18.717  0.00  0.00    +0.000 A 
ATOM     30  C   UNL     1       4.266   5.768  17.972  0.00  0.00    +0.000 C 
ENDBRANCH  18  21
ENDBRANCH   4  18
TORSDOF 4
ENDMDL
MODEL 9
REMARK VINA RESULT:      -8.6      6.418      9.010
REMARK  Name = 
REMARK  5 active torsions:
REMARK  status: ('A' for Active; 'I' for Inactive)
REMARK    1  A    between atoms: C_1  and  C_2
REMARK    2  A    between atoms: C_7  and  N_8
REMARK    3  A    between atoms: C_9  and  C_11
REMARK    4  A    between atoms: C_14  and  S_15
REMARK    5  A    between atoms: S_15  and  N_18
REMARK                            x       y       z     vdW  Elec       q    Type
REMARK                         _______ _______ _______ _____ _____    ______ ____
ROOT
ATOM      1  C   UNL     1       2.429   7.787  18.802  0.00  0.00    +0.000 A 
ATOM      2  C   UNL     1       1.895   7.668  20.092  0.00  0.00    +0.000 A 
ATOM      3  C   UNL     1       1.199   8.749  20.674  0.00  0.00    +0.000 A 
ATOM      4  C   UNL     1       1.036   9.957  19.977  0.00  0.00    +0.000 A 
ATOM      5  C   UNL     1       1.623  10.104  18.716  0.00  0.00    +0.000 A 
ATOM      6  C   UNL     1       2.326   9.028  18.142  0.00  0.00    +0.000 A 
ENDROOT
BRANCH   1   8
ATOM      7  N   UNL     1       4.349   6.930  17.501  0.00  0.00    +0.000 N 
ATOM      8  C   UNL     1       3.113   6.654  18.085  0.00  0.00    +0.000 C 
ATOM      9  O   UNL     1       2.550   5.565  18.108  0.00  0.00    +0.000 OA
ATOM     10  H   UNL     1       4.708   7.867  17.609  0.00  0.00    +0.000 HD
BRANCH   7  17
ATOM     11  C   UNL     1       6.226   5.188  18.986  0.00  0.00    +0.000 C 
ATOM     12  C   UNL     1       6.140   5.235  17.485  0.00  0.00    +0.000 A 
ATOM     13  C   UNL     1       7.057   4.432  16.766  0.00  0.00    +0.000 A 
ATOM     14  C   UNL     1       6.998   4.337  15.381  0.00  0.00    +0.000 A 
ATOM     15  C   UNL     1       6.026   5.047  14.699  0.00  0.00    +0.000 A 
ATOM     16  C   UNL     1       5.139   5.886  15.392  0.00  0.00    +0.000 A 
ATOM     17  C   UNL     1       5.197   6.025  16.785  0.00  0.00    +0.000 A 
ENDBRANCH   7  17
ENDBRANCH   1   8
BRANCH   4  18
ATOM     18  S   UNL     1      -0.228  11.123  20.518  0.00  0.00    +0.000 S 
ATOM     19  O   UNL     1      -0.956  10.428  21.556  0.00  0.00    +0.000 OA
ATOM     20  O   UNL     1       0.429  12.384  20.793  0.00  0.00    +0.000 OA
BRANCH  18  21
ATOM     21  N   UNL     1      -1.291  11.382  19.214  0.00  0.00    +0.000 NA
ATOM     22  C   UNL     1      -2.434  12.353  19.407  0.00  0.00    +0.000 C 
ATOM     23  C   UNL     1      -3.821  11.767  19.040  0.00  0.00    +0.000 C 
ATOM     24  C   UNL     1      -3.737  11.206  17.643  0.00  0.00    +0.000 A 
ATOM     25  C   UNL     1      -4.599  11.561  16.606  0.00  0.00    +0.000 A 
ATOM     26  C   UNL     1      -4.309  11.149  15.304  0.00  0.00    +0.000 A 
ATOM     27  C   UNL     1      -3.190  10.351  15.048  0.00  0.00    +0.000 A 
ATOM     28  C   UNL     1      -2.363   9.941  16.095  0.00  0.00    +0.000 A 
ATOM     29  C   UNL     1      -2.628  10.378  17.392  0.00  0.00    +0.000 A 
ATOM     30  C   UNL     1      -1.718  10.099  18.566  0.00  0.00    +0.000 C 
ENDBRANCH  18  21
ENDBRANCH   4  18
TORSDOF 4
ENDMDL
