MODEL 1
REMARK VINA RESULT:      -8.9      0.000      0.000
REMARK  Name = 
REMARK  6 active torsions:
REMARK  status: ('A' for Active; 'I' for Inactive)
REMARK    1  A    between atoms: C_1  and  C_2
REMARK    2  A    between atoms: C_2  and  C_3
REMARK    3  A    between atoms: C_3  and  C_4
REMARK    4  A    between atoms: C_6  and  C_7
REMARK    5  A    between atoms: C_10  and  C_11
REMARK    6  A    between atoms: C_20  and  C_21
REMARK                            x       y       z     vdW  Elec       q    Type
REMARK                         _______ _______ _______ _____ _____    ______ ____
ROOT
ATOM      1  C   UNL     1       6.341   5.104  15.426  0.00  0.00    +0.000 A 
ATOM      2  N   UNL     1       7.363   5.748  16.013  0.00  0.00    +0.000 NA
ATOM      3  O   UNL     1       6.893   5.983  17.309  0.00  0.00    +0.000 OA
ATOM      4  C   UNL     1       5.646   5.433  17.371  0.00  0.00    +0.000 A 
ATOM      5  N   UNL     1       5.245   4.920  16.230  0.00  0.00    +0.000 NA
ENDROOT
BRANCH   4   6
ATOM      6  C   UNL     1       4.989   5.325  18.702  0.00  0.00    +0.000 C 
ATOM      7  C   UNL     1       5.063   3.886  19.248  0.00  0.00    +0.000 C 
ATOM      8  C   UNL     1       3.688   3.696  19.801  0.00  0.00    +0.000 A 
ATOM      9  C   UNL     1       3.230   2.618  20.548  0.00  0.00    +0.000 A 
ATOM     10  C   UNL     1       1.893   2.609  20.950  0.00  0.00    +0.000 A 
ATOM     11  C   UNL     1       1.041   3.662  20.596  0.00  0.00    +0.000 A 
ATOM     12  C   UNL     1       1.515   4.738  19.837  0.00  0.00    +0.000 A 
ATOM     13  C   UNL     1       2.844   4.750  19.444  0.00  0.00    +0.000 A 
ATOM     14  N   UNL     1       3.552   5.728  18.704  0.00  0.00    +0.000 N 
ATOM     15  C   UNL     1       3.011   6.949  18.317  0.00  0.00    +0.000 C 
ATOM     16  C   UNL     1       3.886   7.923  17.571  0.00  0.00    +0.000 C 
ATOM     17  O   UNL     1       1.836   7.272  18.505  0.00  0.00    +0.000 OA
ENDBRANCH   4   6
BRANCH   1  20
ATOM     18  C   UNL     1       5.763   3.491  12.348  0.00  0.00    +0.000 A 
ATOM     19  N   UNL     1       5.365   3.769  13.573  0.00  0.00    +0.000 NA
ATOM     20  C   UNL     1       6.380   4.553  14.077  0.00  0.00    +0.000 A 
ATOM     21  C   UNL     1       7.371   4.688  13.134  0.00  0.00    +0.000 A 
ATOM     22  O   UNL     1       6.987   4.008  12.017  0.00  0.00    +0.000 OA
BRANCH  18  23
ATOM     23  C   UNL     1       5.045   2.738  11.287  0.00  0.00    +0.000 C 
BRANCH  23  25
ATOM     24  C   UNL     1       3.257   3.783   9.838  0.00  0.00    +0.000 C 
ATOM     25  C   UNL     1       3.589   3.198  11.201  0.00  0.00    +0.000 C 
ENDBRANCH  23  25
ENDBRANCH  18  23
ENDBRANCH   1  20
TORSDOF 4
ENDMDL
MODEL 2
REMARK VINA RESULT:      -8.8      0.786      1.260
REMARK  Name = 
REMARK  6 active torsions:
REMARK  status: ('A' for Active; 'I' for Inactive)
REMARK    1  A    between atoms: C_1  and  C_2
REMARK    2  A    between atoms: C_2  and  C_3
REMARK    3  A    between atoms: C_3  and  C_4
REMARK    4  A    between atoms: C_6  and  C_7
REMARK    5  A    between atoms: C_10  and  C_11
REMARK    6  A    between atoms: C_20  and  C_21
REMARK                            x       y       z     vdW  Elec       q    Type
REMARK                         _______ _______ _______ _____ _____    ______ ____
ROOT
ATOM      1  C   UNL     1       6.423   5.115  15.387  0.00  0.00    +0.000 A 
ATOM      2  N   UNL     1       7.394   5.838  15.970  0.00  0.00    +0.000 NA
ATOM      3  O   UNL     1       6.886   6.087  17.248  0.00  0.00    +0.000 OA
ATOM      4  C   UNL     1       5.672   5.467  17.308  0.00  0.00    +0.000 A 
ATOM      5  N   UNL     1       5.324   4.894  16.178  0.00  0.00    +0.000 NA
ENDROOT
BRANCH   4   6
ATOM      6  C   UNL     1       4.995   5.365  18.629  0.00  0.00    +0.000 C 
ATOM      7  C   UNL     1       5.102   3.940  19.205  0.00  0.00    +0.000 C 
ATOM      8  C   UNL     1       3.724   3.719  19.739  0.00  0.00    +0.000 A 
ATOM      9  C   UNL     1       3.286   2.643  20.499  0.00  0.00    +0.000 A 
ATOM     10  C   UNL     1       1.944   2.602  20.880  0.00  0.00    +0.000 A 
ATOM     11  C   UNL     1       1.067   3.623  20.491  0.00  0.00    +0.000 A 
ATOM     12  C   UNL     1       1.521   4.697  19.718  0.00  0.00    +0.000 A 
ATOM     13  C   UNL     1       2.856   4.741  19.347  0.00  0.00    +0.000 A 
ATOM     14  N   UNL     1       3.547   5.726  18.600  0.00  0.00    +0.000 N 
ATOM     15  C   UNL     1       2.977   6.922  18.180  0.00  0.00    +0.000 C 
ATOM     16  C   UNL     1       3.836   7.907  17.429  0.00  0.00    +0.000 C 
ATOM     17  O   UNL     1       1.790   7.214  18.342  0.00  0.00    +0.000 OA
ENDBRANCH   4   6
BRANCH   1  20
ATOM     18  C   UNL     1       6.086   3.259  12.413  0.00  0.00    +0.000 A 
ATOM     19  N   UNL     1       5.700   3.495  13.650  0.00  0.00    +0.000 NA
ATOM     20  C   UNL     1       6.521   4.522  14.059  0.00  0.00    +0.000 A 
ATOM     21  C   UNL     1       7.399   4.841  13.051  0.00  0.00    +0.000 A 
ATOM     22  O   UNL     1       7.131   4.035  11.986  0.00  0.00    +0.000 OA
BRANCH  18  23
ATOM     23  C   UNL     1       5.514   2.305  11.427  0.00  0.00    +0.000 C 
BRANCH  23  25
ATOM     24  C   UNL     1       6.172  -0.134  11.327  0.00  0.00    +0.000 C 
ATOM     25  C   UNL     1       6.574   1.293  10.989  0.00  0.00    +0.000 C 
ENDBRANCH  23  25
ENDBRANCH  18  23
ENDBRANCH   1  20
TORSDOF 4
ENDMDL
MODEL 3
REMARK VINA RESULT:      -7.3      3.715      8.288
REMARK  Name = 
REMARK  6 active torsions:
REMARK  status: ('A' for Active; 'I' for Inactive)
REMARK    1  A    between atoms: C_1  and  C_2
REMARK    2  A    between atoms: C_2  and  C_3
REMARK    3  A    between atoms: C_3  and  C_4
REMARK    4  A    between atoms: C_6  and  C_7
REMARK    5  A    between atoms: C_10  and  C_11
REMARK    6  A    between atoms: C_20  and  C_21
REMARK                            x       y       z     vdW  Elec       q    Type
REMARK                         _______ _______ _______ _____ _____    ______ ____
ROOT
ATOM      1  C   UNL     1       1.648   7.743  20.099  0.00  0.00    +0.000 A 
ATOM      2  N   UNL     1       1.325   6.941  21.127  0.00  0.00    +0.000 NA
ATOM      3  O   UNL     1       2.046   5.772  20.862  0.00  0.00    +0.000 OA
ATOM      4  C   UNL     1       2.745   6.004  19.714  0.00  0.00    +0.000 A 
ATOM      5  N   UNL     1       2.502   7.181  19.184  0.00  0.00    +0.000 NA
ENDROOT
BRANCH   4   6
ATOM      6  C   UNL     1       3.784   5.018  19.310  0.00  0.00    +0.000 C 
ATOM      7  C   UNL     1       5.180   5.666  19.253  0.00  0.00    +0.000 C 
ATOM      8  C   UNL     1       5.738   5.087  17.994  0.00  0.00    +0.000 A 
ATOM      9  C   UNL     1       7.036   5.218  17.518  0.00  0.00    +0.000 A 
ATOM     10  C   UNL     1       7.359   4.624  16.297  0.00  0.00    +0.000 A 
ATOM     11  C   UNL     1       6.387   3.922  15.573  0.00  0.00    +0.000 A 
ATOM     12  C   UNL     1       5.081   3.805  16.062  0.00  0.00    +0.000 A 
ATOM     13  C   UNL     1       4.763   4.388  17.278  0.00  0.00    +0.000 A 
ATOM     14  N   UNL     1       3.535   4.383  17.982  0.00  0.00    +0.000 N 
ATOM     15  C   UNL     1       2.415   3.664  17.581  0.00  0.00    +0.000 C 
ATOM     16  C   UNL     1       1.181   3.706  18.445  0.00  0.00    +0.000 C 
ATOM     17  O   UNL     1       2.348   3.023  16.529  0.00  0.00    +0.000 OA
ENDBRANCH   4   6
BRANCH   1  20
ATOM     18  C   UNL     1       0.490  11.042  20.524  0.00  0.00    +0.000 A 
ATOM     19  N   UNL     1       0.757   9.860  21.042  0.00  0.00    +0.000 NA
ATOM     20  C   UNL     1       1.218   9.129  19.969  0.00  0.00    +0.000 A 
ATOM     21  C   UNL     1       1.177   9.901  18.832  0.00  0.00    +0.000 A 
ATOM     22  O   UNL     1       0.709  11.135  19.176  0.00  0.00    +0.000 OA
BRANCH  18  23
ATOM     23  C   UNL     1       0.032  12.276  21.214  0.00  0.00    +0.000 C 
BRANCH  23  25
ATOM     24  C   UNL     1      -1.656  11.779  23.028  0.00  0.00    +0.000 C 
ATOM     25  C   UNL     1      -1.451  12.166  21.572  0.00  0.00    +0.000 C 
ENDBRANCH  23  25
ENDBRANCH  18  23
ENDBRANCH   1  20
TORSDOF 4
ENDMDL
MODEL 4
REMARK VINA RESULT:      -7.3      3.461      7.804
REMARK  Name = 
REMARK  6 active torsions:
REMARK  status: ('A' for Active; 'I' for Inactive)
REMARK    1  A    between atoms: C_1  and  C_2
REMARK    2  A    between atoms: C_2  and  C_3
REMARK    3  A    between atoms: C_3  and  C_4
REMARK    4  A    between atoms: C_6  and  C_7
REMARK    5  A    between atoms: C_10  and  C_11
REMARK    6  A    between atoms: C_20  and  C_21
REMARK                            x       y       z     vdW  Elec       q    Type
REMARK                         _______ _______ _______ _____ _____    ______ ____
ROOT
ATOM      1  C   UNL     1       1.625   7.483  20.326  0.00  0.00    +0.000 A 
ATOM      2  N   UNL     1       1.245   6.572  21.237  0.00  0.00    +0.000 NA
ATOM      3  O   UNL     1       1.975   5.435  20.880  0.00  0.00    +0.000 OA
ATOM      4  C   UNL     1       2.737   5.789  19.804  0.00  0.00    +0.000 A 
ATOM      5  N   UNL     1       2.526   7.021  19.400  0.00  0.00    +0.000 NA
ENDROOT
BRANCH   4   6
ATOM      6  C   UNL     1       3.794   4.846  19.347  0.00  0.00    +0.000 C 
ATOM      7  C   UNL     1       5.177   5.523  19.325  0.00  0.00    +0.000 C 
ATOM      8  C   UNL     1       5.744   5.023  18.036  0.00  0.00    +0.000 A 
ATOM      9  C   UNL     1       7.038   5.204  17.567  0.00  0.00    +0.000 A 
ATOM     10  C   UNL     1       7.370   4.682  16.315  0.00  0.00    +0.000 A 
ATOM     11  C   UNL     1       6.410   4.002  15.555  0.00  0.00    +0.000 A 
ATOM     12  C   UNL     1       5.107   3.834  16.038  0.00  0.00    +0.000 A 
ATOM     13  C   UNL     1       4.781   4.345  17.284  0.00  0.00    +0.000 A 
ATOM     14  N   UNL     1       3.554   4.279  17.987  0.00  0.00    +0.000 N 
ATOM     15  C   UNL     1       2.447   3.562  17.549  0.00  0.00    +0.000 C 
ATOM     16  C   UNL     1       1.214   3.534  18.415  0.00  0.00    +0.000 C 
ATOM     17  O   UNL     1       2.390   2.977  16.464  0.00  0.00    +0.000 OA
ENDBRANCH   4   6
BRANCH   1  20
ATOM     18  C   UNL     1       0.606  10.774  19.594  0.00  0.00    +0.000 A 
ATOM     19  N   UNL     1       0.969   9.580  19.170  0.00  0.00    +0.000 NA
ATOM     20  C   UNL     1       1.207   8.879  20.332  0.00  0.00    +0.000 A 
ATOM     21  C   UNL     1       1.007   9.700  21.416  0.00  0.00    +0.000 A 
ATOM     22  O   UNL     1       0.621  10.923  20.955  0.00  0.00    +0.000 OA
BRANCH  18  23
ATOM     23  C   UNL     1       0.150  11.943  18.797  0.00  0.00    +0.000 C 
BRANCH  23  25
ATOM     24  C   UNL     1      -1.994  11.504  17.533  0.00  0.00    +0.000 C 
ATOM     25  C   UNL     1      -1.376  12.036  18.816  0.00  0.00    +0.000 C 
ENDBRANCH  23  25
ENDBRANCH  18  23
ENDBRANCH   1  20
TORSDOF 4
ENDMDL
MODEL 5
REMARK VINA RESULT:      -7.3      3.390      7.835
REMARK  Name = 
REMARK  6 active torsions:
REMARK  status: ('A' for Active; 'I' for Inactive)
REMARK    1  A    between atoms: C_1  and  C_2
REMARK    2  A    between atoms: C_2  and  C_3
REMARK    3  A    between atoms: C_3  and  C_4
REMARK    4  A    between atoms: C_6  and  C_7
REMARK    5  A    between atoms: C_10  and  C_11
REMARK    6  A    between atoms: C_20  and  C_21
REMARK                            x       y       z     vdW  Elec       q    Type
REMARK                         _______ _______ _______ _____ _____    ______ ____
ROOT
ATOM      1  C   UNL     1       1.606   7.598  20.327  0.00  0.00    +0.000 A 
ATOM      2  N   UNL     1       1.247   6.703  21.262  0.00  0.00    +0.000 NA
ATOM      3  O   UNL     1       1.974   5.562  20.911  0.00  0.00    +0.000 OA
ATOM      4  C   UNL     1       2.712   5.898  19.814  0.00  0.00    +0.000 A 
ATOM      5  N   UNL     1       2.489   7.122  19.392  0.00  0.00    +0.000 NA
ENDROOT
BRANCH   4   6
ATOM      6  C   UNL     1       3.762   4.950  19.352  0.00  0.00    +0.000 C 
ATOM      7  C   UNL     1       5.146   5.625  19.308  0.00  0.00    +0.000 C 
ATOM      8  C   UNL     1       5.697   5.113  18.017  0.00  0.00    +0.000 A 
ATOM      9  C   UNL     1       6.986   5.289  17.531  0.00  0.00    +0.000 A 
ATOM     10  C   UNL     1       7.303   4.756  16.281  0.00  0.00    +0.000 A 
ATOM     11  C   UNL     1       6.333   4.071  15.538  0.00  0.00    +0.000 A 
ATOM     12  C   UNL     1       5.036   3.908  16.037  0.00  0.00    +0.000 A 
ATOM     13  C   UNL     1       4.725   4.431  17.282  0.00  0.00    +0.000 A 
ATOM     14  N   UNL     1       3.506   4.371  18.000  0.00  0.00    +0.000 N 
ATOM     15  C   UNL     1       2.393   3.652  17.581  0.00  0.00    +0.000 C 
ATOM     16  C   UNL     1       1.170   3.633  18.461  0.00  0.00    +0.000 C 
ATOM     17  O   UNL     1       2.323   3.059  16.502  0.00  0.00    +0.000 OA
ENDBRANCH   4   6
BRANCH   1  20
ATOM     18  C   UNL     1       0.611  10.887  19.554  0.00  0.00    +0.000 A 
ATOM     19  N   UNL     1       0.998   9.696  19.145  0.00  0.00    +0.000 NA
ATOM     20  C   UNL     1       1.183   8.993  20.316  0.00  0.00    +0.000 A 
ATOM     21  C   UNL     1       0.929   9.810  21.391  0.00  0.00    +0.000 A 
ATOM     22  O   UNL     1       0.561  11.033  20.915  0.00  0.00    +0.000 OA
BRANCH  18  23
ATOM     23  C   UNL     1       0.189  12.056  18.739  0.00  0.00    +0.000 C 
BRANCH  23  25
ATOM     24  C   UNL     1       2.547  12.757  18.158  0.00  0.00    +0.000 C 
ATOM     25  C   UNL     1       1.239  13.166  18.817  0.00  0.00    +0.000 C 
ENDBRANCH  23  25
ENDBRANCH  18  23
ENDBRANCH   1  20
TORSDOF 4
ENDMDL
MODEL 6
REMARK VINA RESULT:      -7.2      3.610      7.739
REMARK  Name = 
REMARK  6 active torsions:
REMARK  status: ('A' for Active; 'I' for Inactive)
REMARK    1  A    between atoms: C_1  and  C_2
REMARK    2  A    between atoms: C_2  and  C_3
REMARK    3  A    between atoms: C_3  and  C_4
REMARK    4  A    between atoms: C_6  and  C_7
REMARK    5  A    between atoms: C_10  and  C_11
REMARK    6  A    between atoms: C_20  and  C_21
REMARK                            x       y       z     vdW  Elec       q    Type
REMARK                         _______ _______ _______ _____ _____    ______ ____
ROOT
ATOM      1  C   UNL     1       1.673   8.310  19.415  0.00  0.00    +0.000 A 
ATOM      2  N   UNL     1       1.588   7.695  20.606  0.00  0.00    +0.000 NA
ATOM      3  O   UNL     1       2.383   6.558  20.439  0.00  0.00    +0.000 OA
ATOM      4  C   UNL     1       2.882   6.621  19.170  0.00  0.00    +0.000 A 
ATOM      5  N   UNL     1       2.442   7.654  18.488  0.00  0.00    +0.000 NA
ENDROOT
BRANCH   4   6
ATOM      6  C   UNL     1       3.951   5.660  18.784  0.00  0.00    +0.000 C 
ATOM      7  C   UNL     1       5.235   6.394  18.353  0.00  0.00    +0.000 C 
ATOM      8  C   UNL     1       5.649   5.610  17.150  0.00  0.00    +0.000 A 
ATOM      9  C   UNL     1       6.829   5.744  16.432  0.00  0.00    +0.000 A 
ATOM     10  C   UNL     1       7.020   4.933  15.311  0.00  0.00    +0.000 A 
ATOM     11  C   UNL     1       6.034   4.018  14.924  0.00  0.00    +0.000 A 
ATOM     12  C   UNL     1       4.846   3.899  15.653  0.00  0.00    +0.000 A 
ATOM     13  C   UNL     1       4.660   4.698  16.771  0.00  0.00    +0.000 A 
ATOM     14  N   UNL     1       3.569   4.741  17.672  0.00  0.00    +0.000 N 
ATOM     15  C   UNL     1       2.491   3.865  17.626  0.00  0.00    +0.000 C 
ATOM     16  C   UNL     1       1.414   3.987  18.673  0.00  0.00    +0.000 C 
ATOM     17  O   UNL     1       2.332   3.013  16.748  0.00  0.00    +0.000 OA
ENDBRANCH   4   6
BRANCH   1  20
ATOM     18  C   UNL     1      -0.364  11.154  19.003  0.00  0.00    +0.000 A 
ATOM     19  N   UNL     1      -0.229   9.907  19.408  0.00  0.00    +0.000 NA
ATOM     20  C   UNL     1       1.084   9.609  19.114  0.00  0.00    +0.000 A 
ATOM     21  C   UNL     1       1.679  10.690  18.509  0.00  0.00    +0.000 A 
ATOM     22  O   UNL     1       0.757  11.691  18.430  0.00  0.00    +0.000 OA
BRANCH  18  23
ATOM     23  C   UNL     1      -1.546  12.047  19.128  0.00  0.00    +0.000 C 
BRANCH  23  25
ATOM     24  C   UNL     1      -2.458  11.198  16.930  0.00  0.00    +0.000 C 
ATOM     25  C   UNL     1      -2.748  11.443  18.402  0.00  0.00    +0.000 C 
ENDBRANCH  23  25
ENDBRANCH  18  23
ENDBRANCH   1  20
TORSDOF 4
ENDMDL
MODEL 7
REMARK VINA RESULT:      -7.1      5.160      8.282
REMARK  Name = 
REMARK  6 active torsions:
REMARK  status: ('A' for Active; 'I' for Inactive)
REMARK    1  A    between atoms: C_1  and  C_2
REMARK    2  A    between atoms: C_2  and  C_3
REMARK    3  A    between atoms: C_3  and  C_4
REMARK    4  A    between atoms: C_6  and  C_7
REMARK    5  A    between atoms: C_10  and  C_11
REMARK    6  A    between atoms: C_20  and  C_21
REMARK                            x       y       z     vdW  Elec       q    Type
REMARK                         _______ _______ _______ _____ _____    ______ ____
ROOT
ATOM      1  C   UNL     1       2.095   8.077  18.684  0.00  0.00    +0.000 A 
ATOM      2  N   UNL     1       2.538   8.563  17.514  0.00  0.00    +0.000 NA
ATOM      3  O   UNL     1       1.913   9.810  17.425  0.00  0.00    +0.000 OA
ATOM      4  C   UNL     1       1.176   9.953  18.565  0.00  0.00    +0.000 A 
ATOM      5  N   UNL     1       1.221   8.900  19.349  0.00  0.00    +0.000 NA
ENDROOT
BRANCH   4   6
ATOM      6  C   UNL     1       0.581  11.285  18.858  0.00  0.00    +0.000 C 
ATOM      7  C   UNL     1       1.264  11.950  20.068  0.00  0.00    +0.000 C 
ATOM      8  C   UNL     1       0.095  12.510  20.812  0.00  0.00    +0.000 A 
ATOM      9  C   UNL     1       0.133  13.342  21.923  0.00  0.00    +0.000 A 
ATOM     10  C   UNL     1      -1.075  13.738  22.498  0.00  0.00    +0.000 A 
ATOM     11  C   UNL     1      -2.292  13.293  21.965  0.00  0.00    +0.000 A 
ATOM     12  C   UNL     1      -2.314  12.448  20.849  0.00  0.00    +0.000 A 
ATOM     13  C   UNL     1      -1.114  12.062  20.274  0.00  0.00    +0.000 A 
ATOM     14  N   UNL     1      -0.884  11.247  19.139  0.00  0.00    +0.000 N 
ATOM     15  C   UNL     1      -1.894  10.756  18.320  0.00  0.00    +0.000 C 
ATOM     16  C   UNL     1      -1.513   9.936  17.114  0.00  0.00    +0.000 C 
ATOM     17  O   UNL     1      -3.097  10.911  18.542  0.00  0.00    +0.000 OA
ENDBRANCH   4   6
BRANCH   1  20
ATOM     18  C   UNL     1       2.525   5.087  20.495  0.00  0.00    +0.000 A 
ATOM     19  N   UNL     1       1.802   6.156  20.230  0.00  0.00    +0.000 NA
ATOM     20  C   UNL     1       2.542   6.824  19.279  0.00  0.00    +0.000 A 
ATOM     21  C   UNL     1       3.708   6.139  19.036  0.00  0.00    +0.000 A 
ATOM     22  O   UNL     1       3.711   5.019  19.813  0.00  0.00    +0.000 OA
BRANCH  18  23
ATOM     23  C   UNL     1       2.203   3.947  21.393  0.00  0.00    +0.000 C 
BRANCH  23  25
ATOM     24  C   UNL     1       1.485   2.369  19.554  0.00  0.00    +0.000 C 
ATOM     25  C   UNL     1       1.060   3.117  20.808  0.00  0.00    +0.000 C 
ENDBRANCH  23  25
ENDBRANCH  18  23
ENDBRANCH   1  20
TORSDOF 4
ENDMDL
MODEL 8
REMARK VINA RESULT:      -7.0      3.559      8.052
REMARK  Name = 
REMARK  6 active torsions:
REMARK  status: ('A' for Active; 'I' for Inactive)
REMARK    1  A    between atoms: C_1  and  C_2
REMARK    2  A    between atoms: C_2  and  C_3
REMARK    3  A    between atoms: C_3  and  C_4
REMARK    4  A    between atoms: C_6  and  C_7
REMARK    5  A    between atoms: C_10  and  C_11
REMARK    6  A    between atoms: C_20  and  C_21
REMARK                            x       y       z     vdW  Elec       q    Type
REMARK                         _______ _______ _______ _____ _____    ______ ____
ROOT
ATOM      1  C   UNL     1       1.638   8.031  19.788  0.00  0.00    +0.000 A 
ATOM      2  N   UNL     1       1.441   7.331  20.918  0.00  0.00    +0.000 NA
ATOM      3  O   UNL     1       2.200   6.174  20.715  0.00  0.00    +0.000 OA
ATOM      4  C   UNL     1       2.792   6.311  19.494  0.00  0.00    +0.000 A 
ATOM      5  N   UNL     1       2.445   7.413  18.867  0.00  0.00    +0.000 NA
ENDROOT
BRANCH   4   6
ATOM      6  C   UNL     1       3.846   5.335  19.108  0.00  0.00    +0.000 C 
ATOM      7  C   UNL     1       5.195   6.036  18.857  0.00  0.00    +0.000 C 
ATOM      8  C   UNL     1       5.677   5.345  17.624  0.00  0.00    +0.000 A 
ATOM      9  C   UNL     1       6.921   5.481  17.022  0.00  0.00    +0.000 A 
ATOM     10  C   UNL     1       7.173   4.768  15.849  0.00  0.00    +0.000 A 
ATOM     11  C   UNL     1       6.184   3.946  15.294  0.00  0.00    +0.000 A 
ATOM     12  C   UNL     1       4.932   3.824  15.907  0.00  0.00    +0.000 A 
ATOM     13  C   UNL     1       4.686   4.526  17.077  0.00  0.00    +0.000 A 
ATOM     14  N   UNL     1       3.522   4.543  17.884  0.00  0.00    +0.000 N 
ATOM     15  C   UNL     1       2.414   3.734  17.664  0.00  0.00    +0.000 C 
ATOM     16  C   UNL     1       1.256   3.816  18.625  0.00  0.00    +0.000 C 
ATOM     17  O   UNL     1       2.295   2.977  16.698  0.00  0.00    +0.000 OA
ENDBRANCH   4   6
BRANCH   1  20
ATOM     18  C   UNL     1       0.515  11.365  19.953  0.00  0.00    +0.000 A 
ATOM     19  N   UNL     1       0.980  10.296  20.566  0.00  0.00    +0.000 NA
ATOM     20  C   UNL     1       1.126   9.375  19.551  0.00  0.00    +0.000 A 
ATOM     21  C   UNL     1       0.705   9.925  18.364  0.00  0.00    +0.000 A 
ATOM     22  O   UNL     1       0.308  11.206  18.609  0.00  0.00    +0.000 OA
BRANCH  18  23
ATOM     23  C   UNL     1       0.233  12.711  20.519  0.00  0.00    +0.000 C 
BRANCH  23  25
ATOM     24  C   UNL     1       1.877  14.266  19.396  0.00  0.00    +0.000 C 
ATOM     25  C   UNL     1       0.435  13.789  19.454  0.00  0.00    +0.000 C 
ENDBRANCH  23  25
ENDBRANCH  18  23
ENDBRANCH   1  20
TORSDOF 4
ENDMDL
MODEL 9
REMARK VINA RESULT:      -6.8      3.981      8.244
REMARK  Name = 
REMARK  6 active torsions:
REMARK  status: ('A' for Active; 'I' for Inactive)
REMARK    1  A    between atoms: C_1  and  C_2
REMARK    2  A    between atoms: C_2  and  C_3
REMARK    3  A    between atoms: C_3  and  C_4
REMARK    4  A    between atoms: C_6  and  C_7
REMARK    5  A    between atoms: C_10  and  C_11
REMARK    6  A    between atoms: C_20  and  C_21
REMARK                            x       y       z     vdW  Elec       q    Type
REMARK                         _______ _______ _______ _____ _____    ______ ____
ROOT
ATOM      1  C   UNL     1       1.715   9.146  18.888  0.00  0.00    +0.000 A 
ATOM      2  N   UNL     1       2.002   9.528  17.633  0.00  0.00    +0.000 NA
ATOM      3  O   UNL     1       2.549   8.375  17.062  0.00  0.00    +0.000 OA
ATOM      4  C   UNL     1       2.512   7.413  18.029  0.00  0.00    +0.000 A 
ATOM      5  N   UNL     1       2.050   7.847  19.179  0.00  0.00    +0.000 NA
ENDROOT
BRANCH   4   6
ATOM      6  C   UNL     1       2.818   6.009  17.639  0.00  0.00    +0.000 C 
ATOM      7  C   UNL     1       1.654   5.064  17.991  0.00  0.00    +0.000 C 
ATOM      8  C   UNL     1       2.376   3.882  18.553  0.00  0.00    +0.000 A 
ATOM      9  C   UNL     1       1.825   2.658  18.908  0.00  0.00    +0.000 A 
ATOM     10  C   UNL     1       2.666   1.683  19.447  0.00  0.00    +0.000 A 
ATOM     11  C   UNL     1       4.029   1.947  19.631  0.00  0.00    +0.000 A 
ATOM     12  C   UNL     1       4.569   3.188  19.275  0.00  0.00    +0.000 A 
ATOM     13  C   UNL     1       3.735   4.153  18.732  0.00  0.00    +0.000 A 
ATOM     14  N   UNL     1       4.049   5.456  18.276  0.00  0.00    +0.000 N 
ATOM     15  C   UNL     1       5.341   5.964  18.211  0.00  0.00    +0.000 C 
ATOM     16  C   UNL     1       5.546   7.353  17.663  0.00  0.00    +0.000 C 
ATOM     17  O   UNL     1       6.338   5.364  18.619  0.00  0.00    +0.000 OA
ENDBRANCH   4   6
BRANCH   1  20
ATOM     18  C   UNL     1      -0.107  10.503  21.579  0.00  0.00    +0.000 A 
ATOM     19  N   UNL     1       0.347   9.445  20.938  0.00  0.00    +0.000 NA
ATOM     20  C   UNL     1       1.030   9.979  19.867  0.00  0.00    +0.000 A 
ATOM     21  C   UNL     1       0.928  11.350  19.891  0.00  0.00    +0.000 A 
ATOM     22  O   UNL     1       0.197  11.700  20.988  0.00  0.00    +0.000 OA
BRANCH  18  23
ATOM     23  C   UNL     1      -0.857  10.561  22.861  0.00  0.00    +0.000 C 
BRANCH  23  25
ATOM     24  C   UNL     1      -2.804  12.163  23.030  0.00  0.00    +0.000 C 
ATOM     25  C   UNL     1      -1.298  11.996  23.154  0.00  0.00    +0.000 C 
ENDBRANCH  23  25
ENDBRANCH  18  23
ENDBRANCH   1  20
TORSDOF 4
ENDMDL
