MODEL 1
REMARK VINA RESULT:      -9.0      0.000      0.000
REMARK  Name = 
REMARK  5 active torsions:
REMARK  status: ('A' for Active; 'I' for Inactive)
REMARK    1  A    between atoms: C_2  and  C_3
REMARK    2  A    between atoms: C_3  and  N_4
REMARK    3  A    between atoms: C_5  and  C_7
REMARK    4  A    between atoms: C_9  and  O_10
REMARK    5  A    between atoms: N_18  and  C_19
REMARK                            x       y       z     vdW  Elec       q    Type
REMARK                         _______ _______ _______ _____ _____    ______ ____
ROOT
ATOM      1  N   UNL     1       7.236   7.904  17.139  0.00  0.00    +0.000 N 
ATOM      2  C   UNL     1       8.113   8.269  18.134  0.00  0.00    +0.000 C 
ATOM      3  O   UNL     1       8.556   7.461  18.946  0.00  0.00    +0.000 OA
ATOM      4  H   UNL     1       7.002   8.532  16.377  0.00  0.00    +0.000 HD
ENDROOT
BRANCH   2   5
ATOM      5  C   UNL     1       8.546   9.697  18.190  0.00  0.00    +0.000 A 
ATOM      6  C   UNL     1       7.906  10.704  17.463  0.00  0.00    +0.000 A 
ATOM      7  C   UNL     1       8.340  12.028  17.592  0.00  0.00    +0.000 A 
ATOM      8  C   UNL     1       9.411  12.382  18.441  0.00  0.00    +0.000 A 
ATOM      9  C   UNL     1       9.866  13.710  18.592  0.00  0.00    +0.000 A 
ATOM     10  C   UNL     1      10.926  14.022  19.446  0.00  0.00    +0.000 A 
ATOM     11  C   UNL     1      11.550  13.012  20.170  0.00  0.00    +0.000 A 
ATOM     12  C   UNL     1      11.114  11.692  20.038  0.00  0.00    +0.000 A 
ATOM     13  C   UNL     1      10.050  11.362  19.181  0.00  0.00    +0.000 A 
ATOM     14  C   UNL     1       9.605  10.033  19.049  0.00  0.00    +0.000 A 
BRANCH   7  15
ATOM     15  O   UNL     1       7.705  13.019  16.885  0.00  0.00    +0.000 OA
ATOM     16  H   UNL     1       7.592  12.738  15.963  0.00  0.00    +0.000 HD
ENDBRANCH   7  15
ENDBRANCH   2   5
BRANCH   1  17
ATOM     17  C   UNL     1       6.803   6.518  16.990  0.00  0.00    +0.000 C 
BRANCH  17  19
ATOM     18  O   UNL     1       4.459   6.822  16.576  0.00  0.00    +0.000 OA
ATOM     19  C   UNL     1       5.318   6.382  17.343  0.00  0.00    +0.000 C 
ATOM     20  N   UNL     1       5.081   5.749  18.553  0.00  0.00    +0.000 N 
ATOM     21  H   UNL     1       5.852   5.612  19.204  0.00  0.00    +0.000 HD
BRANCH  20  22
ATOM     22  C   UNL     1       3.808   5.420  19.105  0.00  0.00    +0.000 A 
ATOM     23  C   UNL     1       3.050   6.352  19.825  0.00  0.00    +0.000 A 
ATOM     24  C   UNL     1       1.835   5.992  20.399  0.00  0.00    +0.000 A 
ATOM     25  C   UNL     1       1.362   4.696  20.252  0.00  0.00    +0.000 A 
ATOM     26  C   UNL     1       2.086   3.761  19.500  0.00  0.00    +0.000 A 
ATOM     27  C   UNL     1       1.599   2.459  19.336  0.00  0.00    +0.000 A 
ATOM     28  C   UNL     1       2.314   1.544  18.578  0.00  0.00    +0.000 A 
ATOM     29  C   UNL     1       3.500   1.970  18.012  0.00  0.00    +0.000 A 
ATOM     30  N   UNL     1       4.017   3.214  18.158  0.00  0.00    +0.000 NA
ATOM     31  C   UNL     1       3.321   4.113  18.898  0.00  0.00    +0.000 A 
ENDBRANCH  20  22
ENDBRANCH  17  19
ENDBRANCH   1  17
TORSDOF 5
ENDMDL
MODEL 2
REMARK VINA RESULT:      -8.9      2.225      3.805
REMARK  Name = 
REMARK  5 active torsions:
REMARK  status: ('A' for Active; 'I' for Inactive)
REMARK    1  A    between atoms: C_2  and  C_3
REMARK    2  A    between atoms: C_3  and  N_4
REMARK    3  A    between atoms: C_5  and  C_7
REMARK    4  A    between atoms: C_9  and  O_10
REMARK    5  A    between atoms: N_18  and  C_19
REMARK                            x       y       z     vdW  Elec       q    Type
REMARK                         _______ _______ _______ _____ _____    ______ ____
ROOT
ATOM      1  N   UNL     1       9.095   9.683  18.287  0.00  0.00    +0.000 N 
ATOM      2  C   UNL     1       9.337  10.750  19.121  0.00  0.00    +0.000 C 
ATOM      3  O   UNL     1       9.132  10.696  20.330  0.00  0.00    +0.000 OA
ATOM      4  H   UNL     1       9.416   9.674  17.324  0.00  0.00    +0.000 HD
ENDROOT
BRANCH   2   5
ATOM      5  C   UNL     1       9.891  11.996  18.514  0.00  0.00    +0.000 A 
ATOM      6  C   UNL     1      10.901  11.975  17.548  0.00  0.00    +0.000 A 
ATOM      7  C   UNL     1      11.348  13.178  16.992  0.00  0.00    +0.000 A 
ATOM      8  C   UNL     1      10.806  14.424  17.377  0.00  0.00    +0.000 A 
ATOM      9  C   UNL     1      11.236  15.652  16.831  0.00  0.00    +0.000 A 
ATOM     10  C   UNL     1      10.672  16.864  17.235  0.00  0.00    +0.000 A 
ATOM     11  C   UNL     1       9.663  16.872  18.191  0.00  0.00    +0.000 A 
ATOM     12  C   UNL     1       9.219  15.668  18.743  0.00  0.00    +0.000 A 
ATOM     13  C   UNL     1       9.779  14.440  18.348  0.00  0.00    +0.000 A 
ATOM     14  C   UNL     1       9.332  13.225  18.900  0.00  0.00    +0.000 A 
BRANCH   7  15
ATOM     15  O   UNL     1      12.333  13.157  16.037  0.00  0.00    +0.000 OA
ATOM     16  H   UNL     1      13.103  12.673  16.376  0.00  0.00    +0.000 HD
ENDBRANCH   7  15
ENDBRANCH   2   5
BRANCH   1  17
ATOM     17  C   UNL     1       8.598   8.415  18.813  0.00  0.00    +0.000 C 
BRANCH  17  19
ATOM     18  O   UNL     1       6.996   8.466  17.028  0.00  0.00    +0.000 OA
ATOM     19  C   UNL     1       7.635   7.764  17.814  0.00  0.00    +0.000 C 
ATOM     20  N   UNL     1       7.576   6.383  17.905  0.00  0.00    +0.000 N 
ATOM     21  H   UNL     1       7.978   5.918  18.718  0.00  0.00    +0.000 HD
BRANCH  20  22
ATOM     22  C   UNL     1       6.828   5.506  17.065  0.00  0.00    +0.000 A 
ATOM     23  C   UNL     1       7.275   5.144  15.788  0.00  0.00    +0.000 A 
ATOM     24  C   UNL     1       6.503   4.329  14.967  0.00  0.00    +0.000 A 
ATOM     25  C   UNL     1       5.276   3.861  15.419  0.00  0.00    +0.000 A 
ATOM     26  C   UNL     1       4.831   4.179  16.709  0.00  0.00    +0.000 A 
ATOM     27  C   UNL     1       3.604   3.691  17.172  0.00  0.00    +0.000 A 
ATOM     28  C   UNL     1       3.178   3.997  18.455  0.00  0.00    +0.000 A 
ATOM     29  C   UNL     1       4.002   4.790  19.231  0.00  0.00    +0.000 A 
ATOM     30  N   UNL     1       5.189   5.296  18.819  0.00  0.00    +0.000 NA
ATOM     31  C   UNL     1       5.610   4.999  17.565  0.00  0.00    +0.000 A 
ENDBRANCH  20  22
ENDBRANCH  17  19
ENDBRANCH   1  17
TORSDOF 5
ENDMDL
MODEL 3
REMARK VINA RESULT:      -8.7      1.492      1.615
REMARK  Name = 
REMARK  5 active torsions:
REMARK  status: ('A' for Active; 'I' for Inactive)
REMARK    1  A    between atoms: C_2  and  C_3
REMARK    2  A    between atoms: C_3  and  N_4
REMARK    3  A    between atoms: C_5  and  C_7
REMARK    4  A    between atoms: C_9  and  O_10
REMARK    5  A    between atoms: N_18  and  C_19
REMARK                            x       y       z     vdW  Elec       q    Type
REMARK                         _______ _______ _______ _____ _____    ______ ____
ROOT
ATOM      1  N   UNL     1       8.411   7.293  18.912  0.00  0.00    +0.000 N 
ATOM      2  C   UNL     1       8.165   8.193  17.901  0.00  0.00    +0.000 C 
ATOM      3  O   UNL     1       7.685   7.852  16.823  0.00  0.00    +0.000 OA
ATOM      4  H   UNL     1       8.651   7.597  19.850  0.00  0.00    +0.000 HD
ENDROOT
BRANCH   2   5
ATOM      5  C   UNL     1       8.476   9.630  18.158  0.00  0.00    +0.000 A 
ATOM      6  C   UNL     1       7.981  10.660  17.352  0.00  0.00    +0.000 A 
ATOM      7  C   UNL     1       8.280  11.989  17.672  0.00  0.00    +0.000 A 
ATOM      8  C   UNL     1       9.070  12.326  18.793  0.00  0.00    +0.000 A 
ATOM      9  C   UNL     1       9.385  13.658  19.140  0.00  0.00    +0.000 A 
ATOM     10  C   UNL     1      10.166  13.951  20.260  0.00  0.00    +0.000 A 
ATOM     11  C   UNL     1      10.646  12.919  21.057  0.00  0.00    +0.000 A 
ATOM     12  C   UNL     1      10.345  11.594  20.734  0.00  0.00    +0.000 A 
ATOM     13  C   UNL     1       9.561  11.282  19.609  0.00  0.00    +0.000 A 
ATOM     14  C   UNL     1       9.253   9.948  19.283  0.00  0.00    +0.000 A 
BRANCH   7  15
ATOM     15  O   UNL     1       7.787  13.001  16.887  0.00  0.00    +0.000 OA
ATOM     16  H   UNL     1       6.983  13.362  17.291  0.00  0.00    +0.000 HD
ENDBRANCH   7  15
ENDBRANCH   2   5
BRANCH   1  17
ATOM     17  C   UNL     1       8.089   5.878  18.754  0.00  0.00    +0.000 C 
BRANCH  17  19
ATOM     18  O   UNL     1       6.242   5.182  20.117  0.00  0.00    +0.000 OA
ATOM     19  C   UNL     1       6.602   5.634  19.028  0.00  0.00    +0.000 C 
ATOM     20  N   UNL     1       5.771   5.960  17.968  0.00  0.00    +0.000 N 
ATOM     21  H   UNL     1       6.177   6.126  17.048  0.00  0.00    +0.000 HD
BRANCH  20  22
ATOM     22  C   UNL     1       4.347   5.908  17.956  0.00  0.00    +0.000 A 
ATOM     23  C   UNL     1       3.562   7.068  17.994  0.00  0.00    +0.000 A 
ATOM     24  C   UNL     1       2.174   6.988  18.034  0.00  0.00    +0.000 A 
ATOM     25  C   UNL     1       1.555   5.745  18.029  0.00  0.00    +0.000 A 
ATOM     26  C   UNL     1       2.322   4.575  17.949  0.00  0.00    +0.000 A 
ATOM     27  C   UNL     1       1.696   3.323  17.924  0.00  0.00    +0.000 A 
ATOM     28  C   UNL     1       2.461   2.171  17.830  0.00  0.00    +0.000 A 
ATOM     29  C   UNL     1       3.834   2.317  17.767  0.00  0.00    +0.000 A 
ATOM     30  N   UNL     1       4.481   3.507  17.804  0.00  0.00    +0.000 NA
ATOM     31  C   UNL     1       3.737   4.637  17.896  0.00  0.00    +0.000 A 
ENDBRANCH  20  22
ENDBRANCH  17  19
ENDBRANCH   1  17
TORSDOF 5
ENDMDL
MODEL 4
REMARK VINA RESULT:      -8.6      1.820      2.279
REMARK  Name = 
REMARK  5 active torsions:
REMARK  status: ('A' for Active; 'I' for Inactive)
REMARK    1  A    between atoms: C_2  and  C_3
REMARK    2  A    between atoms: C_3  and  N_4
REMARK    3  A    between atoms: C_5  and  C_7
REMARK    4  A    between atoms: C_9  and  O_10
REMARK    5  A    between atoms: N_18  and  C_19
REMARK                            x       y       z     vdW  Elec       q    Type
REMARK                         _______ _______ _______ _____ _____    ______ ____
ROOT
ATOM      1  N   UNL     1       8.557   7.327  18.926  0.00  0.00    +0.000 N 
ATOM      2  C   UNL     1       8.359   8.465  18.180  0.00  0.00    +0.000 C 
ATOM      3  O   UNL     1       7.791   8.444  17.091  0.00  0.00    +0.000 OA
ATOM      4  H   UNL     1       8.876   7.368  19.889  0.00  0.00    +0.000 HD
ENDROOT
BRANCH   2   5
ATOM      5  C   UNL     1       8.835   9.761  18.747  0.00  0.00    +0.000 A 
ATOM      6  C   UNL     1       8.952   9.980  20.123  0.00  0.00    +0.000 A 
ATOM      7  C   UNL     1       9.442  11.206  20.586  0.00  0.00    +0.000 A 
ATOM      8  C   UNL     1       9.828  12.236  19.701  0.00  0.00    +0.000 A 
ATOM      9  C   UNL     1      10.329  13.481  20.141  0.00  0.00    +0.000 A 
ATOM     10  C   UNL     1      10.704  14.474  19.235  0.00  0.00    +0.000 A 
ATOM     11  C   UNL     1      10.591  14.242  17.869  0.00  0.00    +0.000 A 
ATOM     12  C   UNL     1      10.102  13.017  17.411  0.00  0.00    +0.000 A 
ATOM     13  C   UNL     1       9.717  12.008  18.311  0.00  0.00    +0.000 A 
ATOM     14  C   UNL     1       9.226  10.771  17.853  0.00  0.00    +0.000 A 
BRANCH   7  15
ATOM     15  O   UNL     1       9.565  11.418  21.937  0.00  0.00    +0.000 OA
ATOM     16  H   UNL     1       9.741  12.357  22.103  0.00  0.00    +0.000 HD
ENDBRANCH   7  15
ENDBRANCH   2   5
BRANCH   1  17
ATOM     17  C   UNL     1       8.077   6.029  18.460  0.00  0.00    +0.000 C 
BRANCH  17  19
ATOM     18  O   UNL     1       6.277   5.491  19.952  0.00  0.00    +0.000 OA
ATOM     19  C   UNL     1       6.598   5.847  18.816  0.00  0.00    +0.000 C 
ATOM     20  N   UNL     1       5.729   6.112  17.770  0.00  0.00    +0.000 N 
ATOM     21  H   UNL     1       6.097   6.194  16.824  0.00  0.00    +0.000 HD
BRANCH  20  22
ATOM     22  C   UNL     1       4.304   6.096  17.824  0.00  0.00    +0.000 A 
ATOM     23  C   UNL     1       3.552   7.277  17.879  0.00  0.00    +0.000 A 
ATOM     24  C   UNL     1       2.166   7.234  17.982  0.00  0.00    +0.000 A 
ATOM     25  C   UNL     1       1.516   6.008  18.026  0.00  0.00    +0.000 A 
ATOM     26  C   UNL     1       2.248   4.817  17.931  0.00  0.00    +0.000 A 
ATOM     27  C   UNL     1       1.591   3.582  17.955  0.00  0.00    +0.000 A 
ATOM     28  C   UNL     1       2.320   2.409  17.845  0.00  0.00    +0.000 A 
ATOM     29  C   UNL     1       3.692   2.517  17.718  0.00  0.00    +0.000 A 
ATOM     30  N   UNL     1       4.371   3.690  17.705  0.00  0.00    +0.000 NA
ATOM     31  C   UNL     1       3.661   4.841  17.812  0.00  0.00    +0.000 A 
ENDBRANCH  20  22
ENDBRANCH  17  19
ENDBRANCH   1  17
TORSDOF 5
ENDMDL
MODEL 5
REMARK VINA RESULT:      -8.5      6.345      9.314
REMARK  Name = 
REMARK  5 active torsions:
REMARK  status: ('A' for Active; 'I' for Inactive)
REMARK    1  A    between atoms: C_2  and  C_3
REMARK    2  A    between atoms: C_3  and  N_4
REMARK    3  A    between atoms: C_5  and  C_7
REMARK    4  A    between atoms: C_9  and  O_10
REMARK    5  A    between atoms: N_18  and  C_19
REMARK                            x       y       z     vdW  Elec       q    Type
REMARK                         _______ _______ _______ _____ _____    ______ ____
ROOT
ATOM      1  N   UNL     1       0.419   9.635  21.446  0.00  0.00    +0.000 N 
ATOM      2  C   UNL     1      -0.162  10.229  22.542  0.00  0.00    +0.000 C 
ATOM      3  O   UNL     1       0.158   9.939  23.692  0.00  0.00    +0.000 OA
ATOM      4  H   UNL     1       0.273   9.989  20.507  0.00  0.00    +0.000 HD
ENDROOT
BRANCH   2   5
ATOM      5  C   UNL     1      -1.195  11.279  22.299  0.00  0.00    +0.000 A 
ATOM      6  C   UNL     1      -1.279  11.984  21.095  0.00  0.00    +0.000 A 
ATOM      7  C   UNL     1      -2.296  12.928  20.919  0.00  0.00    +0.000 A 
ATOM      8  C   UNL     1      -3.250  13.191  21.926  0.00  0.00    +0.000 A 
ATOM      9  C   UNL     1      -4.289  14.136  21.774  0.00  0.00    +0.000 A 
ATOM     10  C   UNL     1      -5.216  14.366  22.792  0.00  0.00    +0.000 A 
ATOM     11  C   UNL     1      -5.127  13.653  23.982  0.00  0.00    +0.000 A 
ATOM     12  C   UNL     1      -4.110  12.712  24.153  0.00  0.00    +0.000 A 
ATOM     13  C   UNL     1      -3.167  12.470  23.139  0.00  0.00    +0.000 A 
ATOM     14  C   UNL     1      -2.143  11.520  23.307  0.00  0.00    +0.000 A 
BRANCH   7  15
ATOM     15  O   UNL     1      -2.384  13.614  19.734  0.00  0.00    +0.000 OA
ATOM     16  H   UNL     1      -2.780  13.042  19.057  0.00  0.00    +0.000 HD
ENDBRANCH   7  15
ENDBRANCH   2   5
BRANCH   1  17
ATOM     17  C   UNL     1       1.471   8.634  21.603  0.00  0.00    +0.000 C 
BRANCH  17  19
ATOM     18  O   UNL     1       1.514   8.567  19.205  0.00  0.00    +0.000 OA
ATOM     19  C   UNL     1       1.792   7.981  20.254  0.00  0.00    +0.000 C 
ATOM     20  N   UNL     1       2.388   6.735  20.357  0.00  0.00    +0.000 N 
ATOM     21  H   UNL     1       2.384   6.253  21.254  0.00  0.00    +0.000 HD
BRANCH  20  22
ATOM     22  C   UNL     1       2.860   5.927  19.281  0.00  0.00    +0.000 A 
ATOM     23  C   UNL     1       3.851   6.374  18.398  0.00  0.00    +0.000 A 
ATOM     24  C   UNL     1       4.258   5.587  17.326  0.00  0.00    +0.000 A 
ATOM     25  C   UNL     1       3.682   4.340  17.129  0.00  0.00    +0.000 A 
ATOM     26  C   UNL     1       2.719   3.859  18.026  0.00  0.00    +0.000 A 
ATOM     27  C   UNL     1       2.152   2.592  17.838  0.00  0.00    +0.000 A 
ATOM     28  C   UNL     1       1.211   2.117  18.738  0.00  0.00    +0.000 A 
ATOM     29  C   UNL     1       0.867   2.934  19.798  0.00  0.00    +0.000 A 
ATOM     30  N   UNL     1       1.378   4.172  20.009  0.00  0.00    +0.000 NA
ATOM     31  C   UNL     1       2.300   4.641  19.131  0.00  0.00    +0.000 A 
ENDBRANCH  20  22
ENDBRANCH  17  19
ENDBRANCH   1  17
TORSDOF 5
ENDMDL
MODEL 6
REMARK VINA RESULT:      -8.4      6.172      9.415
REMARK  Name = 
REMARK  5 active torsions:
REMARK  status: ('A' for Active; 'I' for Inactive)
REMARK    1  A    between atoms: C_2  and  C_3
REMARK    2  A    between atoms: C_3  and  N_4
REMARK    3  A    between atoms: C_5  and  C_7
REMARK    4  A    between atoms: C_9  and  O_10
REMARK    5  A    between atoms: N_18  and  C_19
REMARK                            x       y       z     vdW  Elec       q    Type
REMARK                         _______ _______ _______ _____ _____    ______ ____
ROOT
ATOM      1  N   UNL     1       1.408   9.171  19.322  0.00  0.00    +0.000 N 
ATOM      2  C   UNL     1       1.679   8.027  20.037  0.00  0.00    +0.000 C 
ATOM      3  O   UNL     1       1.324   7.885  21.204  0.00  0.00    +0.000 OA
ATOM      4  H   UNL     1       1.556   9.221  18.319  0.00  0.00    +0.000 HD
ENDROOT
BRANCH   2   5
ATOM      5  C   UNL     1       2.408   6.927  19.339  0.00  0.00    +0.000 A 
ATOM      6  C   UNL     1       2.250   5.583  19.690  0.00  0.00    +0.000 A 
ATOM      7  C   UNL     1       2.935   4.599  18.969  0.00  0.00    +0.000 A 
ATOM      8  C   UNL     1       3.785   4.922  17.889  0.00  0.00    +0.000 A 
ATOM      9  C   UNL     1       4.485   3.948  17.143  0.00  0.00    +0.000 A 
ATOM     10  C   UNL     1       5.313   4.307  16.078  0.00  0.00    +0.000 A 
ATOM     11  C   UNL     1       5.456   5.646  15.734  0.00  0.00    +0.000 A 
ATOM     12  C   UNL     1       4.771   6.626  16.456  0.00  0.00    +0.000 A 
ATOM     13  C   UNL     1       3.935   6.281  17.533  0.00  0.00    +0.000 A 
ATOM     14  C   UNL     1       3.240   7.265  18.260  0.00  0.00    +0.000 A 
BRANCH   7  15
ATOM     15  O   UNL     1       2.773   3.278  19.307  0.00  0.00    +0.000 OA
ATOM     16  H   UNL     1       3.411   3.040  19.997  0.00  0.00    +0.000 HD
ENDBRANCH   7  15
ENDBRANCH   2   5
BRANCH   1  17
ATOM     17  C   UNL     1       0.658  10.272  19.920  0.00  0.00    +0.000 C 
BRANCH  17  19
ATOM     18  O   UNL     1      -0.020  12.035  18.441  0.00  0.00    +0.000 OA
ATOM     19  C   UNL     1      -0.271  10.911  18.883  0.00  0.00    +0.000 C 
ATOM     20  N   UNL     1      -1.354  10.123  18.533  0.00  0.00    +0.000 N 
ATOM     21  H   UNL     1      -1.585   9.310  19.102  0.00  0.00    +0.000 HD
BRANCH  20  22
ATOM     22  C   UNL     1      -2.341  10.421  17.548  0.00  0.00    +0.000 A 
ATOM     23  C   UNL     1      -2.226   9.976  16.225  0.00  0.00    +0.000 A 
ATOM     24  C   UNL     1      -3.176  10.325  15.271  0.00  0.00    +0.000 A 
ATOM     25  C   UNL     1      -4.256  11.117  15.632  0.00  0.00    +0.000 A 
ATOM     26  C   UNL     1      -4.411  11.538  16.960  0.00  0.00    +0.000 A 
ATOM     27  C   UNL     1      -5.511  12.321  17.328  0.00  0.00    +0.000 A 
ATOM     28  C   UNL     1      -5.664  12.720  18.646  0.00  0.00    +0.000 A 
ATOM     29  C   UNL     1      -4.701  12.320  19.553  0.00  0.00    +0.000 A 
ATOM     30  N   UNL     1      -3.613  11.576  19.238  0.00  0.00    +0.000 NA
ATOM     31  C   UNL     1      -3.459  11.183  17.949  0.00  0.00    +0.000 A 
ENDBRANCH  20  22
ENDBRANCH  17  19
ENDBRANCH   1  17
TORSDOF 5
ENDMDL
MODEL 7
REMARK VINA RESULT:      -8.4      6.293      9.850
REMARK  Name = 
REMARK  5 active torsions:
REMARK  status: ('A' for Active; 'I' for Inactive)
REMARK    1  A    between atoms: C_2  and  C_3
REMARK    2  A    between atoms: C_3  and  N_4
REMARK    3  A    between atoms: C_5  and  C_7
REMARK    4  A    between atoms: C_9  and  O_10
REMARK    5  A    between atoms: N_18  and  C_19
REMARK                            x       y       z     vdW  Elec       q    Type
REMARK                         _______ _______ _______ _____ _____    ______ ____
ROOT
ATOM      1  N   UNL     1       1.108   9.277  19.667  0.00  0.00    +0.000 N 
ATOM      2  C   UNL     1       1.463   8.364  20.633  0.00  0.00    +0.000 C 
ATOM      3  O   UNL     1       1.416   8.628  21.832  0.00  0.00    +0.000 OA
ATOM      4  H   UNL     1       0.992   9.007  18.695  0.00  0.00    +0.000 HD
ENDROOT
BRANCH   2   5
ATOM      5  C   UNL     1       1.889   7.006  20.185  0.00  0.00    +0.000 A 
ATOM      6  C   UNL     1       1.468   5.838  20.827  0.00  0.00    +0.000 A 
ATOM      7  C   UNL     1       1.875   4.594  20.332  0.00  0.00    +0.000 A 
ATOM      8  C   UNL     1       2.701   4.480  19.192  0.00  0.00    +0.000 A 
ATOM      9  C   UNL     1       3.124   3.239  18.669  0.00  0.00    +0.000 A 
ATOM     10  C   UNL     1       3.938   3.167  17.537  0.00  0.00    +0.000 A 
ATOM     11  C   UNL     1       4.343   4.335  16.902  0.00  0.00    +0.000 A 
ATOM     12  C   UNL     1       3.935   5.574  17.401  0.00  0.00    +0.000 A 
ATOM     13  C   UNL     1       3.117   5.663  18.541  0.00  0.00    +0.000 A 
ATOM     14  C   UNL     1       2.701   6.910  19.044  0.00  0.00    +0.000 A 
BRANCH   7  15
ATOM     15  O   UNL     1       1.455   3.447  20.957  0.00  0.00    +0.000 OA
ATOM     16  H   UNL     1       1.318   3.624  21.901  0.00  0.00    +0.000 HD
ENDBRANCH   7  15
ENDBRANCH   2   5
BRANCH   1  17
ATOM     17  C   UNL     1       0.636  10.610  20.028  0.00  0.00    +0.000 C 
BRANCH  17  19
ATOM     18  O   UNL     1      -0.141  12.279  18.489  0.00  0.00    +0.000 OA
ATOM     19  C   UNL     1      -0.313  11.150  18.954  0.00  0.00    +0.000 C 
ATOM     20  N   UNL     1      -1.323  10.270  18.599  0.00  0.00    +0.000 N 
ATOM     21  H   UNL     1      -1.503   9.455  19.183  0.00  0.00    +0.000 HD
BRANCH  20  22
ATOM     22  C   UNL     1      -2.305  10.466  17.584  0.00  0.00    +0.000 A 
ATOM     23  C   UNL     1      -2.152   9.943  16.294  0.00  0.00    +0.000 A 
ATOM     24  C   UNL     1      -3.100  10.193  15.307  0.00  0.00    +0.000 A 
ATOM     25  C   UNL     1      -4.216  10.964  15.603  0.00  0.00    +0.000 A 
ATOM     26  C   UNL     1      -4.407  11.461  16.899  0.00  0.00    +0.000 A 
ATOM     27  C   UNL     1      -5.542  12.222  17.202  0.00  0.00    +0.000 A 
ATOM     28  C   UNL     1      -5.731  12.697  18.490  0.00  0.00    +0.000 A 
ATOM     29  C   UNL     1      -4.767  12.394  19.433  0.00  0.00    +0.000 A 
ATOM     30  N   UNL     1      -3.647  11.675  19.180  0.00  0.00    +0.000 NA
ATOM     31  C   UNL     1      -3.458  11.207  17.921  0.00  0.00    +0.000 A 
ENDBRANCH  20  22
ENDBRANCH  17  19
ENDBRANCH   1  17
TORSDOF 5
ENDMDL
MODEL 8
REMARK VINA RESULT:      -8.3      6.277      9.708
REMARK  Name = 
REMARK  5 active torsions:
REMARK  status: ('A' for Active; 'I' for Inactive)
REMARK    1  A    between atoms: C_2  and  C_3
REMARK    2  A    between atoms: C_3  and  N_4
REMARK    3  A    between atoms: C_5  and  C_7
REMARK    4  A    between atoms: C_9  and  O_10
REMARK    5  A    between atoms: N_18  and  C_19
REMARK                            x       y       z     vdW  Elec       q    Type
REMARK                         _______ _______ _______ _____ _____    ______ ____
ROOT
ATOM      1  N   UNL     1      -0.100   9.755  18.977  0.00  0.00    +0.000 N 
ATOM      2  C   UNL     1      -0.507  11.046  18.730  0.00  0.00    +0.000 C 
ATOM      3  O   UNL     1       0.249  12.006  18.849  0.00  0.00    +0.000 OA
ATOM      4  H   UNL     1      -0.671   8.957  18.722  0.00  0.00    +0.000 HD
ENDROOT
BRANCH   2   5
ATOM      5  C   UNL     1      -1.913  11.257  18.276  0.00  0.00    +0.000 A 
ATOM      6  C   UNL     1      -2.370  10.831  17.025  0.00  0.00    +0.000 A 
ATOM      7  C   UNL     1      -3.711  11.027  16.679  0.00  0.00    +0.000 A 
ATOM      8  C   UNL     1      -4.626  11.643  17.559  0.00  0.00    +0.000 A 
ATOM      9  C   UNL     1      -5.985  11.850  17.236  0.00  0.00    +0.000 A 
ATOM     10  C   UNL     1      -6.861  12.460  18.136  0.00  0.00    +0.000 A 
ATOM     11  C   UNL     1      -6.397  12.872  19.380  0.00  0.00    +0.000 A 
ATOM     12  C   UNL     1      -5.057  12.675  19.722  0.00  0.00    +0.000 A 
ATOM     13  C   UNL     1      -4.163  12.064  18.826  0.00  0.00    +0.000 A 
ATOM     14  C   UNL     1      -2.813  11.861  19.169  0.00  0.00    +0.000 A 
BRANCH   7  15
ATOM     15  O   UNL     1      -4.162  10.600  15.454  0.00  0.00    +0.000 OA
ATOM     16  H   UNL     1      -3.921   9.669  15.327  0.00  0.00    +0.000 HD
ENDBRANCH   7  15
ENDBRANCH   2   5
BRANCH   1  17
ATOM     17  C   UNL     1       1.274   9.464  19.379  0.00  0.00    +0.000 C 
BRANCH  17  19
ATOM     18  O   UNL     1       2.060   9.000  17.160  0.00  0.00    +0.000 OA
ATOM     19  C   UNL     1       1.967   8.598  18.322  0.00  0.00    +0.000 C 
ATOM     20  N   UNL     1       2.439   7.388  18.804  0.00  0.00    +0.000 N 
ATOM     21  H   UNL     1       2.131   7.061  19.718  0.00  0.00    +0.000 HD
BRANCH  20  22
ATOM     22  C   UNL     1       3.182   6.414  18.075  0.00  0.00    +0.000 A 
ATOM     23  C   UNL     1       4.291   6.761  17.292  0.00  0.00    +0.000 A 
ATOM     24  C   UNL     1       4.968   5.800  16.550  0.00  0.00    +0.000 A 
ATOM     25  C   UNL     1       4.547   4.478  16.588  0.00  0.00    +0.000 A 
ATOM     26  C   UNL     1       3.467   4.104  17.398  0.00  0.00    +0.000 A 
ATOM     27  C   UNL     1       3.055   2.767  17.452  0.00  0.00    +0.000 A 
ATOM     28  C   UNL     1       1.995   2.403  18.267  0.00  0.00    +0.000 A 
ATOM     29  C   UNL     1       1.379   3.399  19.000  0.00  0.00    +0.000 A 
ATOM     30  N   UNL     1       1.734   4.707  18.967  0.00  0.00    +0.000 NA
ATOM     31  C   UNL     1       2.771   5.068  18.171  0.00  0.00    +0.000 A 
ENDBRANCH  20  22
ENDBRANCH  17  19
ENDBRANCH   1  17
TORSDOF 5
ENDMDL
MODEL 9
REMARK VINA RESULT:      -8.3      5.869      9.427
REMARK  Name = 
REMARK  5 active torsions:
REMARK  status: ('A' for Active; 'I' for Inactive)
REMARK    1  A    between atoms: C_2  and  C_3
REMARK    2  A    between atoms: C_3  and  N_4
REMARK    3  A    between atoms: C_5  and  C_7
REMARK    4  A    between atoms: C_9  and  O_10
REMARK    5  A    between atoms: N_18  and  C_19
REMARK                            x       y       z     vdW  Elec       q    Type
REMARK                         _______ _______ _______ _____ _____    ______ ____
ROOT
ATOM      1  N   UNL     1       1.841   7.976  21.296  0.00  0.00    +0.000 N 
ATOM      2  C   UNL     1       1.990   8.003  19.929  0.00  0.00    +0.000 C 
ATOM      3  O   UNL     1       1.838   9.030  19.274  0.00  0.00    +0.000 OA
ATOM      4  H   UNL     1       2.124   7.173  21.849  0.00  0.00    +0.000 HD
ENDROOT
BRANCH   2   5
ATOM      5  C   UNL     1       2.375   6.732  19.246  0.00  0.00    +0.000 A 
ATOM      6  C   UNL     1       3.297   6.695  18.197  0.00  0.00    +0.000 A 
ATOM      7  C   UNL     1       3.642   5.465  17.626  0.00  0.00    +0.000 A 
ATOM      8  C   UNL     1       3.086   4.250  18.083  0.00  0.00    +0.000 A 
ATOM      9  C   UNL     1       3.418   2.995  17.527  0.00  0.00    +0.000 A 
ATOM     10  C   UNL     1       2.850   1.814  18.009  0.00  0.00    +0.000 A 
ATOM     11  C   UNL     1       1.939   1.864  19.058  0.00  0.00    +0.000 A 
ATOM     12  C   UNL     1       1.598   3.093  19.624  0.00  0.00    +0.000 A 
ATOM     13  C   UNL     1       2.160   4.291  19.149  0.00  0.00    +0.000 A 
ATOM     14  C   UNL     1       1.821   5.532  19.720  0.00  0.00    +0.000 A 
BRANCH   7  15
ATOM     15  O   UNL     1       4.555   5.427  16.602  0.00  0.00    +0.000 OA
ATOM     16  H   UNL     1       5.451   5.524  16.962  0.00  0.00    +0.000 HD
ENDBRANCH   7  15
ENDBRANCH   2   5
BRANCH   1  17
ATOM     17  C   UNL     1       1.511   9.188  22.041  0.00  0.00    +0.000 C 
BRANCH  17  19
ATOM     18  O   UNL     1      -0.870   8.985  22.248  0.00  0.00    +0.000 OA
ATOM     19  C   UNL     1       0.068   9.615  21.754  0.00  0.00    +0.000 C 
ATOM     20  N   UNL     1      -0.040  10.718  20.923  0.00  0.00    +0.000 N 
ATOM     21  H   UNL     1       0.777  11.034  20.404  0.00  0.00    +0.000 HD
BRANCH  20  22
ATOM     22  C   UNL     1      -1.244  11.380  20.541  0.00  0.00    +0.000 A 
ATOM     23  C   UNL     1      -1.888  12.292  21.386  0.00  0.00    +0.000 A 
ATOM     24  C   UNL     1      -3.089  12.886  21.011  0.00  0.00    +0.000 A 
ATOM     25  C   UNL     1      -3.655  12.578  19.782  0.00  0.00    +0.000 A 
ATOM     26  C   UNL     1      -3.005  11.699  18.906  0.00  0.00    +0.000 A 
ATOM     27  C   UNL     1      -3.566  11.404  17.658  0.00  0.00    +0.000 A 
ATOM     28  C   UNL     1      -2.909  10.546  16.790  0.00  0.00    +0.000 A 
ATOM     29  C   UNL     1      -1.707  10.009  17.209  0.00  0.00    +0.000 A 
ATOM     30  N   UNL     1      -1.135  10.255  18.413  0.00  0.00    +0.000 NA
ATOM     31  C   UNL     1      -1.774  11.094  19.265  0.00  0.00    +0.000 A 
ENDBRANCH  20  22
ENDBRANCH  17  19
ENDBRANCH   1  17
TORSDOF 5
ENDMDL
