MODEL 1
REMARK VINA RESULT:      -8.3      0.000      0.000
REMARK  Name = 
REMARK  5 active torsions:
REMARK  status: ('A' for Active; 'I' for Inactive)
REMARK    1  A    between atoms: C_1  and  N_2
REMARK    2  A    between atoms: C_3  and  C_4
REMARK    3  A    between atoms: N_6  and  C_7
REMARK    4  A    between atoms: C_7  and  C_8
REMARK    5  A    between atoms: C_10  and  C_11
REMARK                            x       y       z     vdW  Elec       q    Type
REMARK                         _______ _______ _______ _____ _____    ______ ____
ROOT
ATOM      1  C   UNL     1       2.336   6.479  19.772  0.00  0.00    +0.000 C 
ATOM      2  O   UNL     1       1.739   5.405  19.833  0.00  0.00    +0.000 OA
ATOM      3  N   UNL     1       3.664   6.559  19.424  0.00  0.00    +0.000 N 
ATOM      4  H   UNL     1       4.070   7.457  19.209  0.00  0.00    +0.000 HD
ENDROOT
BRANCH   1   7
ATOM      5  C   UNL     1       2.306   8.892  17.871  0.00  0.00    +0.000 C 
ATOM      6  N   UNL     1       1.501   8.823  19.078  0.00  0.00    +0.000 N 
ATOM      7  C   UNL     1       1.613   7.793  20.014  0.00  0.00    +0.000 A 
ATOM      8  C   UNL     1       1.070   7.914  21.240  0.00  0.00    +0.000 A 
ATOM      9  C   UNL     1       0.348   9.125  21.621  0.00  0.00    +0.000 A 
ATOM     10  C   UNL     1      -0.103   9.337  22.929  0.00  0.00    +0.000 A 
ATOM     11  C   UNL     1      -0.810  10.499  23.256  0.00  0.00    +0.000 A 
ATOM     12  C   UNL     1      -1.090  11.450  22.273  0.00  0.00    +0.000 A 
ATOM     13  C   UNL     1      -0.638  11.251  20.971  0.00  0.00    +0.000 A 
ATOM     14  C   UNL     1       0.090  10.100  20.654  0.00  0.00    +0.000 A 
ATOM     15  C   UNL     1       0.674   9.938  19.300  0.00  0.00    +0.000 A 
ATOM     16  O   UNL     1       0.450  10.793  18.447  0.00  0.00    +0.000 OA
ENDBRANCH   1   7
BRANCH   3  17
ATOM     17  C   UNL     1       4.461   5.377  19.178  0.00  0.00    +0.000 C 
BRANCH  17  18
ATOM     18  C   UNL     1       4.498   5.078  17.713  0.00  0.00    +0.000 C 
ATOM     19  C   UNL     1       3.998   3.743  17.226  0.00  0.00    +0.000 C 
ATOM     20  C   UNL     1       5.473   4.064  17.141  0.00  0.00    +0.000 C 
BRANCH  20  21
ATOM     21  C   UNL     1       6.108   4.266  15.787  0.00  0.00    +0.000 A 
ATOM     22  C   UNL     1       5.670   3.594  14.640  0.00  0.00    +0.000 A 
ATOM     23  C   UNL     1       6.245   3.857  13.397  0.00  0.00    +0.000 A 
ATOM     24  C   UNL     1       7.257   4.798  13.326  0.00  0.00    +0.000 A 
ATOM     25  N   UNL     1       7.724   5.468  14.397  0.00  0.00    +0.000 NA
ATOM     26  C   UNL     1       7.141   5.186  15.588  0.00  0.00    +0.000 A 
ENDBRANCH  20  21
ENDBRANCH  17  18
ENDBRANCH   3  17
TORSDOF 4
ENDMDL
MODEL 2
REMARK VINA RESULT:      -8.3      2.860      8.561
REMARK  Name = 
REMARK  5 active torsions:
REMARK  status: ('A' for Active; 'I' for Inactive)
REMARK    1  A    between atoms: C_1  and  N_2
REMARK    2  A    between atoms: C_3  and  C_4
REMARK    3  A    between atoms: N_6  and  C_7
REMARK    4  A    between atoms: C_7  and  C_8
REMARK    5  A    between atoms: C_10  and  C_11
REMARK                            x       y       z     vdW  Elec       q    Type
REMARK                         _______ _______ _______ _____ _____    ______ ____
ROOT
ATOM      1  C   UNL     1       1.850   7.744  20.012  0.00  0.00    +0.000 C 
ATOM      2  O   UNL     1       1.675   7.634  21.225  0.00  0.00    +0.000 OA
ATOM      3  N   UNL     1       1.501   8.882  19.323  0.00  0.00    +0.000 N 
ATOM      4  H   UNL     1       1.822   9.009  18.375  0.00  0.00    +0.000 HD
ENDROOT
BRANCH   1   7
ATOM      5  C   UNL     1       1.868   4.755  20.721  0.00  0.00    +0.000 C 
ATOM      6  N   UNL     1       2.413   5.280  19.481  0.00  0.00    +0.000 N 
ATOM      7  C   UNL     1       2.532   6.645  19.215  0.00  0.00    +0.000 A 
ATOM      8  C   UNL     1       3.297   7.085  18.198  0.00  0.00    +0.000 A 
ATOM      9  C   UNL     1       4.019   6.145  17.345  0.00  0.00    +0.000 A 
ATOM     10  C   UNL     1       4.929   6.576  16.374  0.00  0.00    +0.000 A 
ATOM     11  C   UNL     1       5.590   5.651  15.559  0.00  0.00    +0.000 A 
ATOM     12  C   UNL     1       5.330   4.285  15.696  0.00  0.00    +0.000 A 
ATOM     13  C   UNL     1       4.432   3.847  16.666  0.00  0.00    +0.000 A 
ATOM     14  C   UNL     1       3.793   4.774  17.494  0.00  0.00    +0.000 A 
ATOM     15  C   UNL     1       2.926   4.307  18.604  0.00  0.00    +0.000 A 
ATOM     16  O   UNL     1       2.725   3.104  18.739  0.00  0.00    +0.000 OA
ENDBRANCH   1   7
BRANCH   3  17
ATOM     17  C   UNL     1       0.837   9.993  19.970  0.00  0.00    +0.000 C 
BRANCH  17  18
ATOM     18  C   UNL     1       0.002  10.739  18.978  0.00  0.00    +0.000 C 
ATOM     19  C   UNL     1      -0.797  11.928  19.442  0.00  0.00    +0.000 C 
ATOM     20  C   UNL     1      -1.515  10.668  19.015  0.00  0.00    +0.000 C 
BRANCH  20  21
ATOM     21  C   UNL     1      -2.330  10.676  17.745  0.00  0.00    +0.000 A 
ATOM     22  C   UNL     1      -2.040   9.845  16.656  0.00  0.00    +0.000 A 
ATOM     23  C   UNL     1      -2.857   9.840  15.526  0.00  0.00    +0.000 A 
ATOM     24  C   UNL     1      -3.959  10.677  15.508  0.00  0.00    +0.000 A 
ATOM     25  N   UNL     1      -4.282  11.503  16.522  0.00  0.00    +0.000 NA
ATOM     26  C   UNL     1      -3.465  11.480  17.604  0.00  0.00    +0.000 A 
ENDBRANCH  20  21
ENDBRANCH  17  18
ENDBRANCH   3  17
TORSDOF 4
ENDMDL
MODEL 3
REMARK VINA RESULT:      -8.1      1.254      1.454
REMARK  Name = 
REMARK  5 active torsions:
REMARK  status: ('A' for Active; 'I' for Inactive)
REMARK    1  A    between atoms: C_1  and  N_2
REMARK    2  A    between atoms: C_3  and  C_4
REMARK    3  A    between atoms: N_6  and  C_7
REMARK    4  A    between atoms: C_7  and  C_8
REMARK    5  A    between atoms: C_10  and  C_11
REMARK                            x       y       z     vdW  Elec       q    Type
REMARK                         _______ _______ _______ _____ _____    ______ ____
ROOT
ATOM      1  C   UNL     1       2.447   6.033  19.838  0.00  0.00    +0.000 C 
ATOM      2  O   UNL     1       3.647   5.866  20.046  0.00  0.00    +0.000 OA
ATOM      3  N   UNL     1       1.605   4.991  19.526  0.00  0.00    +0.000 N 
ATOM      4  H   UNL     1       0.607   5.134  19.540  0.00  0.00    +0.000 HD
ENDROOT
BRANCH   1   7
ATOM      5  C   UNL     1       2.700   8.353  17.839  0.00  0.00    +0.000 C 
ATOM      6  N   UNL     1       1.826   8.396  18.998  0.00  0.00    +0.000 N 
ATOM      7  C   UNL     1       1.810   7.405  19.982  0.00  0.00    +0.000 A 
ATOM      8  C   UNL     1       1.210   7.620  21.167  0.00  0.00    +0.000 A 
ATOM      9  C   UNL     1       0.557   8.895  21.454  0.00  0.00    +0.000 A 
ATOM     10  C   UNL     1       0.051   9.198  22.723  0.00  0.00    +0.000 A 
ATOM     11  C   UNL     1      -0.586  10.421  22.960  0.00  0.00    +0.000 A 
ATOM     12  C   UNL     1      -0.740  11.344  21.923  0.00  0.00    +0.000 A 
ATOM     13  C   UNL     1      -0.232  11.053  20.659  0.00  0.00    +0.000 A 
ATOM     14  C   UNL     1       0.426   9.841  20.434  0.00  0.00    +0.000 A 
ATOM     15  C   UNL     1       1.072   9.576  19.124  0.00  0.00    +0.000 A 
ATOM     16  O   UNL     1       0.959  10.405  18.225  0.00  0.00    +0.000 OA
ENDBRANCH   1   7
BRANCH   3  17
ATOM     17  C   UNL     1       2.095   3.641  19.352  0.00  0.00    +0.000 C 
BRANCH  17  18
ATOM     18  C   UNL     1       2.769   3.507  18.023  0.00  0.00    +0.000 C 
ATOM     19  C   UNL     1       3.453   2.211  17.677  0.00  0.00    +0.000 C 
ATOM     20  C   UNL     1       4.282   3.453  17.910  0.00  0.00    +0.000 C 
BRANCH  20  21
ATOM     21  C   UNL     1       5.004   4.089  16.748  0.00  0.00    +0.000 A 
ATOM     22  C   UNL     1       5.623   3.338  15.741  0.00  0.00    +0.000 A 
ATOM     23  C   UNL     1       6.225   3.966  14.652  0.00  0.00    +0.000 A 
ATOM     24  C   UNL     1       6.196   5.348  14.592  0.00  0.00    +0.000 A 
ATOM     25  N   UNL     1       5.623   6.121  15.534  0.00  0.00    +0.000 NA
ATOM     26  C   UNL     1       5.048   5.475  16.578  0.00  0.00    +0.000 A 
ENDBRANCH  20  21
ENDBRANCH  17  18
ENDBRANCH   3  17
TORSDOF 4
ENDMDL
MODEL 4
REMARK VINA RESULT:      -8.1      2.838      9.292
REMARK  Name = 
REMARK  5 active torsions:
REMARK  status: ('A' for Active; 'I' for Inactive)
REMARK    1  A    between atoms: C_1  and  N_2
REMARK    2  A    between atoms: C_3  and  C_4
REMARK    3  A    between atoms: N_6  and  C_7
REMARK    4  A    between atoms: C_7  and  C_8
REMARK    5  A    between atoms: C_10  and  C_11
REMARK                            x       y       z     vdW  Elec       q    Type
REMARK                         _______ _______ _______ _____ _____    ______ ____
ROOT
ATOM      1  C   UNL     1       1.857   8.141  19.565  0.00  0.00    +0.000 C 
ATOM      2  O   UNL     1       1.743   8.218  20.787  0.00  0.00    +0.000 OA
ATOM      3  N   UNL     1       1.437   9.147  18.726  0.00  0.00    +0.000 N 
ATOM      4  H   UNL     1       1.708   9.131  17.755  0.00  0.00    +0.000 HD
ENDROOT
BRANCH   1   7
ATOM      5  C   UNL     1       1.731   5.236  20.555  0.00  0.00    +0.000 C 
ATOM      6  N   UNL     1       2.357   5.620  19.303  0.00  0.00    +0.000 N 
ATOM      7  C   UNL     1       2.539   6.950  18.915  0.00  0.00    +0.000 A 
ATOM      8  C   UNL     1       3.370   7.264  17.904  0.00  0.00    +0.000 A 
ATOM      9  C   UNL     1       4.100   6.224  17.184  0.00  0.00    +0.000 A 
ATOM     10  C   UNL     1       5.073   6.530  16.228  0.00  0.00    +0.000 A 
ATOM     11  C   UNL     1       5.741   5.509  15.542  0.00  0.00    +0.000 A 
ATOM     12  C   UNL     1       5.425   4.173  15.793  0.00  0.00    +0.000 A 
ATOM     13  C   UNL     1       4.463   3.859  16.751  0.00  0.00    +0.000 A 
ATOM     14  C   UNL     1       3.817   4.881  17.451  0.00  0.00    +0.000 A 
ATOM     15  C   UNL     1       2.879   4.552  18.552  0.00  0.00    +0.000 A 
ATOM     16  O   UNL     1       2.628   3.374  18.790  0.00  0.00    +0.000 OA
ENDBRANCH   1   7
BRANCH   3  17
ATOM     17  C   UNL     1       0.766  10.327  19.225  0.00  0.00    +0.000 C 
BRANCH  17  18
ATOM     18  C   UNL     1      -0.706  10.225  18.974  0.00  0.00    +0.000 C 
ATOM     19  C   UNL     1      -1.194  10.028  17.563  0.00  0.00    +0.000 C 
ATOM     20  C   UNL     1      -1.462  11.338  18.269  0.00  0.00    +0.000 C 
BRANCH  20  21
ATOM     21  C   UNL     1      -2.876  11.692  18.659  0.00  0.00    +0.000 A 
ATOM     22  C   UNL     1      -3.992  11.244  17.941  0.00  0.00    +0.000 A 
ATOM     23  C   UNL     1      -5.284  11.543  18.373  0.00  0.00    +0.000 A 
ATOM     24  C   UNL     1      -5.434  12.294  19.525  0.00  0.00    +0.000 A 
ATOM     25  N   UNL     1      -4.398  12.758  20.250  0.00  0.00    +0.000 NA
ATOM     26  C   UNL     1      -3.158  12.447  19.800  0.00  0.00    +0.000 A 
ENDBRANCH  20  21
ENDBRANCH  17  18
ENDBRANCH   3  17
TORSDOF 4
ENDMDL
MODEL 5
REMARK VINA RESULT:      -8.0      0.908      1.131
REMARK  Name = 
REMARK  5 active torsions:
REMARK  status: ('A' for Active; 'I' for Inactive)
REMARK    1  A    between atoms: C_1  and  N_2
REMARK    2  A    between atoms: C_3  and  C_4
REMARK    3  A    between atoms: N_6  and  C_7
REMARK    4  A    between atoms: C_7  and  C_8
REMARK    5  A    between atoms: C_10  and  C_11
REMARK                            x       y       z     vdW  Elec       q    Type
REMARK                         _______ _______ _______ _____ _____    ______ ____
ROOT
ATOM      1  C   UNL     1       2.279   5.841  19.617  0.00  0.00    +0.000 C 
ATOM      2  O   UNL     1       1.618   5.021  18.981  0.00  0.00    +0.000 OA
ATOM      3  N   UNL     1       3.534   5.551  20.100  0.00  0.00    +0.000 N 
ATOM      4  H   UNL     1       4.116   6.295  20.454  0.00  0.00    +0.000 HD
ENDROOT
BRANCH   1   7
ATOM      5  C   UNL     1       2.809   8.260  17.800  0.00  0.00    +0.000 C 
ATOM      6  N   UNL     1       1.907   8.305  18.937  0.00  0.00    +0.000 N 
ATOM      7  C   UNL     1       1.769   7.253  19.845  0.00  0.00    +0.000 A 
ATOM      8  C   UNL     1       1.154   7.441  21.028  0.00  0.00    +0.000 A 
ATOM      9  C   UNL     1       0.615   8.748  21.391  0.00  0.00    +0.000 A 
ATOM     10  C   UNL     1       0.100   9.008  22.666  0.00  0.00    +0.000 A 
ATOM     11  C   UNL     1      -0.429  10.266  22.975  0.00  0.00    +0.000 A 
ATOM     12  C   UNL     1      -0.464  11.270  22.006  0.00  0.00    +0.000 A 
ATOM     13  C   UNL     1       0.055  11.022  20.737  0.00  0.00    +0.000 A 
ATOM     14  C   UNL     1       0.604   9.772  20.440  0.00  0.00    +0.000 A 
ATOM     15  C   UNL     1       1.262   9.540  19.131  0.00  0.00    +0.000 A 
ATOM     16  O   UNL     1       1.256  10.436  18.292  0.00  0.00    +0.000 OA
ENDBRANCH   1   7
BRANCH   3  17
ATOM     17  C   UNL     1       4.125   4.239  19.954  0.00  0.00    +0.000 C 
BRANCH  17  18
ATOM     18  C   UNL     1       5.256   4.291  18.976  0.00  0.00    +0.000 C 
ATOM     19  C   UNL     1       6.262   5.406  19.082  0.00  0.00    +0.000 C 
ATOM     20  C   UNL     1       5.318   5.364  17.902  0.00  0.00    +0.000 C 
BRANCH  20  21
ATOM     21  C   UNL     1       5.865   5.064  16.528  0.00  0.00    +0.000 A 
ATOM     22  C   UNL     1       5.142   4.346  15.568  0.00  0.00    +0.000 A 
ATOM     23  C   UNL     1       5.660   4.146  14.289  0.00  0.00    +0.000 A 
ATOM     24  C   UNL     1       6.905   4.674  13.993  0.00  0.00    +0.000 A 
ATOM     25  N   UNL     1       7.647   5.365  14.879  0.00  0.00    +0.000 NA
ATOM     26  C   UNL     1       7.111   5.540  16.112  0.00  0.00    +0.000 A 
ENDBRANCH  20  21
ENDBRANCH  17  18
ENDBRANCH   3  17
TORSDOF 4
ENDMDL
MODEL 6
REMARK VINA RESULT:      -7.9      2.927      9.376
REMARK  Name = 
REMARK  5 active torsions:
REMARK  status: ('A' for Active; 'I' for Inactive)
REMARK    1  A    between atoms: C_1  and  N_2
REMARK    2  A    between atoms: C_3  and  C_4
REMARK    3  A    between atoms: N_6  and  C_7
REMARK    4  A    between atoms: C_7  and  C_8
REMARK    5  A    between atoms: C_10  and  C_11
REMARK                            x       y       z     vdW  Elec       q    Type
REMARK                         _______ _______ _______ _____ _____    ______ ____
ROOT
ATOM      1  C   UNL     1       1.814   8.372  19.259  0.00  0.00    +0.000 C 
ATOM      2  O   UNL     1       1.741   8.589  20.467  0.00  0.00    +0.000 OA
ATOM      3  N   UNL     1       1.315   9.251  18.326  0.00  0.00    +0.000 N 
ATOM      4  H   UNL     1       1.551   9.133  17.353  0.00  0.00    +0.000 HD
ENDROOT
BRANCH   1   7
ATOM      5  C   UNL     1       1.732   5.563  20.500  0.00  0.00    +0.000 C 
ATOM      6  N   UNL     1       2.367   5.849  19.226  0.00  0.00    +0.000 N 
ATOM      7  C   UNL     1       2.528   7.143  18.725  0.00  0.00    +0.000 A 
ATOM      8  C   UNL     1       3.366   7.385  17.699  0.00  0.00    +0.000 A 
ATOM      9  C   UNL     1       4.127   6.301  17.084  0.00  0.00    +0.000 A 
ATOM     10  C   UNL     1       5.108   6.542  16.116  0.00  0.00    +0.000 A 
ATOM     11  C   UNL     1       5.805   5.479  15.530  0.00  0.00    +0.000 A 
ATOM     12  C   UNL     1       5.513   4.163  15.896  0.00  0.00    +0.000 A 
ATOM     13  C   UNL     1       4.544   3.915  16.865  0.00  0.00    +0.000 A 
ATOM     14  C   UNL     1       3.868   4.981  17.465  0.00  0.00    +0.000 A 
ATOM     15  C   UNL     1       2.921   4.730  18.579  0.00  0.00    +0.000 A 
ATOM     16  O   UNL     1       2.690   3.573  18.917  0.00  0.00    +0.000 OA
ENDBRANCH   1   7
BRANCH   3  17
ATOM     17  C   UNL     1       0.606  10.452  18.711  0.00  0.00    +0.000 C 
BRANCH  17  18
ATOM     18  C   UNL     1      -0.870  10.227  18.620  0.00  0.00    +0.000 C 
ATOM     19  C   UNL     1      -1.483   9.923  17.279  0.00  0.00    +0.000 C 
ATOM     20  C   UNL     1      -1.781  11.243  17.953  0.00  0.00    +0.000 C 
BRANCH  20  21
ATOM     21  C   UNL     1      -3.172  11.509  18.474  0.00  0.00    +0.000 A 
ATOM     22  C   UNL     1      -3.421  12.348  19.567  0.00  0.00    +0.000 A 
ATOM     23  C   UNL     1      -4.727  12.615  19.977  0.00  0.00    +0.000 A 
ATOM     24  C   UNL     1      -5.768  12.031  19.277  0.00  0.00    +0.000 A 
ATOM     25  N   UNL     1      -5.587  11.211  18.224  0.00  0.00    +0.000 NA
ATOM     26  C   UNL     1      -4.305  10.975  17.855  0.00  0.00    +0.000 A 
ENDBRANCH  20  21
ENDBRANCH  17  18
ENDBRANCH   3  17
TORSDOF 4
ENDMDL
MODEL 7
REMARK VINA RESULT:      -7.9      2.343      8.514
REMARK  Name = 
REMARK  5 active torsions:
REMARK  status: ('A' for Active; 'I' for Inactive)
REMARK    1  A    between atoms: C_1  and  N_2
REMARK    2  A    between atoms: C_3  and  C_4
REMARK    3  A    between atoms: N_6  and  C_7
REMARK    4  A    between atoms: C_7  and  C_8
REMARK    5  A    between atoms: C_10  and  C_11
REMARK                            x       y       z     vdW  Elec       q    Type
REMARK                         _______ _______ _______ _____ _____    ______ ____
ROOT
ATOM      1  C   UNL     1       2.028   5.891  20.064  0.00  0.00    +0.000 C 
ATOM      2  O   UNL     1       1.161   5.291  20.697  0.00  0.00    +0.000 OA
ATOM      3  N   UNL     1       2.300   7.223  20.277  0.00  0.00    +0.000 N 
ATOM      4  H   UNL     1       3.129   7.633  19.876  0.00  0.00    +0.000 HD
ENDROOT
BRANCH   1   7
ATOM      5  C   UNL     1       2.832   2.928  20.171  0.00  0.00    +0.000 C 
ATOM      6  N   UNL     1       3.141   3.794  19.047  0.00  0.00    +0.000 N 
ATOM      7  C   UNL     1       2.901   5.170  19.052  0.00  0.00    +0.000 A 
ATOM      8  C   UNL     1       3.460   5.970  18.125  0.00  0.00    +0.000 A 
ATOM      9  C   UNL     1       4.329   5.420  17.089  0.00  0.00    +0.000 A 
ATOM     10  C   UNL     1       5.034   6.241  16.202  0.00  0.00    +0.000 A 
ATOM     11  C   UNL     1       5.843   5.682  15.206  0.00  0.00    +0.000 A 
ATOM     12  C   UNL     1       5.938   4.295  15.077  0.00  0.00    +0.000 A 
ATOM     13  C   UNL     1       5.246   3.470  15.962  0.00  0.00    +0.000 A 
ATOM     14  C   UNL     1       4.459   4.034  16.970  0.00  0.00    +0.000 A 
ATOM     15  C   UNL     1       3.815   3.165  17.985  0.00  0.00    +0.000 A 
ATOM     16  O   UNL     1       3.927   1.946  17.885  0.00  0.00    +0.000 OA
ENDBRANCH   1   7
BRANCH   3  17
ATOM     17  C   UNL     1       1.530   8.019  21.208  0.00  0.00    +0.000 C 
BRANCH  17  18
ATOM     18  C   UNL     1       1.075   9.282  20.548  0.00  0.00    +0.000 C 
ATOM     19  C   UNL     1       0.530  10.398  21.401  0.00  0.00    +0.000 C 
ATOM     20  C   UNL     1      -0.398   9.645  20.475  0.00  0.00    +0.000 C 
BRANCH  20  21
ATOM     21  C   UNL     1      -0.972  10.350  19.271  0.00  0.00    +0.000 A 
ATOM     22  C   UNL     1      -1.683   9.677  18.270  0.00  0.00    +0.000 A 
ATOM     23  C   UNL     1      -2.250  10.377  17.205  0.00  0.00    +0.000 A 
ATOM     24  C   UNL     1      -2.092  11.751  17.163  0.00  0.00    +0.000 A 
ATOM     25  N   UNL     1      -1.412  12.449  18.093  0.00  0.00    +0.000 NA
ATOM     26  C   UNL     1      -0.875  11.735  19.113  0.00  0.00    +0.000 A 
ENDBRANCH  20  21
ENDBRANCH  17  18
ENDBRANCH   3  17
TORSDOF 4
ENDMDL
MODEL 8
REMARK VINA RESULT:      -7.8      3.184      8.164
REMARK  Name = 
REMARK  5 active torsions:
REMARK  status: ('A' for Active; 'I' for Inactive)
REMARK    1  A    between atoms: C_1  and  N_2
REMARK    2  A    between atoms: C_3  and  C_4
REMARK    3  A    between atoms: N_6  and  C_7
REMARK    4  A    between atoms: C_7  and  C_8
REMARK    5  A    between atoms: C_10  and  C_11
REMARK                            x       y       z     vdW  Elec       q    Type
REMARK                         _______ _______ _______ _____ _____    ______ ____
ROOT
ATOM      1  C   UNL     1       1.623   8.227  20.471  0.00  0.00    +0.000 C 
ATOM      2  O   UNL     1       1.693   8.323  21.695  0.00  0.00    +0.000 OA
ATOM      3  N   UNL     1       1.225   9.276  19.675  0.00  0.00    +0.000 N 
ATOM      4  H   UNL     1       1.352   9.220  18.676  0.00  0.00    +0.000 HD
ENDROOT
BRANCH   1   7
ATOM      5  C   UNL     1       3.072   8.070  17.766  0.00  0.00    +0.000 C 
ATOM      6  N   UNL     1       2.820   6.907  18.600  0.00  0.00    +0.000 N 
ATOM      7  C   UNL     1       2.043   6.952  19.760  0.00  0.00    +0.000 A 
ATOM      8  C   UNL     1       1.598   5.819  20.335  0.00  0.00    +0.000 A 
ATOM      9  C   UNL     1       1.918   4.514  19.761  0.00  0.00    +0.000 A 
ATOM     10  C   UNL     1       1.354   3.332  20.253  0.00  0.00    +0.000 A 
ATOM     11  C   UNL     1       1.697   2.096  19.694  0.00  0.00    +0.000 A 
ATOM     12  C   UNL     1       2.623   2.030  18.651  0.00  0.00    +0.000 A 
ATOM     13  C   UNL     1       3.182   3.203  18.150  0.00  0.00    +0.000 A 
ATOM     14  C   UNL     1       2.818   4.438  18.695  0.00  0.00    +0.000 A 
ATOM     15  C   UNL     1       3.320   5.696  18.090  0.00  0.00    +0.000 A 
ATOM     16  O   UNL     1       4.110   5.634  17.152  0.00  0.00    +0.000 OA
ENDBRANCH   1   7
BRANCH   3  17
ATOM     17  C   UNL     1       0.792  10.537  20.236  0.00  0.00    +0.000 C 
BRANCH  17  18
ATOM     18  C   UNL     1      -0.218  11.178  19.337  0.00  0.00    +0.000 C 
ATOM     19  C   UNL     1      -1.387  11.903  19.950  0.00  0.00    +0.000 C 
ATOM     20  C   UNL     1      -1.621  10.611  19.200  0.00  0.00    +0.000 C 
BRANCH  20  21
ATOM     21  C   UNL     1      -2.353  10.645  17.881  0.00  0.00    +0.000 A 
ATOM     22  C   UNL     1      -2.016   9.810  16.809  0.00  0.00    +0.000 A 
ATOM     23  C   UNL     1      -2.760   9.830  15.629  0.00  0.00    +0.000 A 
ATOM     24  C   UNL     1      -3.836  10.695  15.546  0.00  0.00    +0.000 A 
ATOM     25  N   UNL     1      -4.202  11.525  16.541  0.00  0.00    +0.000 NA
ATOM     26  C   UNL     1      -3.456  11.478  17.672  0.00  0.00    +0.000 A 
ENDBRANCH  20  21
ENDBRANCH  17  18
ENDBRANCH   3  17
TORSDOF 4
ENDMDL
MODEL 9
REMARK VINA RESULT:      -7.8      2.766      8.725
REMARK  Name = 
REMARK  5 active torsions:
REMARK  status: ('A' for Active; 'I' for Inactive)
REMARK    1  A    between atoms: C_1  and  N_2
REMARK    2  A    between atoms: C_3  and  C_4
REMARK    3  A    between atoms: N_6  and  C_7
REMARK    4  A    between atoms: C_7  and  C_8
REMARK    5  A    between atoms: C_10  and  C_11
REMARK                            x       y       z     vdW  Elec       q    Type
REMARK                         _______ _______ _______ _____ _____    ______ ____
ROOT
ATOM      1  C   UNL     1       1.920   7.458  19.864  0.00  0.00    +0.000 C 
ATOM      2  O   UNL     1       1.526   7.243  21.009  0.00  0.00    +0.000 OA
ATOM      3  N   UNL     1       1.703   8.658  19.228  0.00  0.00    +0.000 N 
ATOM      4  H   UNL     1       2.191   8.863  18.369  0.00  0.00    +0.000 HD
ENDROOT
BRANCH   1   7
ATOM      5  C   UNL     1       2.445   4.570  20.771  0.00  0.00    +0.000 C 
ATOM      6  N   UNL     1       2.847   5.079  19.472  0.00  0.00    +0.000 N 
ATOM      7  C   UNL     1       2.735   6.423  19.108  0.00  0.00    +0.000 A 
ATOM      8  C   UNL     1       3.377   6.899  18.025  0.00  0.00    +0.000 A 
ATOM      9  C   UNL     1       4.204   6.022  17.201  0.00  0.00    +0.000 A 
ATOM     10  C   UNL     1       4.993   6.517  16.156  0.00  0.00    +0.000 A 
ATOM     11  C   UNL     1       5.759   5.647  15.372  0.00  0.00    +0.000 A 
ATOM     12  C   UNL     1       5.728   4.273  15.614  0.00  0.00    +0.000 A 
ATOM     13  C   UNL     1       4.952   3.773  16.657  0.00  0.00    +0.000 A 
ATOM     14  C   UNL     1       4.207   4.648  17.454  0.00  0.00    +0.000 A 
ATOM     15  C   UNL     1       3.473   4.136  18.637  0.00  0.00    +0.000 A 
ATOM     16  O   UNL     1       3.473   2.929  18.863  0.00  0.00    +0.000 OA
ENDBRANCH   1   7
BRANCH   3  17
ATOM     17  C   UNL     1       0.932   9.718  19.840  0.00  0.00    +0.000 C 
BRANCH  17  18
ATOM     18  C   UNL     1       0.153  10.454  18.797  0.00  0.00    +0.000 C 
ATOM     19  C   UNL     1      -0.142  11.917  19.000  0.00  0.00    +0.000 C 
ATOM     20  C   UNL     1      -1.272  10.914  19.057  0.00  0.00    +0.000 C 
BRANCH  20  21
ATOM     21  C   UNL     1      -2.309  10.907  17.961  0.00  0.00    +0.000 A 
ATOM     22  C   UNL     1      -3.556  11.527  18.098  0.00  0.00    +0.000 A 
ATOM     23  C   UNL     1      -4.461  11.550  17.037  0.00  0.00    +0.000 A 
ATOM     24  C   UNL     1      -4.096  10.944  15.848  0.00  0.00    +0.000 A 
ATOM     25  N   UNL     1      -2.914  10.326  15.662  0.00  0.00    +0.000 NA
ATOM     26  C   UNL     1      -2.060  10.324  16.715  0.00  0.00    +0.000 A 
ENDBRANCH  20  21
ENDBRANCH  17  18
ENDBRANCH   3  17
TORSDOF 4
ENDMDL
