MODEL 1
REMARK VINA RESULT:      -9.2      0.000      0.000
REMARK  Name = 
REMARK  8 active torsions:
REMARK  status: ('A' for Active; 'I' for Inactive)
REMARK    1  A    between atoms: C_1  and  N_2
REMARK    2  A    between atoms: C_6  and  C_7
REMARK    3  A    between atoms: C_7  and  C_8
REMARK    4  A    between atoms: C_8  and  C_9
REMARK    5  A    between atoms: C_13  and  N_14
REMARK    6  A    between atoms: N_14  and  C_15
REMARK    7  A    between atoms: C_15  and  C_16
REMARK    8  A    between atoms: C_22  and  C_23
REMARK                            x       y       z     vdW  Elec       q    Type
REMARK                         _______ _______ _______ _____ _____    ______ ____
ROOT
ATOM      1  C   UNL     1       4.038   4.977  17.526  0.00  0.00    +0.000 A 
ATOM      2  C   UNL     1       3.463   3.699  17.462  0.00  0.00    +0.000 A 
ATOM      3  C   UNL     1       2.386   3.347  18.282  0.00  0.00    +0.000 A 
ATOM      4  C   UNL     1       1.846   4.273  19.183  0.00  0.00    +0.000 A 
ATOM      5  C   UNL     1       2.362   5.563  19.259  0.00  0.00    +0.000 A 
ATOM      6  C   UNL     1       3.465   5.871  18.455  0.00  0.00    +0.000 A 
ENDROOT
BRANCH   1   7
ATOM      7  C   UNL     1       5.283   5.443  16.633  0.00  0.00    +0.000 C 
ATOM      8  C   UNL     1       5.221   6.820  15.921  0.00  0.00    +0.000 C 
ATOM      9  O   UNL     1       6.353   7.329  16.661  0.00  0.00    +0.000 OA
ATOM     10  C   UNL     1       6.444   6.116  17.428  0.00  0.00    +0.000 C 
BRANCH   7  11
ATOM     11  C   UNL     1       5.804   4.262  15.793  0.00  0.00    +0.000 C 
BRANCH  11  17
ATOM     12  C   UNL     1       5.329   3.427  12.747  0.00  0.00    +0.000 C 
ATOM     13  N   UNL     1       6.393   4.229  13.290  0.00  0.00    +0.000 N 
ATOM     14  C   UNL     1       7.446   4.709  12.572  0.00  0.00    +0.000 A 
ATOM     15  N   UNL     1       8.230   5.410  13.354  0.00  0.00    +0.000 NA
ATOM     16  N   UNL     1       7.696   5.370  14.616  0.00  0.00    +0.000 NA
ATOM     17  C   UNL     1       6.598   4.642  14.586  0.00  0.00    +0.000 A 
ENDBRANCH  11  17
ENDBRANCH   7  11
ENDBRANCH   1   7
BRANCH   5  18
ATOM     18  N   UNL     1       1.953   6.559  20.149  0.00  0.00    +0.000 N 
ATOM     19  H   UNL     1       0.991   6.359  20.435  0.00  0.00    +0.000 HD
BRANCH  18  20
ATOM     20  C   UNL     1       2.077   7.956  19.778  0.00  0.00    +0.000 C 
BRANCH  20  21
ATOM     21  C   UNL     1       1.099   8.801  20.579  0.00  0.00    +0.000 A 
ATOM     22  C   UNL     1       0.893   8.442  21.930  0.00  0.00    +0.000 A 
ATOM     23  C   UNL     1       0.100   9.216  22.779  0.00  0.00    +0.000 A 
ATOM     24  C   UNL     1      -0.502  10.360  22.287  0.00  0.00    +0.000 A 
ATOM     25  F   UNL     1      -1.229  11.132  23.105  0.00  0.00    +0.000 F 
ATOM     26  C   UNL     1      -0.363  10.714  20.952  0.00  0.00    +0.000 A 
ATOM     27  C   UNL     1       0.414   9.932  20.069  0.00  0.00    +0.000 A 
BRANCH  27  28
ATOM     28  C   UNL     1       0.420  10.378  18.624  0.00  0.00    +0.000 C 
ATOM     29  F   UNL     1       0.058   9.436  17.710  0.00  0.00    +0.000 F 
ATOM     30  F   UNL     1      -0.421  11.432  18.411  0.00  0.00    +0.000 F 
ATOM     31  F   UNL     1       1.651  10.809  18.226  0.00  0.00    +0.000 F 
ENDBRANCH  27  28
ENDBRANCH  20  21
ENDBRANCH  18  20
ENDBRANCH   5  18
TORSDOF 7
ENDMDL
MODEL 2
REMARK VINA RESULT:      -9.2      1.186      2.514
REMARK  Name = 
REMARK  8 active torsions:
REMARK  status: ('A' for Active; 'I' for Inactive)
REMARK    1  A    between atoms: C_1  and  N_2
REMARK    2  A    between atoms: C_6  and  C_7
REMARK    3  A    between atoms: C_7  and  C_8
REMARK    4  A    between atoms: C_8  and  C_9
REMARK    5  A    between atoms: C_13  and  N_14
REMARK    6  A    between atoms: N_14  and  C_15
REMARK    7  A    between atoms: C_15  and  C_16
REMARK    8  A    between atoms: C_22  and  C_23
REMARK                            x       y       z     vdW  Elec       q    Type
REMARK                         _______ _______ _______ _____ _____    ______ ____
ROOT
ATOM      1  C   UNL     1       4.507   4.821  17.574  0.00  0.00    +0.000 A 
ATOM      2  C   UNL     1       3.537   3.917  17.113  0.00  0.00    +0.000 A 
ATOM      3  C   UNL     1       2.272   3.848  17.706  0.00  0.00    +0.000 A 
ATOM      4  C   UNL     1       1.938   4.693  18.771  0.00  0.00    +0.000 A 
ATOM      5  C   UNL     1       2.856   5.627  19.241  0.00  0.00    +0.000 A 
ATOM      6  C   UNL     1       4.126   5.644  18.655  0.00  0.00    +0.000 A 
ENDROOT
BRANCH   1   7
ATOM      7  C   UNL     1       5.981   4.942  16.958  0.00  0.00    +0.000 C 
ATOM      8  C   UNL     1       6.624   6.347  16.823  0.00  0.00    +0.000 C 
ATOM      9  O   UNL     1       7.698   6.017  17.730  0.00  0.00    +0.000 OA
ATOM     10  C   UNL     1       7.138   4.716  17.979  0.00  0.00    +0.000 C 
BRANCH   7  11
ATOM     11  C   UNL     1       6.126   4.004  15.745  0.00  0.00    +0.000 C 
BRANCH  11  17
ATOM     12  C   UNL     1       5.658   3.376  12.649  0.00  0.00    +0.000 C 
ATOM     13  N   UNL     1       6.613   4.279  13.235  0.00  0.00    +0.000 N 
ATOM     14  C   UNL     1       7.554   4.973  12.536  0.00  0.00    +0.000 A 
ATOM     15  N   UNL     1       8.257   5.713  13.358  0.00  0.00    +0.000 NA
ATOM     16  N   UNL     1       7.786   5.483  14.625  0.00  0.00    +0.000 NA
ATOM     17  C   UNL     1       6.807   4.603  14.558  0.00  0.00    +0.000 A 
ENDBRANCH  11  17
ENDBRANCH   7  11
ENDBRANCH   1   7
BRANCH   5  18
ATOM     18  N   UNL     1       2.670   6.486  20.327  0.00  0.00    +0.000 N 
ATOM     19  H   UNL     1       3.005   6.015  21.171  0.00  0.00    +0.000 HD
BRANCH  18  20
ATOM     20  C   UNL     1       1.364   7.068  20.573  0.00  0.00    +0.000 C 
BRANCH  20  21
ATOM     21  C   UNL     1       1.325   8.502  20.068  0.00  0.00    +0.000 A 
ATOM     22  C   UNL     1       1.845   8.747  18.777  0.00  0.00    +0.000 A 
ATOM     23  C   UNL     1       1.758  10.005  18.179  0.00  0.00    +0.000 A 
ATOM     24  C   UNL     1       1.152  11.040  18.868  0.00  0.00    +0.000 A 
ATOM     25  F   UNL     1       1.024  12.239  18.286  0.00  0.00    +0.000 F 
ATOM     26  C   UNL     1       0.676  10.849  20.157  0.00  0.00    +0.000 A 
ATOM     27  C   UNL     1       0.775   9.591  20.792  0.00  0.00    +0.000 A 
BRANCH  27  28
ATOM     28  C   UNL     1       0.295   9.533  22.224  0.00  0.00    +0.000 C 
ATOM     29  F   UNL     1      -0.725   8.667  22.474  0.00  0.00    +0.000 F 
ATOM     30  F   UNL     1       1.294   9.174  23.083  0.00  0.00    +0.000 F 
ATOM     31  F   UNL     1      -0.146  10.745  22.666  0.00  0.00    +0.000 F 
ENDBRANCH  27  28
ENDBRANCH  20  21
ENDBRANCH  18  20
ENDBRANCH   5  18
TORSDOF 7
ENDMDL
MODEL 3
REMARK VINA RESULT:      -8.9      2.542      3.918
REMARK  Name = 
REMARK  8 active torsions:
REMARK  status: ('A' for Active; 'I' for Inactive)
REMARK    1  A    between atoms: C_1  and  N_2
REMARK    2  A    between atoms: C_6  and  C_7
REMARK    3  A    between atoms: C_7  and  C_8
REMARK    4  A    between atoms: C_8  and  C_9
REMARK    5  A    between atoms: C_13  and  N_14
REMARK    6  A    between atoms: N_14  and  C_15
REMARK    7  A    between atoms: C_15  and  C_16
REMARK    8  A    between atoms: C_22  and  C_23
REMARK                            x       y       z     vdW  Elec       q    Type
REMARK                         _______ _______ _______ _____ _____    ______ ____
ROOT
ATOM      1  C   UNL     1       2.701   4.970  19.049  0.00  0.00    +0.000 A 
ATOM      2  C   UNL     1       2.161   4.954  20.344  0.00  0.00    +0.000 A 
ATOM      3  C   UNL     1       1.707   6.128  20.954  0.00  0.00    +0.000 A 
ATOM      4  C   UNL     1       1.769   7.352  20.277  0.00  0.00    +0.000 A 
ATOM      5  C   UNL     1       2.267   7.412  18.979  0.00  0.00    +0.000 A 
ATOM      6  C   UNL     1       2.751   6.228  18.412  0.00  0.00    +0.000 A 
ENDROOT
BRANCH   1   7
ATOM      7  C   UNL     1       3.258   3.671  18.296  0.00  0.00    +0.000 C 
ATOM      8  C   UNL     1       3.762   2.472  19.142  0.00  0.00    +0.000 C 
ATOM      9  O   UNL     1       2.751   1.587  18.612  0.00  0.00    +0.000 OA
ATOM     10  C   UNL     1       2.164   2.654  17.847  0.00  0.00    +0.000 C 
BRANCH   7  11
ATOM     11  C   UNL     1       4.143   4.088  17.106  0.00  0.00    +0.000 C 
BRANCH  11  17
ATOM     12  C   UNL     1       6.640   4.369  15.135  0.00  0.00    +0.000 C 
ATOM     13  N   UNL     1       6.634   4.434  16.573  0.00  0.00    +0.000 N 
ATOM     14  C   UNL     1       7.748   4.552  17.348  0.00  0.00    +0.000 A 
ATOM     15  N   UNL     1       7.404   4.596  18.612  0.00  0.00    +0.000 NA
ATOM     16  N   UNL     1       6.039   4.481  18.671  0.00  0.00    +0.000 NA
ATOM     17  C   UNL     1       5.572   4.362  17.443  0.00  0.00    +0.000 A 
ENDBRANCH  11  17
ENDBRANCH   7  11
ENDBRANCH   1   7
BRANCH   5  18
ATOM     18  N   UNL     1       2.434   8.571  18.217  0.00  0.00    +0.000 N 
ATOM     19  H   UNL     1       3.084   9.189  18.711  0.00  0.00    +0.000 HD
BRANCH  18  20
ATOM     20  C   UNL     1       1.274   9.324  17.780  0.00  0.00    +0.000 C 
BRANCH  20  21
ATOM     21  C   UNL     1       1.333  10.743  18.324  0.00  0.00    +0.000 A 
ATOM     22  C   UNL     1       2.450  11.528  17.958  0.00  0.00    +0.000 A 
ATOM     23  C   UNL     1       2.546  12.874  18.314  0.00  0.00    +0.000 A 
ATOM     24  C   UNL     1       1.526  13.454  19.047  0.00  0.00    +0.000 A 
ATOM     25  F   UNL     1       1.588  14.755  19.355  0.00  0.00    +0.000 F 
ATOM     26  C   UNL     1       0.440  12.700  19.467  0.00  0.00    +0.000 A 
ATOM     27  C   UNL     1       0.333  11.330  19.139  0.00  0.00    +0.000 A 
BRANCH  27  28
ATOM     28  C   UNL     1      -0.855  10.601  19.724  0.00  0.00    +0.000 C 
ATOM     29  F   UNL     1      -0.565   9.540  20.526  0.00  0.00    +0.000 F 
ATOM     30  F   UNL     1      -1.637  11.425  20.482  0.00  0.00    +0.000 F 
ATOM     31  F   UNL     1      -1.680  10.106  18.758  0.00  0.00    +0.000 F 
ENDBRANCH  27  28
ENDBRANCH  20  21
ENDBRANCH  18  20
ENDBRANCH   5  18
TORSDOF 7
ENDMDL
MODEL 4
REMARK VINA RESULT:      -8.9      3.689      5.605
REMARK  Name = 
REMARK  8 active torsions:
REMARK  status: ('A' for Active; 'I' for Inactive)
REMARK    1  A    between atoms: C_1  and  N_2
REMARK    2  A    between atoms: C_6  and  C_7
REMARK    3  A    between atoms: C_7  and  C_8
REMARK    4  A    between atoms: C_8  and  C_9
REMARK    5  A    between atoms: C_13  and  N_14
REMARK    6  A    between atoms: N_14  and  C_15
REMARK    7  A    between atoms: C_15  and  C_16
REMARK    8  A    between atoms: C_22  and  C_23
REMARK                            x       y       z     vdW  Elec       q    Type
REMARK                         _______ _______ _______ _____ _____    ______ ____
ROOT
ATOM      1  C   UNL     1       4.477   6.312  17.872  0.00  0.00    +0.000 A 
ATOM      2  C   UNL     1       4.156   7.480  17.166  0.00  0.00    +0.000 A 
ATOM      3  C   UNL     1       3.058   8.268  17.529  0.00  0.00    +0.000 A 
ATOM      4  C   UNL     1       2.258   7.912  18.621  0.00  0.00    +0.000 A 
ATOM      5  C   UNL     1       2.557   6.779  19.372  0.00  0.00    +0.000 A 
ATOM      6  C   UNL     1       3.635   5.990  18.958  0.00  0.00    +0.000 A 
ENDROOT
BRANCH   1   7
ATOM      7  C   UNL     1       5.705   5.351  17.501  0.00  0.00    +0.000 C 
ATOM      8  C   UNL     1       7.152   5.876  17.694  0.00  0.00    +0.000 C 
ATOM      9  O   UNL     1       7.459   4.864  18.677  0.00  0.00    +0.000 OA
ATOM     10  C   UNL     1       6.117   4.352  18.626  0.00  0.00    +0.000 C 
BRANCH   7  11
ATOM     11  C   UNL     1       5.416   4.609  16.183  0.00  0.00    +0.000 C 
BRANCH  11  17
ATOM     12  C   UNL     1       5.303   3.612  13.151  0.00  0.00    +0.000 C 
ATOM     13  N   UNL     1       6.311   4.424  13.780  0.00  0.00    +0.000 N 
ATOM     14  C   UNL     1       7.457   4.844  13.174  0.00  0.00    +0.000 A 
ATOM     15  N   UNL     1       8.155   5.574  14.010  0.00  0.00    +0.000 NA
ATOM     16  N   UNL     1       7.468   5.615  15.195  0.00  0.00    +0.000 NA
ATOM     17  C   UNL     1       6.363   4.906  15.067  0.00  0.00    +0.000 A 
ENDBRANCH  11  17
ENDBRANCH   7  11
ENDBRANCH   1   7
BRANCH   5  18
ATOM     18  N   UNL     1       1.810   6.285  20.445  0.00  0.00    +0.000 N 
ATOM     19  H   UNL     1       2.457   6.030  21.196  0.00  0.00    +0.000 HD
BRANCH  18  20
ATOM     20  C   UNL     1       0.857   5.213  20.230  0.00  0.00    +0.000 C 
BRANCH  20  21
ATOM     21  C   UNL     1       1.533   4.040  19.537  0.00  0.00    +0.000 A 
ATOM     22  C   UNL     1       1.484   4.009  18.125  0.00  0.00    +0.000 A 
ATOM     23  C   UNL     1       2.164   3.037  17.390  0.00  0.00    +0.000 A 
ATOM     24  C   UNL     1       2.902   2.076  18.059  0.00  0.00    +0.000 A 
ATOM     25  F   UNL     1       3.593   1.166  17.362  0.00  0.00    +0.000 F 
ATOM     26  C   UNL     1       2.930   2.046  19.446  0.00  0.00    +0.000 A 
ATOM     27  C   UNL     1       2.230   3.005  20.211  0.00  0.00    +0.000 A 
BRANCH  27  28
ATOM     28  C   UNL     1       2.274   2.815  21.710  0.00  0.00    +0.000 C 
ATOM     29  F   UNL     1       2.569   3.925  22.441  0.00  0.00    +0.000 F 
ATOM     30  F   UNL     1       1.083   2.363  22.202  0.00  0.00    +0.000 F 
ATOM     31  F   UNL     1       3.197   1.884  22.082  0.00  0.00    +0.000 F 
ENDBRANCH  27  28
ENDBRANCH  20  21
ENDBRANCH  18  20
ENDBRANCH   5  18
TORSDOF 7
ENDMDL
MODEL 5
REMARK VINA RESULT:      -8.8      0.882      1.076
REMARK  Name = 
REMARK  8 active torsions:
REMARK  status: ('A' for Active; 'I' for Inactive)
REMARK    1  A    between atoms: C_1  and  N_2
REMARK    2  A    between atoms: C_6  and  C_7
REMARK    3  A    between atoms: C_7  and  C_8
REMARK    4  A    between atoms: C_8  and  C_9
REMARK    5  A    between atoms: C_13  and  N_14
REMARK    6  A    between atoms: N_14  and  C_15
REMARK    7  A    between atoms: C_15  and  C_16
REMARK    8  A    between atoms: C_22  and  C_23
REMARK                            x       y       z     vdW  Elec       q    Type
REMARK                         _______ _______ _______ _____ _____    ______ ____
ROOT
ATOM      1  C   UNL     1       4.415   4.597  17.209  0.00  0.00    +0.000 A 
ATOM      2  C   UNL     1       3.749   3.364  17.142  0.00  0.00    +0.000 A 
ATOM      3  C   UNL     1       2.416   3.237  17.548  0.00  0.00    +0.000 A 
ATOM      4  C   UNL     1       1.708   4.349  18.021  0.00  0.00    +0.000 A 
ATOM      5  C   UNL     1       2.317   5.599  18.075  0.00  0.00    +0.000 A 
ATOM      6  C   UNL     1       3.662   5.684  17.701  0.00  0.00    +0.000 A 
ENDROOT
BRANCH   1   7
ATOM      7  C   UNL     1       5.943   4.812  16.781  0.00  0.00    +0.000 C 
ATOM      8  C   UNL     1       6.503   6.257  16.702  0.00  0.00    +0.000 C 
ATOM      9  O   UNL     1       7.474   6.009  17.743  0.00  0.00    +0.000 OA
ATOM     10  C   UNL     1       6.974   4.676  17.944  0.00  0.00    +0.000 C 
BRANCH   7  11
ATOM     11  C   UNL     1       6.303   3.874  15.613  0.00  0.00    +0.000 C 
BRANCH  11  17
ATOM     12  C   UNL     1       5.758   3.330  12.514  0.00  0.00    +0.000 C 
ATOM     13  N   UNL     1       6.691   4.256  13.100  0.00  0.00    +0.000 N 
ATOM     14  C   UNL     1       7.574   5.017  12.396  0.00  0.00    +0.000 A 
ATOM     15  N   UNL     1       8.270   5.761  13.220  0.00  0.00    +0.000 NA
ATOM     16  N   UNL     1       7.854   5.467  14.493  0.00  0.00    +0.000 NA
ATOM     17  C   UNL     1       6.914   4.544  14.426  0.00  0.00    +0.000 A 
ENDBRANCH  11  17
ENDBRANCH   7  11
ENDBRANCH   1   7
BRANCH   5  18
ATOM     18  N   UNL     1       1.743   6.770  18.575  0.00  0.00    +0.000 N 
ATOM     19  H   UNL     1       1.602   7.418  17.795  0.00  0.00    +0.000 HD
BRANCH  18  20
ATOM     20  C   UNL     1       2.367   7.464  19.685  0.00  0.00    +0.000 C 
BRANCH  20  21
ATOM     21  C   UNL     1       1.368   8.403  20.345  0.00  0.00    +0.000 A 
ATOM     22  C   UNL     1       0.884   8.037  21.621  0.00  0.00    +0.000 A 
ATOM     23  C   UNL     1       0.050   8.880  22.357  0.00  0.00    +0.000 A 
ATOM     24  C   UNL     1      -0.316  10.103  21.823  0.00  0.00    +0.000 A 
ATOM     25  F   UNL     1      -1.080  10.937  22.540  0.00  0.00    +0.000 F 
ATOM     26  C   UNL     1       0.099  10.473  20.552  0.00  0.00    +0.000 A 
ATOM     27  C   UNL     1       0.924   9.625  19.779  0.00  0.00    +0.000 A 
BRANCH  27  28
ATOM     28  C   UNL     1       1.239  10.105  18.381  0.00  0.00    +0.000 C 
ATOM     29  F   UNL     1       2.514   9.893  17.954  0.00  0.00    +0.000 F 
ATOM     30  F   UNL     1       0.440   9.513  17.446  0.00  0.00    +0.000 F 
ATOM     31  F   UNL     1       1.032  11.445  18.240  0.00  0.00    +0.000 F 
ENDBRANCH  27  28
ENDBRANCH  20  21
ENDBRANCH  18  20
ENDBRANCH   5  18
TORSDOF 7
ENDMDL
MODEL 6
REMARK VINA RESULT:      -8.8      2.781      4.493
REMARK  Name = 
REMARK  8 active torsions:
REMARK  status: ('A' for Active; 'I' for Inactive)
REMARK    1  A    between atoms: C_1  and  N_2
REMARK    2  A    between atoms: C_6  and  C_7
REMARK    3  A    between atoms: C_7  and  C_8
REMARK    4  A    between atoms: C_8  and  C_9
REMARK    5  A    between atoms: C_13  and  N_14
REMARK    6  A    between atoms: N_14  and  C_15
REMARK    7  A    between atoms: C_15  and  C_16
REMARK    8  A    between atoms: C_22  and  C_23
REMARK                            x       y       z     vdW  Elec       q    Type
REMARK                         _______ _______ _______ _____ _____    ______ ____
ROOT
ATOM      1  C   UNL     1       2.423   7.341  19.108  0.00  0.00    +0.000 A 
ATOM      2  C   UNL     1       2.042   7.245  20.455  0.00  0.00    +0.000 A 
ATOM      3  C   UNL     1       1.220   8.210  21.045  0.00  0.00    +0.000 A 
ATOM      4  C   UNL     1       0.744   9.294  20.297  0.00  0.00    +0.000 A 
ATOM      5  C   UNL     1       1.069   9.413  18.949  0.00  0.00    +0.000 A 
ATOM      6  C   UNL     1       1.927   8.455  18.399  0.00  0.00    +0.000 A 
ENDROOT
BRANCH   1   7
ATOM      7  C   UNL     1       3.378   6.286  18.372  0.00  0.00    +0.000 C 
ATOM      8  C   UNL     1       4.386   5.467  19.220  0.00  0.00    +0.000 C 
ATOM      9  O   UNL     1       3.762   4.212  18.871  0.00  0.00    +0.000 OA
ATOM     10  C   UNL     1       2.737   4.886  18.121  0.00  0.00    +0.000 C 
BRANCH   7  11
ATOM     11  C   UNL     1       3.917   6.887  17.060  0.00  0.00    +0.000 C 
BRANCH  11  17
ATOM     12  C   UNL     1       5.100   4.300  15.608  0.00  0.00    +0.000 C 
ATOM     13  N   UNL     1       5.824   5.414  16.162  0.00  0.00    +0.000 N 
ATOM     14  C   UNL     1       7.181   5.503  16.223  0.00  0.00    +0.000 A 
ATOM     15  N   UNL     1       7.525   6.643  16.770  0.00  0.00    +0.000 NA
ATOM     16  N   UNL     1       6.370   7.307  17.098  0.00  0.00    +0.000 NA
ATOM     17  C   UNL     1       5.341   6.560  16.750  0.00  0.00    +0.000 A 
ENDBRANCH  11  17
ENDBRANCH   7  11
ENDBRANCH   1   7
BRANCH   5  18
ATOM     18  N   UNL     1       0.708  10.469  18.109  0.00  0.00    +0.000 N 
ATOM     19  H   UNL     1       1.546  10.787  17.614  0.00  0.00    +0.000 HD
BRANCH  18  20
ATOM     20  C   UNL     1      -0.009  11.609  18.646  0.00  0.00    +0.000 C 
BRANCH  20  21
ATOM     21  C   UNL     1      -1.494  11.488  18.339  0.00  0.00    +0.000 A 
ATOM     22  C   UNL     1      -1.859  10.713  17.215  0.00  0.00    +0.000 A 
ATOM     23  C   UNL     1      -3.195  10.451  16.910  0.00  0.00    +0.000 A 
ATOM     24  C   UNL     1      -4.188  10.965  17.725  0.00  0.00    +0.000 A 
ATOM     25  F   UNL     1      -5.471  10.683  17.465  0.00  0.00    +0.000 F 
ATOM     26  C   UNL     1      -3.868  11.772  18.806  0.00  0.00    +0.000 A 
ATOM     27  C   UNL     1      -2.523  12.071  19.120  0.00  0.00    +0.000 A 
BRANCH  27  28
ATOM     28  C   UNL     1      -2.310  13.027  20.272  0.00  0.00    +0.000 C 
ATOM     29  F   UNL     1      -1.562  14.131  19.997  0.00  0.00    +0.000 F 
ATOM     30  F   UNL     1      -3.491  13.502  20.766  0.00  0.00    +0.000 F 
ATOM     31  F   UNL     1      -1.689  12.427  21.327  0.00  0.00    +0.000 F 
ENDBRANCH  27  28
ENDBRANCH  20  21
ENDBRANCH  18  20
ENDBRANCH   5  18
TORSDOF 7
ENDMDL
MODEL 7
REMARK VINA RESULT:      -8.8      4.723      8.692
REMARK  Name = 
REMARK  8 active torsions:
REMARK  status: ('A' for Active; 'I' for Inactive)
REMARK    1  A    between atoms: C_1  and  N_2
REMARK    2  A    between atoms: C_6  and  C_7
REMARK    3  A    between atoms: C_7  and  C_8
REMARK    4  A    between atoms: C_8  and  C_9
REMARK    5  A    between atoms: C_13  and  N_14
REMARK    6  A    between atoms: N_14  and  C_15
REMARK    7  A    between atoms: C_15  and  C_16
REMARK    8  A    between atoms: C_22  and  C_23
REMARK                            x       y       z     vdW  Elec       q    Type
REMARK                         _______ _______ _______ _____ _____    ______ ____
ROOT
ATOM      1  C   UNL     1      -0.228  10.651  20.574  0.00  0.00    +0.000 A 
ATOM      2  C   UNL     1      -0.785  10.926  21.832  0.00  0.00    +0.000 A 
ATOM      3  C   UNL     1      -0.503  10.121  22.941  0.00  0.00    +0.000 A 
ATOM      4  C   UNL     1       0.358   9.022  22.822  0.00  0.00    +0.000 A 
ATOM      5  C   UNL     1       0.959   8.729  21.601  0.00  0.00    +0.000 A 
ATOM      6  C   UNL     1       0.624   9.528  20.503  0.00  0.00    +0.000 A 
ENDROOT
BRANCH   1   7
ATOM      7  C   UNL     1      -0.522  11.515  19.257  0.00  0.00    +0.000 C 
ATOM      8  C   UNL     1      -1.327  10.867  18.100  0.00  0.00    +0.000 C 
ATOM      9  O   UNL     1      -2.400  11.827  18.220  0.00  0.00    +0.000 OA
ATOM     10  C   UNL     1      -1.767  12.450  19.351  0.00  0.00    +0.000 C 
BRANCH   7  11
ATOM     11  C   UNL     1       0.734  12.310  18.856  0.00  0.00    +0.000 C 
BRANCH  11  17
ATOM     12  C   UNL     1       0.281  15.467  19.013  0.00  0.00    +0.000 C 
ATOM     13  N   UNL     1       1.055  14.638  19.898  0.00  0.00    +0.000 N 
ATOM     14  C   UNL     1       1.806  15.102  20.935  0.00  0.00    +0.000 A 
ATOM     15  N   UNL     1       2.376  14.096  21.552  0.00  0.00    +0.000 NA
ATOM     16  N   UNL     1       2.013  12.950  20.893  0.00  0.00    +0.000 NA
ATOM     17  C   UNL     1       1.231  13.274  19.882  0.00  0.00    +0.000 A 
ENDBRANCH  11  17
ENDBRANCH   7  11
ENDBRANCH   1   7
BRANCH   5  18
ATOM     18  N   UNL     1       1.788   7.637  21.337  0.00  0.00    +0.000 N 
ATOM     19  H   UNL     1       2.612   7.705  21.940  0.00  0.00    +0.000 HD
BRANCH  18  20
ATOM     20  C   UNL     1       2.196   7.351  19.975  0.00  0.00    +0.000 C 
BRANCH  20  21
ATOM     21  C   UNL     1       2.108   5.858  19.702  0.00  0.00    +0.000 A 
ATOM     22  C   UNL     1       1.264   5.097  20.541  0.00  0.00    +0.000 A 
ATOM     23  C   UNL     1       1.029   3.741  20.308  0.00  0.00    +0.000 A 
ATOM     24  C   UNL     1       1.642   3.124  19.232  0.00  0.00    +0.000 A 
ATOM     25  F   UNL     1       1.390   1.835  18.975  0.00  0.00    +0.000 F 
ATOM     26  C   UNL     1       2.518   3.828  18.418  0.00  0.00    +0.000 A 
ATOM     27  C   UNL     1       2.789   5.195  18.649  0.00  0.00    +0.000 A 
BRANCH  27  28
ATOM     28  C   UNL     1       3.821   5.827  17.744  0.00  0.00    +0.000 C 
ATOM     29  F   UNL     1       4.209   5.080  16.674  0.00  0.00    +0.000 F 
ATOM     30  F   UNL     1       3.386   7.011  17.222  0.00  0.00    +0.000 F 
ATOM     31  F   UNL     1       4.973   6.125  18.410  0.00  0.00    +0.000 F 
ENDBRANCH  27  28
ENDBRANCH  20  21
ENDBRANCH  18  20
ENDBRANCH   5  18
TORSDOF 7
ENDMDL
MODEL 8
REMARK VINA RESULT:      -8.8      4.667      8.336
REMARK  Name = 
REMARK  8 active torsions:
REMARK  status: ('A' for Active; 'I' for Inactive)
REMARK    1  A    between atoms: C_1  and  N_2
REMARK    2  A    between atoms: C_6  and  C_7
REMARK    3  A    between atoms: C_7  and  C_8
REMARK    4  A    between atoms: C_8  and  C_9
REMARK    5  A    between atoms: C_13  and  N_14
REMARK    6  A    between atoms: N_14  and  C_15
REMARK    7  A    between atoms: C_15  and  C_16
REMARK    8  A    between atoms: C_22  and  C_23
REMARK                            x       y       z     vdW  Elec       q    Type
REMARK                         _______ _______ _______ _____ _____    ______ ____
ROOT
ATOM      1  C   UNL     1      -0.475  10.514  20.382  0.00  0.00    +0.000 A 
ATOM      2  C   UNL     1      -0.901  10.940  21.649  0.00  0.00    +0.000 A 
ATOM      3  C   UNL     1      -0.447  10.314  22.814  0.00  0.00    +0.000 A 
ATOM      4  C   UNL     1       0.460   9.249  22.743  0.00  0.00    +0.000 A 
ATOM      5  C   UNL     1       0.935   8.813  21.510  0.00  0.00    +0.000 A 
ATOM      6  C   UNL     1       0.430   9.432  20.362  0.00  0.00    +0.000 A 
ENDROOT
BRANCH   1   7
ATOM      7  C   UNL     1      -0.967  11.169  19.005  0.00  0.00    +0.000 C 
ATOM      8  C   UNL     1      -0.761  10.381  17.685  0.00  0.00    +0.000 C 
ATOM      9  O   UNL     1      -2.182  10.296  17.437  0.00  0.00    +0.000 OA
ATOM     10  C   UNL     1      -2.478  10.953  18.681  0.00  0.00    +0.000 C 
BRANCH   7  11
ATOM     11  C   UNL     1      -0.605  12.665  18.972  0.00  0.00    +0.000 C 
BRANCH  11  17
ATOM     12  C   UNL     1       0.868  14.058  21.440  0.00  0.00    +0.000 C 
ATOM     13  N   UNL     1       1.446  13.614  20.199  0.00  0.00    +0.000 N 
ATOM     14  C   UNL     1       2.748  13.796  19.841  0.00  0.00    +0.000 A 
ATOM     15  N   UNL     1       2.959  13.266  18.661  0.00  0.00    +0.000 NA
ATOM     16  N   UNL     1       1.768  12.746  18.224  0.00  0.00    +0.000 NA
ATOM     17  C   UNL     1       0.847  12.971  19.141  0.00  0.00    +0.000 A 
ENDBRANCH  11  17
ENDBRANCH   7  11
ENDBRANCH   1   7
BRANCH   5  18
ATOM     18  N   UNL     1       1.794   7.731  21.298  0.00  0.00    +0.000 N 
ATOM     19  H   UNL     1       2.617   7.853  21.895  0.00  0.00    +0.000 HD
BRANCH  18  20
ATOM     20  C   UNL     1       2.207   7.389  19.951  0.00  0.00    +0.000 C 
BRANCH  20  21
ATOM     21  C   UNL     1       2.138   5.884  19.747  0.00  0.00    +0.000 A 
ATOM     22  C   UNL     1       1.312   5.150  20.628  0.00  0.00    +0.000 A 
ATOM     23  C   UNL     1       1.095   3.782  20.459  0.00  0.00    +0.000 A 
ATOM     24  C   UNL     1       1.706   3.125  19.406  0.00  0.00    +0.000 A 
ATOM     25  F   UNL     1       1.469   1.822  19.209  0.00  0.00    +0.000 F 
ATOM     26  C   UNL     1       2.564   3.803  18.552  0.00  0.00    +0.000 A 
ATOM     27  C   UNL     1       2.818   5.183  18.719  0.00  0.00    +0.000 A 
BRANCH  27  28
ATOM     28  C   UNL     1       3.833   5.787  17.775  0.00  0.00    +0.000 C 
ATOM     29  F   UNL     1       4.181   5.020  16.706  0.00  0.00    +0.000 F 
ATOM     30  F   UNL     1       3.399   6.969  17.247  0.00  0.00    +0.000 F 
ATOM     31  F   UNL     1       5.006   6.080  18.404  0.00  0.00    +0.000 F 
ENDBRANCH  27  28
ENDBRANCH  20  21
ENDBRANCH  18  20
ENDBRANCH   5  18
TORSDOF 7
ENDMDL
MODEL 9
REMARK VINA RESULT:      -8.8      3.600      5.534
REMARK  Name = 
REMARK  8 active torsions:
REMARK  status: ('A' for Active; 'I' for Inactive)
REMARK    1  A    between atoms: C_1  and  N_2
REMARK    2  A    between atoms: C_6  and  C_7
REMARK    3  A    between atoms: C_7  and  C_8
REMARK    4  A    between atoms: C_8  and  C_9
REMARK    5  A    between atoms: C_13  and  N_14
REMARK    6  A    between atoms: N_14  and  C_15
REMARK    7  A    between atoms: C_15  and  C_16
REMARK    8  A    between atoms: C_22  and  C_23
REMARK                            x       y       z     vdW  Elec       q    Type
REMARK                         _______ _______ _______ _____ _____    ______ ____
ROOT
ATOM      1  C   UNL     1       2.235   7.351  19.165  0.00  0.00    +0.000 A 
ATOM      2  C   UNL     1       1.919   7.318  20.531  0.00  0.00    +0.000 A 
ATOM      3  C   UNL     1       1.210   8.362  21.136  0.00  0.00    +0.000 A 
ATOM      4  C   UNL     1       0.787   9.464  20.383  0.00  0.00    +0.000 A 
ATOM      5  C   UNL     1       1.049   9.525  19.018  0.00  0.00    +0.000 A 
ATOM      6  C   UNL     1       1.795   8.486  18.451  0.00  0.00    +0.000 A 
ENDROOT
BRANCH   1   7
ATOM      7  C   UNL     1       3.059   6.203  18.409  0.00  0.00    +0.000 C 
ATOM      8  C   UNL     1       4.183   6.614  17.422  0.00  0.00    +0.000 C 
ATOM      9  O   UNL     1       5.205   5.969  18.213  0.00  0.00    +0.000 OA
ATOM     10  C   UNL     1       4.249   5.607  19.224  0.00  0.00    +0.000 C 
BRANCH   7  11
ATOM     11  C   UNL     1       2.105   5.092  17.935  0.00  0.00    +0.000 C 
BRANCH  11  17
ATOM     12  C   UNL     1       3.357   2.154  17.937  0.00  0.00    +0.000 C 
ATOM     13  N   UNL     1       2.405   2.712  18.861  0.00  0.00    +0.000 N 
ATOM     14  C   UNL     1       1.811   2.021  19.873  0.00  0.00    +0.000 A 
ATOM     15  N   UNL     1       1.008   2.816  20.538  0.00  0.00    +0.000 NA
ATOM     16  N   UNL     1       1.057   4.048  19.937  0.00  0.00    +0.000 NA
ATOM     17  C   UNL     1       1.885   3.984  18.912  0.00  0.00    +0.000 A 
ENDBRANCH  11  17
ENDBRANCH   7  11
ENDBRANCH   1   7
BRANCH   5  18
ATOM     18  N   UNL     1       0.733  10.588  18.168  0.00  0.00    +0.000 N 
ATOM     19  H   UNL     1       1.593  10.899  17.709  0.00  0.00    +0.000 HD
BRANCH  18  20
ATOM     20  C   UNL     1       0.006  11.733  18.682  0.00  0.00    +0.000 C 
BRANCH  20  21
ATOM     21  C   UNL     1      -1.482  11.576  18.411  0.00  0.00    +0.000 A 
ATOM     22  C   UNL     1      -1.855  10.809  17.285  0.00  0.00    +0.000 A 
ATOM     23  C   UNL     1      -3.191  10.515  17.010  0.00  0.00    +0.000 A 
ATOM     24  C   UNL     1      -4.176  10.989  17.858  0.00  0.00    +0.000 A 
ATOM     25  F   UNL     1      -5.457  10.675  17.627  0.00  0.00    +0.000 F 
ATOM     26  C   UNL     1      -3.850  11.788  18.944  0.00  0.00    +0.000 A 
ATOM     27  C   UNL     1      -2.506  12.119  19.227  0.00  0.00    +0.000 A 
BRANCH  27  28
ATOM     28  C   UNL     1      -2.288  13.063  20.389  0.00  0.00    +0.000 C 
ATOM     29  F   UNL     1      -1.610  14.208  20.105  0.00  0.00    +0.000 F 
ATOM     30  F   UNL     1      -3.468  13.468  20.945  0.00  0.00    +0.000 F 
ATOM     31  F   UNL     1      -1.592  12.475  21.403  0.00  0.00    +0.000 F 
ENDBRANCH  27  28
ENDBRANCH  20  21
ENDBRANCH  18  20
ENDBRANCH   5  18
TORSDOF 7
ENDMDL
