MODEL 1
REMARK VINA RESULT:      -7.6      0.000      0.000
REMARK  Name = 
REMARK  7 active torsions:
REMARK  status: ('A' for Active; 'I' for Inactive)
REMARK    1  A    between atoms: C_1  and  C_2
REMARK    2  A    between atoms: C_6  and  N_7
REMARK    3  A    between atoms: C_12  and  C_13
REMARK    4  A    between atoms: C_13  and  C_14
REMARK    5  A    between atoms: C_13  and  N_15
REMARK    6  A    between atoms: C_18  and  C_19
REMARK    7  A    between atoms: C_22  and  C_23
REMARK                            x       y       z     vdW  Elec       q    Type
REMARK                         _______ _______ _______ _____ _____    ______ ____
ROOT
ATOM      1  N   UNL     1      -0.200  11.910  18.876  0.00  0.00    +0.000 N 
ATOM      2  C   UNL     1       0.571  11.189  19.917  0.00  0.00    +0.000 C 
ATOM      3  C   UNL     1      -0.116  11.631  21.171  0.00  0.00    +0.000 A 
ATOM      4  C   UNL     1      -0.649  12.899  20.921  0.00  0.00    +0.000 A 
ATOM      5  C   UNL     1      -1.514  13.546  21.777  0.00  0.00    +0.000 A 
ATOM      6  C   UNL     1      -1.888  12.895  22.960  0.00  0.00    +0.000 A 
ATOM      7  C   UNL     1      -1.361  11.602  23.219  0.00  0.00    +0.000 A 
ATOM      8  C   UNL     1      -0.475  10.945  22.326  0.00  0.00    +0.000 A 
ATOM      9  C   UNL     1      -0.559  13.145  19.465  0.00  0.00    +0.000 C 
ATOM     10  O   UNL     1      -0.939  14.163  18.926  0.00  0.00    +0.000 OA
ENDROOT
BRANCH   1  16
ATOM     11  C   UNL     1      -4.960  11.861  17.711  0.00  0.00    +0.000 C 
ATOM     12  C   UNL     1      -3.596  11.249  17.626  0.00  0.00    +0.000 A 
ATOM     13  C   UNL     1      -3.290  10.331  16.612  0.00  0.00    +0.000 A 
ATOM     14  C   UNL     1      -2.055   9.692  16.592  0.00  0.00    +0.000 A 
ATOM     15  C   UNL     1      -1.088  10.025  17.536  0.00  0.00    +0.000 A 
ATOM     16  C   UNL     1      -1.313  11.090  18.424  0.00  0.00    +0.000 A 
ATOM     17  C   UNL     1      -2.605  11.609  18.547  0.00  0.00    +0.000 A 
ENDBRANCH   1  16
BRANCH   8  18
ATOM     18  C   UNL     1      -0.061   9.518  22.595  0.00  0.00    +0.000 C 
ATOM     19  F   UNL     1       1.254   9.258  22.341  0.00  0.00    +0.000 F 
ATOM     20  F   UNL     1      -0.253   9.155  23.893  0.00  0.00    +0.000 F 
ATOM     21  F   UNL     1      -0.761   8.622  21.849  0.00  0.00    +0.000 F 
ENDBRANCH   8  18
BRANCH   6  22
ATOM     22  C   UNL     1      -2.917  13.525  23.915  0.00  0.00    +0.000 C 
ATOM     23  C   UNL     1      -2.514  14.965  24.304  0.00  0.00    +0.000 C 
BRANCH  22  24
ATOM     24  N   UNL     1      -4.310  13.391  23.431  0.00  0.00    +0.000 NA
ATOM     25  C   UNL     1      -5.002  14.635  23.091  0.00  0.00    +0.000 C 
ATOM     26  C   UNL     1      -6.378  14.589  23.740  0.00  0.00    +0.000 C 
ATOM     27  C   UNL     1      -6.586  13.152  24.187  0.00  0.00    +0.000 C 
ATOM     28  C   UNL     1      -7.447  12.354  23.214  0.00  0.00    +0.000 C 
ATOM     29  C   UNL     1      -5.170  12.597  24.319  0.00  0.00    +0.000 C 
ENDBRANCH  22  24
ENDBRANCH   6  22
TORSDOF 4
ENDMDL
MODEL 2
REMARK VINA RESULT:      -7.5      9.085     11.434
REMARK  Name = 
REMARK  7 active torsions:
REMARK  status: ('A' for Active; 'I' for Inactive)
REMARK    1  A    between atoms: C_1  and  C_2
REMARK    2  A    between atoms: C_6  and  N_7
REMARK    3  A    between atoms: C_12  and  C_13
REMARK    4  A    between atoms: C_13  and  C_14
REMARK    5  A    between atoms: C_13  and  N_15
REMARK    6  A    between atoms: C_18  and  C_19
REMARK    7  A    between atoms: C_22  and  C_23
REMARK                            x       y       z     vdW  Elec       q    Type
REMARK                         _______ _______ _______ _____ _____    ______ ____
ROOT
ATOM      1  N   UNL     1       6.331   5.933  15.469  0.00  0.00    +0.000 N 
ATOM      2  C   UNL     1       5.089   6.666  15.812  0.00  0.00    +0.000 C 
ATOM      3  C   UNL     1       4.273   5.600  16.472  0.00  0.00    +0.000 A 
ATOM      4  C   UNL     1       4.677   4.378  15.926  0.00  0.00    +0.000 A 
ATOM      5  C   UNL     1       4.285   3.153  16.423  0.00  0.00    +0.000 A 
ATOM      6  C   UNL     1       3.443   3.128  17.541  0.00  0.00    +0.000 A 
ATOM      7  C   UNL     1       3.034   4.364  18.110  0.00  0.00    +0.000 A 
ATOM      8  C   UNL     1       3.450   5.618  17.592  0.00  0.00    +0.000 A 
ATOM      9  C   UNL     1       5.913   4.620  15.150  0.00  0.00    +0.000 C 
ATOM     10  O   UNL     1       6.516   3.755  14.550  0.00  0.00    +0.000 OA
ENDROOT
BRANCH   1  16
ATOM     11  C   UNL     1       8.508   8.953  18.656  0.00  0.00    +0.000 C 
ATOM     12  C   UNL     1       8.092   7.573  18.253  0.00  0.00    +0.000 A 
ATOM     13  C   UNL     1       8.026   6.543  19.201  0.00  0.00    +0.000 A 
ATOM     14  C   UNL     1       7.732   5.242  18.807  0.00  0.00    +0.000 A 
ATOM     15  C   UNL     1       7.424   4.975  17.476  0.00  0.00    +0.000 A 
ATOM     16  C   UNL     1       7.285   6.034  16.563  0.00  0.00    +0.000 A 
ATOM     17  C   UNL     1       7.740   7.305  16.924  0.00  0.00    +0.000 A 
ENDBRANCH   1  16
BRANCH   8  18
ATOM     18  C   UNL     1       3.091   6.889  18.326  0.00  0.00    +0.000 C 
ATOM     19  F   UNL     1       2.912   6.730  19.669  0.00  0.00    +0.000 F 
ATOM     20  F   UNL     1       4.048   7.850  18.203  0.00  0.00    +0.000 F 
ATOM     21  F   UNL     1       1.938   7.448  17.868  0.00  0.00    +0.000 F 
ENDBRANCH   8  18
BRANCH   6  22
ATOM     22  C   UNL     1       3.039   1.796  18.195  0.00  0.00    +0.000 C 
ATOM     23  C   UNL     1       4.274   0.910  18.472  0.00  0.00    +0.000 C 
BRANCH  22  24
ATOM     24  N   UNL     1       2.143   1.975  19.360  0.00  0.00    +0.000 NA
ATOM     25  C   UNL     1       0.903   2.715  19.118  0.00  0.00    +0.000 C 
ATOM     26  C   UNL     1       0.757   3.746  20.229  0.00  0.00    +0.000 C 
ATOM     27  C   UNL     1       1.769   3.363  21.295  0.00  0.00    +0.000 C 
ATOM     28  C   UNL     1       1.140   2.598  22.453  0.00  0.00    +0.000 C 
ATOM     29  C   UNL     1       2.811   2.543  20.539  0.00  0.00    +0.000 C 
ENDBRANCH  22  24
ENDBRANCH   6  22
TORSDOF 4
ENDMDL
MODEL 3
REMARK VINA RESULT:      -7.5      1.073      1.533
REMARK  Name = 
REMARK  7 active torsions:
REMARK  status: ('A' for Active; 'I' for Inactive)
REMARK    1  A    between atoms: C_1  and  C_2
REMARK    2  A    between atoms: C_6  and  N_7
REMARK    3  A    between atoms: C_12  and  C_13
REMARK    4  A    between atoms: C_13  and  C_14
REMARK    5  A    between atoms: C_13  and  N_15
REMARK    6  A    between atoms: C_18  and  C_19
REMARK    7  A    between atoms: C_22  and  C_23
REMARK                            x       y       z     vdW  Elec       q    Type
REMARK                         _______ _______ _______ _____ _____    ______ ____
ROOT
ATOM      1  N   UNL     1      -0.194  11.577  18.513  0.00  0.00    +0.000 N 
ATOM      2  C   UNL     1       0.569  10.777  19.500  0.00  0.00    +0.000 C 
ATOM      3  C   UNL     1       0.111  11.369  20.796  0.00  0.00    +0.000 A 
ATOM      4  C   UNL     1      -0.239  12.698  20.539  0.00  0.00    +0.000 A 
ATOM      5  C   UNL     1      -0.885  13.507  21.448  0.00  0.00    +0.000 A 
ATOM      6  C   UNL     1      -1.217  12.969  22.698  0.00  0.00    +0.000 A 
ATOM      7  C   UNL     1      -0.875  11.617  22.966  0.00  0.00    +0.000 A 
ATOM      8  C   UNL     1      -0.215  10.793  22.019  0.00  0.00    +0.000 A 
ATOM      9  C   UNL     1      -0.281  12.874  19.070  0.00  0.00    +0.000 C 
ATOM     10  O   UNL     1      -0.555  13.921  18.521  0.00  0.00    +0.000 OA
ENDROOT
BRANCH   1  16
ATOM     11  C   UNL     1      -5.042  12.210  18.179  0.00  0.00    +0.000 C 
ATOM     12  C   UNL     1      -3.809  11.433  17.840  0.00  0.00    +0.000 A 
ATOM     13  C   UNL     1      -3.802  10.542  16.758  0.00  0.00    +0.000 A 
ATOM     14  C   UNL     1      -2.687   9.752  16.505  0.00  0.00    +0.000 A 
ATOM     15  C   UNL     1      -1.541   9.902  17.280  0.00  0.00    +0.000 A 
ATOM     16  C   UNL     1      -1.469  10.935  18.230  0.00  0.00    +0.000 A 
ATOM     17  C   UNL     1      -2.638  11.609  18.590  0.00  0.00    +0.000 A 
ENDBRANCH   1  16
BRANCH   8  18
ATOM     18  C   UNL     1      -0.003   9.327  22.317  0.00  0.00    +0.000 C 
ATOM     19  F   UNL     1      -0.772   8.485  21.568  0.00  0.00    +0.000 F 
ATOM     20  F   UNL     1       1.280   8.931  22.097  0.00  0.00    +0.000 F 
ATOM     21  F   UNL     1      -0.274   9.015  23.613  0.00  0.00    +0.000 F 
ENDBRANCH   8  18
BRANCH   6  22
ATOM     22  C   UNL     1      -2.014  13.792  23.725  0.00  0.00    +0.000 C 
ATOM     23  C   UNL     1      -1.335  15.152  24.003  0.00  0.00    +0.000 C 
BRANCH  22  24
ATOM     24  N   UNL     1      -3.454  13.886  23.394  0.00  0.00    +0.000 NA
ATOM     25  C   UNL     1      -4.110  12.640  22.991  0.00  0.00    +0.000 C 
ATOM     26  C   UNL     1      -4.921  12.932  21.736  0.00  0.00    +0.000 C 
ATOM     27  C   UNL     1      -4.980  14.446  21.614  0.00  0.00    +0.000 C 
ATOM     28  C   UNL     1      -6.293  15.024  22.127  0.00  0.00    +0.000 C 
ATOM     29  C   UNL     1      -3.768  14.928  22.408  0.00  0.00    +0.000 C 
ENDBRANCH  22  24
ENDBRANCH   6  22
TORSDOF 4
ENDMDL
MODEL 4
REMARK VINA RESULT:      -7.3      7.301      9.623
REMARK  Name = 
REMARK  7 active torsions:
REMARK  status: ('A' for Active; 'I' for Inactive)
REMARK    1  A    between atoms: C_1  and  C_2
REMARK    2  A    between atoms: C_6  and  N_7
REMARK    3  A    between atoms: C_12  and  C_13
REMARK    4  A    between atoms: C_13  and  C_14
REMARK    5  A    between atoms: C_13  and  N_15
REMARK    6  A    between atoms: C_18  and  C_19
REMARK    7  A    between atoms: C_22  and  C_23
REMARK                            x       y       z     vdW  Elec       q    Type
REMARK                         _______ _______ _______ _____ _____    ______ ____
ROOT
ATOM      1  N   UNL     1       6.370   4.888  17.084  0.00  0.00    +0.000 N 
ATOM      2  C   UNL     1       5.368   4.040  17.773  0.00  0.00    +0.000 C 
ATOM      3  C   UNL     1       4.292   5.030  18.089  0.00  0.00    +0.000 A 
ATOM      4  C   UNL     1       4.909   6.277  18.222  0.00  0.00    +0.000 A 
ATOM      5  C   UNL     1       4.217   7.465  18.325  0.00  0.00    +0.000 A 
ATOM      6  C   UNL     1       2.817   7.423  18.287  0.00  0.00    +0.000 A 
ATOM      7  C   UNL     1       2.180   6.162  18.142  0.00  0.00    +0.000 A 
ATOM      8  C   UNL     1       2.905   4.948  18.032  0.00  0.00    +0.000 A 
ATOM      9  C   UNL     1       6.295   6.148  17.722  0.00  0.00    +0.000 C 
ATOM     10  O   UNL     1       7.096   7.059  17.703  0.00  0.00    +0.000 OA
ENDROOT
BRANCH   1  16
ATOM     11  C   UNL     1       8.313   5.600  12.642  0.00  0.00    +0.000 C 
ATOM     12  C   UNL     1       7.245   5.016  13.513  0.00  0.00    +0.000 A 
ATOM     13  C   UNL     1       6.432   3.975  13.043  0.00  0.00    +0.000 A 
ATOM     14  C   UNL     1       5.379   3.501  13.817  0.00  0.00    +0.000 A 
ATOM     15  C   UNL     1       5.179   4.007  15.098  0.00  0.00    +0.000 A 
ATOM     16  C   UNL     1       6.112   4.900  15.652  0.00  0.00    +0.000 A 
ATOM     17  C   UNL     1       7.063   5.492  14.818  0.00  0.00    +0.000 A 
ENDBRANCH   1  16
BRANCH   8  18
ATOM     18  C   UNL     1       2.171   3.659  17.743  0.00  0.00    +0.000 C 
ATOM     19  F   UNL     1       2.453   3.113  16.525  0.00  0.00    +0.000 F 
ATOM     20  F   UNL     1       2.458   2.683  18.648  0.00  0.00    +0.000 F 
ATOM     21  F   UNL     1       0.820   3.811  17.772  0.00  0.00    +0.000 F 
ENDBRANCH   8  18
BRANCH   6  22
ATOM     22  C   UNL     1       1.988   8.719  18.310  0.00  0.00    +0.000 C 
ATOM     23  C   UNL     1       0.812   8.651  17.311  0.00  0.00    +0.000 C 
BRANCH  22  24
ATOM     24  N   UNL     1       1.604   9.132  19.679  0.00  0.00    +0.000 NA
ATOM     25  C   UNL     1       1.531   8.068  20.682  0.00  0.00    +0.000 C 
ATOM     26  C   UNL     1       0.221   8.236  21.439  0.00  0.00    +0.000 C 
ATOM     27  C   UNL     1      -0.305   9.614  21.070  0.00  0.00    +0.000 C 
ATOM     28  C   UNL     1      -0.004  10.660  22.136  0.00  0.00    +0.000 C 
ATOM     29  C   UNL     1       0.365   9.919  19.733  0.00  0.00    +0.000 C 
ENDBRANCH  22  24
ENDBRANCH   6  22
TORSDOF 4
ENDMDL
MODEL 5
REMARK VINA RESULT:      -7.3      3.761      5.951
REMARK  Name = 
REMARK  7 active torsions:
REMARK  status: ('A' for Active; 'I' for Inactive)
REMARK    1  A    between atoms: C_1  and  C_2
REMARK    2  A    between atoms: C_6  and  N_7
REMARK    3  A    between atoms: C_12  and  C_13
REMARK    4  A    between atoms: C_13  and  C_14
REMARK    5  A    between atoms: C_13  and  N_15
REMARK    6  A    between atoms: C_18  and  C_19
REMARK    7  A    between atoms: C_22  and  C_23
REMARK                            x       y       z     vdW  Elec       q    Type
REMARK                         _______ _______ _______ _____ _____    ______ ____
ROOT
ATOM      1  N   UNL     1       2.618   7.602  19.280  0.00  0.00    +0.000 N 
ATOM      2  C   UNL     1       2.299   8.365  20.511  0.00  0.00    +0.000 C 
ATOM      3  C   UNL     1       1.119   9.176  20.073  0.00  0.00    +0.000 A 
ATOM      4  C   UNL     1       1.247   9.375  18.696  0.00  0.00    +0.000 A 
ATOM      5  C   UNL     1       0.254   9.914  17.907  0.00  0.00    +0.000 A 
ATOM      6  C   UNL     1      -0.954  10.277  18.516  0.00  0.00    +0.000 A 
ATOM      7  C   UNL     1      -1.098  10.071  19.913  0.00  0.00    +0.000 A 
ATOM      8  C   UNL     1      -0.069   9.509  20.713  0.00  0.00    +0.000 A 
ATOM      9  C   UNL     1       2.318   8.477  18.210  0.00  0.00    +0.000 C 
ATOM     10  O   UNL     1       2.674   8.411  17.051  0.00  0.00    +0.000 OA
ENDROOT
BRANCH   1  16
ATOM     11  C   UNL     1       2.286   3.149  17.262  0.00  0.00    +0.000 C 
ATOM     12  C   UNL     1       1.996   4.086  18.392  0.00  0.00    +0.000 A 
ATOM     13  C   UNL     1       1.646   3.592  19.656  0.00  0.00    +0.000 A 
ATOM     14  C   UNL     1       1.284   4.464  20.677  0.00  0.00    +0.000 A 
ATOM     15  C   UNL     1       1.345   5.838  20.467  0.00  0.00    +0.000 A 
ATOM     16  C   UNL     1       1.891   6.342  19.274  0.00  0.00    +0.000 A 
ATOM     17  C   UNL     1       2.096   5.470  18.201  0.00  0.00    +0.000 A 
ENDBRANCH   1  16
BRANCH   8  18
ATOM     18  C   UNL     1      -0.337   9.190  22.165  0.00  0.00    +0.000 C 
ATOM     19  F   UNL     1       0.781   9.147  22.945  0.00  0.00    +0.000 F 
ATOM     20  F   UNL     1      -1.151  10.106  22.758  0.00  0.00    +0.000 F 
ATOM     21  F   UNL     1      -0.946   7.985  22.331  0.00  0.00    +0.000 F 
ENDBRANCH   8  18
BRANCH   6  22
ATOM     22  C   UNL     1      -2.133  10.804  17.678  0.00  0.00    +0.000 C 
ATOM     23  C   UNL     1      -2.269  10.027  16.350  0.00  0.00    +0.000 C 
BRANCH  22  24
ATOM     24  N   UNL     1      -3.389  10.911  18.456  0.00  0.00    +0.000 NA
ATOM     25  C   UNL     1      -4.609  10.463  17.782  0.00  0.00    +0.000 C 
ATOM     26  C   UNL     1      -5.670  11.535  17.991  0.00  0.00    +0.000 C 
ATOM     27  C   UNL     1      -5.133  12.454  19.076  0.00  0.00    +0.000 C 
ATOM     28  C   UNL     1      -5.725  12.151  20.447  0.00  0.00    +0.000 C 
ATOM     29  C   UNL     1      -3.622  12.246  19.022  0.00  0.00    +0.000 C 
ENDBRANCH  22  24
ENDBRANCH   6  22
TORSDOF 4
ENDMDL
MODEL 6
REMARK VINA RESULT:      -7.2      9.351     13.415
REMARK  Name = 
REMARK  7 active torsions:
REMARK  status: ('A' for Active; 'I' for Inactive)
REMARK    1  A    between atoms: C_1  and  C_2
REMARK    2  A    between atoms: C_6  and  N_7
REMARK    3  A    between atoms: C_12  and  C_13
REMARK    4  A    between atoms: C_13  and  C_14
REMARK    5  A    between atoms: C_13  and  N_15
REMARK    6  A    between atoms: C_18  and  C_19
REMARK    7  A    between atoms: C_22  and  C_23
REMARK                            x       y       z     vdW  Elec       q    Type
REMARK                         _______ _______ _______ _____ _____    ______ ____
ROOT
ATOM      1  N   UNL     1       4.281   4.290  18.804  0.00  0.00    +0.000 N 
ATOM      2  C   UNL     1       5.639   4.856  18.986  0.00  0.00    +0.000 C 
ATOM      3  C   UNL     1       6.161   4.864  17.584  0.00  0.00    +0.000 A 
ATOM      4  C   UNL     1       5.518   3.828  16.901  0.00  0.00    +0.000 A 
ATOM      5  C   UNL     1       5.598   3.646  15.538  0.00  0.00    +0.000 A 
ATOM      6  C   UNL     1       6.360   4.553  14.790  0.00  0.00    +0.000 A 
ATOM      7  C   UNL     1       7.010   5.616  15.472  0.00  0.00    +0.000 A 
ATOM      8  C   UNL     1       6.914   5.795  16.877  0.00  0.00    +0.000 A 
ATOM      9  C   UNL     1       4.406   3.351  17.754  0.00  0.00    +0.000 C 
ATOM     10  O   UNL     1       3.652   2.452  17.443  0.00  0.00    +0.000 OA
ENDROOT
BRANCH   1  16
ATOM     11  C   UNL     1       1.423   7.671  20.905  0.00  0.00    +0.000 C 
ATOM     12  C   UNL     1       2.161   7.158  19.708  0.00  0.00    +0.000 A 
ATOM     13  C   UNL     1       2.467   8.011  18.640  0.00  0.00    +0.000 A 
ATOM     14  C   UNL     1       3.067   7.511  17.489  0.00  0.00    +0.000 A 
ATOM     15  C   UNL     1       3.438   6.171  17.429  0.00  0.00    +0.000 A 
ATOM     16  C   UNL     1       3.324   5.361  18.571  0.00  0.00    +0.000 A 
ATOM     17  C   UNL     1       2.575   5.821  19.658  0.00  0.00    +0.000 A 
ENDBRANCH   1  16
BRANCH   8  18
ATOM     18  C   UNL     1       7.516   7.022  17.520  0.00  0.00    +0.000 C 
ATOM     19  F   UNL     1       8.356   7.726  16.708  0.00  0.00    +0.000 F 
ATOM     20  F   UNL     1       6.571   7.917  17.919  0.00  0.00    +0.000 F 
ATOM     21  F   UNL     1       8.243   6.725  18.630  0.00  0.00    +0.000 F 
ENDBRANCH   8  18
BRANCH   6  22
ATOM     22  C   UNL     1       6.420   4.457  13.256  0.00  0.00    +0.000 C 
ATOM     23  C   UNL     1       7.433   5.464  12.669  0.00  0.00    +0.000 C 
BRANCH  22  24
ATOM     24  N   UNL     1       6.591   3.067  12.773  0.00  0.00    +0.000 NA
ATOM     25  C   UNL     1       7.808   2.792  12.007  0.00  0.00    +0.000 C 
ATOM     26  C   UNL     1       7.403   2.016  10.761  0.00  0.00    +0.000 C 
ATOM     27  C   UNL     1       5.969   1.568  10.991  0.00  0.00    +0.000 C 
ATOM     28  C   UNL     1       5.875   0.118  11.451  0.00  0.00    +0.000 C 
ATOM     29  C   UNL     1       5.435   2.554  12.026  0.00  0.00    +0.000 C 
ENDBRANCH  22  24
ENDBRANCH   6  22
TORSDOF 4
ENDMDL
MODEL 7
REMARK VINA RESULT:      -7.0      1.611      3.092
REMARK  Name = 
REMARK  7 active torsions:
REMARK  status: ('A' for Active; 'I' for Inactive)
REMARK    1  A    between atoms: C_1  and  C_2
REMARK    2  A    between atoms: C_6  and  N_7
REMARK    3  A    between atoms: C_12  and  C_13
REMARK    4  A    between atoms: C_13  and  C_14
REMARK    5  A    between atoms: C_13  and  N_15
REMARK    6  A    between atoms: C_18  and  C_19
REMARK    7  A    between atoms: C_22  and  C_23
REMARK                            x       y       z     vdW  Elec       q    Type
REMARK                         _______ _______ _______ _____ _____    ______ ____
ROOT
ATOM      1  N   UNL     1      -0.099  11.519  18.543  0.00  0.00    +0.000 N 
ATOM      2  C   UNL     1       0.620  10.791  19.615  0.00  0.00    +0.000 C 
ATOM      3  C   UNL     1       0.136  11.496  20.844  0.00  0.00    +0.000 A 
ATOM      4  C   UNL     1      -0.182  12.804  20.468  0.00  0.00    +0.000 A 
ATOM      5  C   UNL     1      -0.839  13.696  21.288  0.00  0.00    +0.000 A 
ATOM      6  C   UNL     1      -1.217  13.268  22.567  0.00  0.00    +0.000 A 
ATOM      7  C   UNL     1      -0.907  11.937  22.956  0.00  0.00    +0.000 A 
ATOM      8  C   UNL     1      -0.235  11.027  22.099  0.00  0.00    +0.000 A 
ATOM      9  C   UNL     1      -0.179  12.859  18.989  0.00  0.00    +0.000 C 
ATOM     10  O   UNL     1      -0.418  13.861  18.348  0.00  0.00    +0.000 OA
ENDROOT
BRANCH   1  16
ATOM     11  C   UNL     1      -4.966  12.093  18.467  0.00  0.00    +0.000 C 
ATOM     12  C   UNL     1      -3.738  11.360  18.023  0.00  0.00    +0.000 A 
ATOM     13  C   UNL     1      -3.769  10.542  16.886  0.00  0.00    +0.000 A 
ATOM     14  C   UNL     1      -2.656   9.787  16.532  0.00  0.00    +0.000 A 
ATOM     15  C   UNL     1      -1.478   9.906  17.264  0.00  0.00    +0.000 A 
ATOM     16  C   UNL     1      -1.377  10.876  18.275  0.00  0.00    +0.000 A 
ATOM     17  C   UNL     1      -2.538  11.506  18.730  0.00  0.00    +0.000 A 
ENDBRANCH   1  16
BRANCH   8  18
ATOM     18  C   UNL     1      -0.059   9.588  22.523  0.00  0.00    +0.000 C 
ATOM     19  F   UNL     1      -0.801   8.697  21.805  0.00  0.00    +0.000 F 
ATOM     20  F   UNL     1       1.229   9.163  22.401  0.00  0.00    +0.000 F 
ATOM     21  F   UNL     1      -0.399   9.383  23.824  0.00  0.00    +0.000 F 
ENDBRANCH   8  18
BRANCH   6  22
ATOM     22  C   UNL     1      -2.027  14.186  23.498  0.00  0.00    +0.000 C 
ATOM     23  C   UNL     1      -3.190  13.420  24.168  0.00  0.00    +0.000 C 
BRANCH  22  24
ATOM     24  N   UNL     1      -1.175  14.948  24.439  0.00  0.00    +0.000 NA
ATOM     25  C   UNL     1      -1.776  15.285  25.731  0.00  0.00    +0.000 C 
ATOM     26  C   UNL     1      -1.499  16.758  25.997  0.00  0.00    +0.000 C 
ATOM     27  C   UNL     1      -0.446  17.180  24.986  0.00  0.00    +0.000 C 
ATOM     28  C   UNL     1       0.957  17.209  25.579  0.00  0.00    +0.000 C 
ATOM     29  C   UNL     1      -0.592  16.164  23.856  0.00  0.00    +0.000 C 
ENDBRANCH  22  24
ENDBRANCH   6  22
TORSDOF 4
ENDMDL
MODEL 8
REMARK VINA RESULT:      -6.9      1.524      2.569
REMARK  Name = 
REMARK  7 active torsions:
REMARK  status: ('A' for Active; 'I' for Inactive)
REMARK    1  A    between atoms: C_1  and  C_2
REMARK    2  A    between atoms: C_6  and  N_7
REMARK    3  A    between atoms: C_12  and  C_13
REMARK    4  A    between atoms: C_13  and  C_14
REMARK    5  A    between atoms: C_13  and  N_15
REMARK    6  A    between atoms: C_18  and  C_19
REMARK    7  A    between atoms: C_22  and  C_23
REMARK                            x       y       z     vdW  Elec       q    Type
REMARK                         _______ _______ _______ _____ _____    ______ ____
ROOT
ATOM      1  N   UNL     1       0.876  12.998  19.860  0.00  0.00    +0.000 N 
ATOM      2  C   UNL     1       1.222  12.194  21.057  0.00  0.00    +0.000 C 
ATOM      3  C   UNL     1      -0.059  12.223  21.829  0.00  0.00    +0.000 A 
ATOM      4  C   UNL     1      -0.713  13.412  21.494  0.00  0.00    +0.000 A 
ATOM      5  C   UNL     1      -2.010  13.700  21.860  0.00  0.00    +0.000 A 
ATOM      6  C   UNL     1      -2.717  12.747  22.604  0.00  0.00    +0.000 A 
ATOM      7  C   UNL     1      -2.065  11.531  22.943  0.00  0.00    +0.000 A 
ATOM      8  C   UNL     1      -0.731  11.245  22.554  0.00  0.00    +0.000 A 
ATOM      9  C   UNL     1      -0.016  13.993  20.324  0.00  0.00    +0.000 C 
ATOM     10  O   UNL     1      -0.342  15.032  19.789  0.00  0.00    +0.000 OA
ENDROOT
BRANCH   1  16
ATOM     11  C   UNL     1       1.196   8.594  17.735  0.00  0.00    +0.000 C 
ATOM     12  C   UNL     1       0.422   9.842  18.024  0.00  0.00    +0.000 A 
ATOM     13  C   UNL     1      -0.969   9.871  17.865  0.00  0.00    +0.000 A 
ATOM     14  C   UNL     1      -1.673  11.057  18.040  0.00  0.00    +0.000 A 
ATOM     15  C   UNL     1      -1.004  12.205  18.453  0.00  0.00    +0.000 A 
ATOM     16  C   UNL     1       0.353  12.133  18.814  0.00  0.00    +0.000 A 
ATOM     17  C   UNL     1       1.084  10.990  18.480  0.00  0.00    +0.000 A 
ENDBRANCH   1  16
BRANCH   8  18
ATOM     18  C   UNL     1      -0.145   9.880  22.828  0.00  0.00    +0.000 C 
ATOM     19  F   UNL     1      -0.734   8.866  22.131  0.00  0.00    +0.000 F 
ATOM     20  F   UNL     1       1.178   9.808  22.516  0.00  0.00    +0.000 F 
ATOM     21  F   UNL     1      -0.240   9.525  24.138  0.00  0.00    +0.000 F 
ENDBRANCH   8  18
BRANCH   6  22
ATOM     22  C   UNL     1      -4.194  12.969  22.971  0.00  0.00    +0.000 C 
ATOM     23  C   UNL     1      -4.509  14.471  23.147  0.00  0.00    +0.000 C 
BRANCH  22  24
ATOM     24  N   UNL     1      -5.125  12.252  22.070  0.00  0.00    +0.000 NA
ATOM     25  C   UNL     1      -5.031  12.577  20.646  0.00  0.00    +0.000 C 
ATOM     26  C   UNL     1      -6.444  12.813  20.132  0.00  0.00    +0.000 C 
ATOM     27  C   UNL     1      -7.378  12.296  21.214  0.00  0.00    +0.000 C 
ATOM     28  C   UNL     1      -7.917  10.904  20.907  0.00  0.00    +0.000 C 
ATOM     29  C   UNL     1      -6.533  12.339  22.484  0.00  0.00    +0.000 C 
ENDBRANCH  22  24
ENDBRANCH   6  22
TORSDOF 4
ENDMDL
MODEL 9
REMARK VINA RESULT:      -6.9      2.942      4.853
REMARK  Name = 
REMARK  7 active torsions:
REMARK  status: ('A' for Active; 'I' for Inactive)
REMARK    1  A    between atoms: C_1  and  C_2
REMARK    2  A    between atoms: C_6  and  N_7
REMARK    3  A    between atoms: C_12  and  C_13
REMARK    4  A    between atoms: C_13  and  C_14
REMARK    5  A    between atoms: C_13  and  N_15
REMARK    6  A    between atoms: C_18  and  C_19
REMARK    7  A    between atoms: C_22  and  C_23
REMARK                            x       y       z     vdW  Elec       q    Type
REMARK                         _______ _______ _______ _____ _____    ______ ____
ROOT
ATOM      1  N   UNL     1      -0.252  10.162  19.238  0.00  0.00    +0.000 N 
ATOM      2  C   UNL     1      -0.611  10.215  20.676  0.00  0.00    +0.000 C 
ATOM      3  C   UNL     1      -0.009  11.518  21.096  0.00  0.00    +0.000 A 
ATOM      4  C   UNL     1       1.085  11.753  20.259  0.00  0.00    +0.000 A 
ATOM      5  C   UNL     1       1.774  12.947  20.219  0.00  0.00    +0.000 A 
ATOM      6  C   UNL     1       1.351  13.986  21.057  0.00  0.00    +0.000 A 
ATOM      7  C   UNL     1       0.234  13.761  21.906  0.00  0.00    +0.000 A 
ATOM      8  C   UNL     1      -0.469  12.529  21.933  0.00  0.00    +0.000 A 
ATOM      9  C   UNL     1       1.017  10.779  19.148  0.00  0.00    +0.000 C 
ATOM     10  O   UNL     1       1.828  10.721  18.247  0.00  0.00    +0.000 OA
ENDROOT
BRANCH   1  16
ATOM     11  C   UNL     1      -3.068   9.731  15.250  0.00  0.00    +0.000 C 
ATOM     12  C   UNL     1      -2.811  10.326  16.599  0.00  0.00    +0.000 A 
ATOM     13  C   UNL     1      -3.855  10.907  17.332  0.00  0.00    +0.000 A 
ATOM     14  C   UNL     1      -3.596  11.544  18.541  0.00  0.00    +0.000 A 
ATOM     15  C   UNL     1      -2.307  11.536  19.065  0.00  0.00    +0.000 A 
ATOM     16  C   UNL     1      -1.302  10.779  18.441  0.00  0.00    +0.000 A 
ATOM     17  C   UNL     1      -1.525  10.285  17.153  0.00  0.00    +0.000 A 
ENDBRANCH   1  16
BRANCH   8  18
ATOM     18  C   UNL     1      -1.729  12.403  22.756  0.00  0.00    +0.000 C 
ATOM     19  F   UNL     1      -2.883  12.473  22.031  0.00  0.00    +0.000 F 
ATOM     20  F   UNL     1      -1.798  11.218  23.424  0.00  0.00    +0.000 F 
ATOM     21  F   UNL     1      -1.833  13.373  23.703  0.00  0.00    +0.000 F 
ENDBRANCH   8  18
BRANCH   6  22
ATOM     22  C   UNL     1       2.022  15.369  20.999  0.00  0.00    +0.000 C 
ATOM     23  C   UNL     1       3.513  15.255  20.613  0.00  0.00    +0.000 C 
BRANCH  22  24
ATOM     24  N   UNL     1       1.256  16.346  20.192  0.00  0.00    +0.000 NA
ATOM     25  C   UNL     1       0.069  16.924  20.825  0.00  0.00    +0.000 C 
ATOM     26  C   UNL     1      -1.073  16.847  19.821  0.00  0.00    +0.000 C 
ATOM     27  C   UNL     1      -0.436  16.513  18.483  0.00  0.00    +0.000 C 
ATOM     28  C   UNL     1      -0.256  17.739  17.596  0.00  0.00    +0.000 C 
ATOM     29  C   UNL     1       0.888  15.852  18.858  0.00  0.00    +0.000 C 
ENDBRANCH  22  24
ENDBRANCH   6  22
TORSDOF 4
ENDMDL
