MODEL 1
REMARK VINA RESULT:      -8.7      0.000      0.000
REMARK  Name = 
REMARK  5 active torsions:
REMARK  status: ('A' for Active; 'I' for Inactive)
REMARK    1  A    between atoms: C_2  and  C_3
REMARK    2  A    between atoms: C_3  and  S_4
REMARK    3  A    between atoms: S_4  and  C_5
REMARK    4  A    between atoms: C_8  and  C_9
REMARK    5  A    between atoms: C_19  and  C_20
REMARK                            x       y       z     vdW  Elec       q    Type
REMARK                         _______ _______ _______ _____ _____    ______ ____
ROOT
ATOM      1  O   UNL     1       1.854   8.392  19.932  0.00  0.00    +0.000 OA
ATOM      2  C   UNL     1       1.182   7.780  20.760  0.00  0.00    +0.000 C 
ATOM      3  N   UNL     1       1.274   6.438  21.060  0.00  0.00    +0.000 N 
ATOM      4  C   UNL     1       2.163   5.609  20.440  0.00  0.00    +0.000 A 
ATOM      5  N   UNL     1       2.985   5.862  19.455  0.00  0.00    +0.000 NA
ATOM      6  C   UNL     1       3.723   4.728  19.156  0.00  0.00    +0.000 A 
ATOM      7  C   UNL     1       3.468   3.643  19.974  0.00  0.00    +0.000 A 
ATOM      8  S   UNL     1       2.216   4.031  21.084  0.00  0.00    +0.000 S 
ATOM      9  H   UNL     1       0.620   5.999  21.700  0.00  0.00    +0.000 HD
ENDROOT
BRANCH   6  10
ATOM     10  C   UNL     1       4.728   4.745  18.098  0.00  0.00    +0.000 A 
ATOM     11  C   UNL     1       4.340   5.074  16.787  0.00  0.00    +0.000 A 
ATOM     12  C   UNL     1       5.282   5.150  15.757  0.00  0.00    +0.000 A 
ATOM     13  C   UNL     1       6.618   4.882  16.032  0.00  0.00    +0.000 A 
ATOM     14  F   UNL     1       7.524   4.971  15.049  0.00  0.00    +0.000 F 
ATOM     15  C   UNL     1       7.010   4.528  17.318  0.00  0.00    +0.000 A 
ATOM     16  F   UNL     1       8.295   4.262  17.581  0.00  0.00    +0.000 F 
ATOM     17  C   UNL     1       6.076   4.454  18.351  0.00  0.00    +0.000 A 
ENDBRANCH   6  10
BRANCH   2  18
ATOM     18  C   UNL     1       0.132   8.514  21.581  0.00  0.00    +0.000 C 
BRANCH  18  19
ATOM     19  S   UNL     1       0.642  10.226  21.899  0.00  0.00    +0.000 S 
BRANCH  19  20
ATOM     20  C   UNL     1      -0.377  11.060  20.800  0.00  0.00    +0.000 A 
ATOM     21  N   UNL     1      -0.924  12.242  20.924  0.00  0.00    +0.000 NA
ATOM     22  N   UNL     1      -1.752  12.416  19.833  0.00  0.00    +0.000 NA
ATOM     23  C   UNL     1      -1.707  11.319  19.092  0.00  0.00    +0.000 A 
ATOM     24  N   UNL     1      -0.796  10.464  19.657  0.00  0.00    +0.000 N 
ATOM     25  H   UNL     1      -0.524   9.552  19.324  0.00  0.00    +0.000 HD
BRANCH  23  26
ATOM     26  C   UNL     1      -2.461  11.020  17.877  0.00  0.00    +0.000 A 
ATOM     27  C   UNL     1      -1.942  10.131  16.928  0.00  0.00    +0.000 A 
ATOM     28  C   UNL     1      -2.666   9.826  15.771  0.00  0.00    +0.000 A 
ATOM     29  C   UNL     1      -3.907  10.417  15.546  0.00  0.00    +0.000 A 
ATOM     30  C   UNL     1      -4.428  11.317  16.471  0.00  0.00    +0.000 A 
ATOM     31  C   UNL     1      -3.708  11.618  17.631  0.00  0.00    +0.000 A 
ENDBRANCH  23  26
ENDBRANCH  19  20
ENDBRANCH  18  19
ENDBRANCH   2  18
TORSDOF 5
ENDMDL
MODEL 2
REMARK VINA RESULT:      -8.6      1.114      1.681
REMARK  Name = 
REMARK  5 active torsions:
REMARK  status: ('A' for Active; 'I' for Inactive)
REMARK    1  A    between atoms: C_2  and  C_3
REMARK    2  A    between atoms: C_3  and  S_4
REMARK    3  A    between atoms: S_4  and  C_5
REMARK    4  A    between atoms: C_8  and  C_9
REMARK    5  A    between atoms: C_19  and  C_20
REMARK                            x       y       z     vdW  Elec       q    Type
REMARK                         _______ _______ _______ _____ _____    ______ ____
ROOT
ATOM      1  O   UNL     1       2.215   7.978  19.649  0.00  0.00    +0.000 OA
ATOM      2  C   UNL     1       1.675   7.249  20.479  0.00  0.00    +0.000 C 
ATOM      3  N   UNL     1       1.886   5.898  20.644  0.00  0.00    +0.000 N 
ATOM      4  C   UNL     1       2.757   5.193  19.864  0.00  0.00    +0.000 A 
ATOM      5  N   UNL     1       3.452   5.590  18.830  0.00  0.00    +0.000 NA
ATOM      6  C   UNL     1       4.227   4.544  18.356  0.00  0.00    +0.000 A 
ATOM      7  C   UNL     1       4.131   3.377  19.091  0.00  0.00    +0.000 A 
ATOM      8  S   UNL     1       2.980   3.574  20.351  0.00  0.00    +0.000 S 
ATOM      9  H   UNL     1       1.332   5.358  21.302  0.00  0.00    +0.000 HD
ENDROOT
BRANCH   6  10
ATOM     10  C   UNL     1       5.112   4.725  17.210  0.00  0.00    +0.000 A 
ATOM     11  C   UNL     1       6.144   5.678  17.283  0.00  0.00    +0.000 A 
ATOM     12  C   UNL     1       7.043   5.845  16.225  0.00  0.00    +0.000 A 
ATOM     13  C   UNL     1       6.904   5.067  15.082  0.00  0.00    +0.000 A 
ATOM     14  F   UNL     1       7.776   5.214  14.075  0.00  0.00    +0.000 F 
ATOM     15  C   UNL     1       5.871   4.142  14.986  0.00  0.00    +0.000 A 
ATOM     16  F   UNL     1       5.733   3.398  13.881  0.00  0.00    +0.000 F 
ATOM     17  C   UNL     1       4.973   3.967  16.039  0.00  0.00    +0.000 A 
ENDBRANCH   6  10
BRANCH   2  18
ATOM     18  C   UNL     1       0.672   7.830  21.465  0.00  0.00    +0.000 C 
BRANCH  18  19
ATOM     19  S   UNL     1       1.182   9.485  22.006  0.00  0.00    +0.000 S 
BRANCH  19  20
ATOM     20  C   UNL     1       0.100  10.454  21.094  0.00  0.00    +0.000 A 
ATOM     21  N   UNL     1      -0.468  11.586  21.427  0.00  0.00    +0.000 NA
ATOM     22  N   UNL     1      -1.344  11.908  20.410  0.00  0.00    +0.000 NA
ATOM     23  C   UNL     1      -1.306  10.945  19.501  0.00  0.00    +0.000 A 
ATOM     24  N   UNL     1      -0.353  10.037  19.886  0.00  0.00    +0.000 N 
ATOM     25  H   UNL     1      -0.074   9.199  19.401  0.00  0.00    +0.000 HD
BRANCH  23  26
ATOM     26  C   UNL     1      -2.102  10.823  18.283  0.00  0.00    +0.000 A 
ATOM     27  C   UNL     1      -3.248  11.609  18.109  0.00  0.00    +0.000 A 
ATOM     28  C   UNL     1      -4.006  11.510  16.938  0.00  0.00    +0.000 A 
ATOM     29  C   UNL     1      -3.632  10.617  15.935  0.00  0.00    +0.000 A 
ATOM     30  C   UNL     1      -2.506   9.816  16.102  0.00  0.00    +0.000 A 
ATOM     31  C   UNL     1      -1.745   9.918  17.269  0.00  0.00    +0.000 A 
ENDBRANCH  23  26
ENDBRANCH  19  20
ENDBRANCH  18  19
ENDBRANCH   2  18
TORSDOF 5
ENDMDL
MODEL 3
REMARK VINA RESULT:      -8.6      3.647      5.175
REMARK  Name = 
REMARK  5 active torsions:
REMARK  status: ('A' for Active; 'I' for Inactive)
REMARK    1  A    between atoms: C_2  and  C_3
REMARK    2  A    between atoms: C_3  and  S_4
REMARK    3  A    between atoms: S_4  and  C_5
REMARK    4  A    between atoms: C_8  and  C_9
REMARK    5  A    between atoms: C_19  and  C_20
REMARK                            x       y       z     vdW  Elec       q    Type
REMARK                         _______ _______ _______ _____ _____    ______ ____
ROOT
ATOM      1  O   UNL     1       2.035   3.578  17.132  0.00  0.00    +0.000 OA
ATOM      2  C   UNL     1       2.371   3.733  18.304  0.00  0.00    +0.000 C 
ATOM      3  N   UNL     1       3.628   4.065  18.759  0.00  0.00    +0.000 N 
ATOM      4  C   UNL     1       4.682   4.266  17.916  0.00  0.00    +0.000 A 
ATOM      5  N   UNL     1       4.746   4.115  16.619  0.00  0.00    +0.000 NA
ATOM      6  C   UNL     1       6.012   4.455  16.168  0.00  0.00    +0.000 A 
ATOM      7  C   UNL     1       6.870   4.910  17.152  0.00  0.00    +0.000 A 
ATOM      8  S   UNL     1       6.098   4.827  18.684  0.00  0.00    +0.000 S 
ATOM      9  H   UNL     1       3.836   4.090  19.753  0.00  0.00    +0.000 HD
ENDROOT
BRANCH   6  10
ATOM     10  C   UNL     1       6.346   4.389  14.749  0.00  0.00    +0.000 A 
ATOM     11  C   UNL     1       7.389   5.190  14.251  0.00  0.00    +0.000 A 
ATOM     12  C   UNL     1       7.773   5.116  12.909  0.00  0.00    +0.000 A 
ATOM     13  C   UNL     1       7.103   4.249  12.054  0.00  0.00    +0.000 A 
ATOM     14  F   UNL     1       7.481   4.166  10.771  0.00  0.00    +0.000 F 
ATOM     15  C   UNL     1       6.051   3.473  12.527  0.00  0.00    +0.000 A 
ATOM     16  F   UNL     1       5.400   2.644  11.702  0.00  0.00    +0.000 F 
ATOM     17  C   UNL     1       5.666   3.539  13.866  0.00  0.00    +0.000 A 
ENDBRANCH   6  10
BRANCH   2  18
ATOM     18  C   UNL     1       1.347   3.569  19.418  0.00  0.00    +0.000 C 
BRANCH  18  19
ATOM     19  S   UNL     1       1.939   4.327  20.956  0.00  0.00    +0.000 S 
BRANCH  19  20
ATOM     20  C   UNL     1       1.761   5.989  20.570  0.00  0.00    +0.000 A 
ATOM     21  N   UNL     1       2.453   6.715  19.729  0.00  0.00    +0.000 NA
ATOM     22  N   UNL     1       2.008   8.015  19.863  0.00  0.00    +0.000 NA
ATOM     23  C   UNL     1       1.078   8.045  20.805  0.00  0.00    +0.000 A 
ATOM     24  N   UNL     1       0.863   6.759  21.231  0.00  0.00    +0.000 N 
ATOM     25  H   UNL     1       0.207   6.448  21.929  0.00  0.00    +0.000 HD
BRANCH  23  26
ATOM     26  C   UNL     1       0.366   9.207  21.332  0.00  0.00    +0.000 A 
ATOM     27  C   UNL     1       0.094  10.302  20.502  0.00  0.00    +0.000 A 
ATOM     28  C   UNL     1      -0.603  11.410  20.993  0.00  0.00    +0.000 A 
ATOM     29  C   UNL     1      -1.023  11.440  22.322  0.00  0.00    +0.000 A 
ATOM     30  C   UNL     1      -0.744  10.368  23.164  0.00  0.00    +0.000 A 
ATOM     31  C   UNL     1      -0.052   9.257  22.672  0.00  0.00    +0.000 A 
ENDBRANCH  23  26
ENDBRANCH  19  20
ENDBRANCH  18  19
ENDBRANCH   2  18
TORSDOF 5
ENDMDL
MODEL 4
REMARK VINA RESULT:      -8.5      3.729      5.128
REMARK  Name = 
REMARK  5 active torsions:
REMARK  status: ('A' for Active; 'I' for Inactive)
REMARK    1  A    between atoms: C_2  and  C_3
REMARK    2  A    between atoms: C_3  and  S_4
REMARK    3  A    between atoms: S_4  and  C_5
REMARK    4  A    between atoms: C_8  and  C_9
REMARK    5  A    between atoms: C_19  and  C_20
REMARK                            x       y       z     vdW  Elec       q    Type
REMARK                         _______ _______ _______ _____ _____    ______ ____
ROOT
ATOM      1  O   UNL     1       2.271   3.680  17.203  0.00  0.00    +0.000 OA
ATOM      2  C   UNL     1       2.597   3.819  18.380  0.00  0.00    +0.000 C 
ATOM      3  N   UNL     1       3.849   4.148  18.851  0.00  0.00    +0.000 N 
ATOM      4  C   UNL     1       4.909   4.364  18.020  0.00  0.00    +0.000 A 
ATOM      5  N   UNL     1       4.985   4.231  16.721  0.00  0.00    +0.000 NA
ATOM      6  C   UNL     1       6.254   4.580  16.287  0.00  0.00    +0.000 A 
ATOM      7  C   UNL     1       7.102   5.023  17.285  0.00  0.00    +0.000 A 
ATOM      8  S   UNL     1       6.316   4.918  18.809  0.00  0.00    +0.000 S 
ATOM      9  H   UNL     1       4.047   4.160  19.847  0.00  0.00    +0.000 HD
ENDROOT
BRANCH   6  10
ATOM     10  C   UNL     1       6.601   4.534  14.870  0.00  0.00    +0.000 A 
ATOM     11  C   UNL     1       5.914   3.646  14.023  0.00  0.00    +0.000 A 
ATOM     12  C   UNL     1       6.183   3.609  12.652  0.00  0.00    +0.000 A 
ATOM     13  C   UNL     1       7.153   4.452  12.123  0.00  0.00    +0.000 A 
ATOM     14  F   UNL     1       7.400   4.429  10.806  0.00  0.00    +0.000 F 
ATOM     15  C   UNL     1       7.860   5.313  12.954  0.00  0.00    +0.000 A 
ATOM     16  F   UNL     1       8.800   6.119  12.446  0.00  0.00    +0.000 F 
ATOM     17  C   UNL     1       7.593   5.358  14.323  0.00  0.00    +0.000 A 
ENDBRANCH   6  10
BRANCH   2  18
ATOM     18  C   UNL     1       1.563   3.638  19.483  0.00  0.00    +0.000 C 
BRANCH  18  19
ATOM     19  S   UNL     1       2.088   4.475  21.004  0.00  0.00    +0.000 S 
BRANCH  19  20
ATOM     20  C   UNL     1       1.830   6.112  20.560  0.00  0.00    +0.000 A 
ATOM     21  N   UNL     1       2.364   6.789  19.576  0.00  0.00    +0.000 NA
ATOM     22  N   UNL     1       1.934   8.094  19.708  0.00  0.00    +0.000 NA
ATOM     23  C   UNL     1       1.174   8.178  20.790  0.00  0.00    +0.000 A 
ATOM     24  N   UNL     1       1.046   6.918  21.317  0.00  0.00    +0.000 N 
ATOM     25  H   UNL     1       0.520   6.646  22.132  0.00  0.00    +0.000 HD
BRANCH  23  26
ATOM     26  C   UNL     1       0.547   9.367  21.361  0.00  0.00    +0.000 A 
ATOM     27  C   UNL     1      -0.255   9.261  22.504  0.00  0.00    +0.000 A 
ATOM     28  C   UNL     1      -0.844  10.397  23.067  0.00  0.00    +0.000 A 
ATOM     29  C   UNL     1      -0.646  11.648  22.487  0.00  0.00    +0.000 A 
ATOM     30  C   UNL     1       0.134  11.768  21.340  0.00  0.00    +0.000 A 
ATOM     31  C   UNL     1       0.726  10.633  20.780  0.00  0.00    +0.000 A 
ENDBRANCH  23  26
ENDBRANCH  19  20
ENDBRANCH  18  19
ENDBRANCH   2  18
TORSDOF 5
ENDMDL
MODEL 5
REMARK VINA RESULT:      -8.2      4.779      9.638
REMARK  Name = 
REMARK  5 active torsions:
REMARK  status: ('A' for Active; 'I' for Inactive)
REMARK    1  A    between atoms: C_2  and  C_3
REMARK    2  A    between atoms: C_3  and  S_4
REMARK    3  A    between atoms: S_4  and  C_5
REMARK    4  A    between atoms: C_8  and  C_9
REMARK    5  A    between atoms: C_19  and  C_20
REMARK                            x       y       z     vdW  Elec       q    Type
REMARK                         _______ _______ _______ _____ _____    ______ ____
ROOT
ATOM      1  O   UNL     1       2.073   5.399  20.465  0.00  0.00    +0.000 OA
ATOM      2  C   UNL     1       2.583   5.395  19.347  0.00  0.00    +0.000 C 
ATOM      3  N   UNL     1       2.645   6.455  18.469  0.00  0.00    +0.000 N 
ATOM      4  C   UNL     1       2.119   7.680  18.764  0.00  0.00    +0.000 A 
ATOM      5  N   UNL     1       1.429   8.056  19.808  0.00  0.00    +0.000 NA
ATOM      6  C   UNL     1       1.116   9.402  19.704  0.00  0.00    +0.000 A 
ATOM      7  C   UNL     1       1.633  10.028  18.585  0.00  0.00    +0.000 A 
ATOM      8  S   UNL     1       2.455   8.883  17.603  0.00  0.00    +0.000 S 
ATOM      9  H   UNL     1       3.014   6.337  17.530  0.00  0.00    +0.000 HD
ENDROOT
BRANCH   6  10
ATOM     10  C   UNL     1       0.358  10.080  20.751  0.00  0.00    +0.000 A 
ATOM     11  C   UNL     1      -0.013   9.363  21.903  0.00  0.00    +0.000 A 
ATOM     12  C   UNL     1      -0.695   9.991  22.950  0.00  0.00    +0.000 A 
ATOM     13  C   UNL     1      -1.022  11.337  22.841  0.00  0.00    +0.000 A 
ATOM     14  F   UNL     1      -1.662  11.943  23.851  0.00  0.00    +0.000 F 
ATOM     15  C   UNL     1      -0.687  12.049  21.696  0.00  0.00    +0.000 A 
ATOM     16  F   UNL     1      -1.010  13.344  21.588  0.00  0.00    +0.000 F 
ATOM     17  C   UNL     1      -0.003  11.430  20.649  0.00  0.00    +0.000 A 
ENDBRANCH   6  10
BRANCH   2  18
ATOM     18  C   UNL     1       3.244   4.131  18.817  0.00  0.00    +0.000 C 
BRANCH  18  19
ATOM     19  S   UNL     1       4.990   4.060  19.306  0.00  0.00    +0.000 S 
BRANCH  19  20
ATOM     20  C   UNL     1       5.720   4.817  17.950  0.00  0.00    +0.000 A 
ATOM     21  N   UNL     1       6.079   6.067  17.803  0.00  0.00    +0.000 NA
ATOM     22  N   UNL     1       6.505   6.209  16.497  0.00  0.00    +0.000 NA
ATOM     23  C   UNL     1       6.363   5.046  15.880  0.00  0.00    +0.000 A 
ATOM     24  N   UNL     1       5.918   4.130  16.799  0.00  0.00    +0.000 N 
ATOM     25  H   UNL     1       5.726   3.153  16.645  0.00  0.00    +0.000 HD
BRANCH  23  26
ATOM     26  C   UNL     1       6.625   4.732  14.478  0.00  0.00    +0.000 A 
ATOM     27  C   UNL     1       5.913   3.709  13.840  0.00  0.00    +0.000 A 
ATOM     28  C   UNL     1       6.146   3.414  12.493  0.00  0.00    +0.000 A 
ATOM     29  C   UNL     1       7.102   4.130  11.775  0.00  0.00    +0.000 A 
ATOM     30  C   UNL     1       7.831   5.137  12.400  0.00  0.00    +0.000 A 
ATOM     31  C   UNL     1       7.595   5.436  13.745  0.00  0.00    +0.000 A 
ENDBRANCH  23  26
ENDBRANCH  19  20
ENDBRANCH  18  19
ENDBRANCH   2  18
TORSDOF 5
ENDMDL
MODEL 6
REMARK VINA RESULT:      -8.2      4.698      9.475
REMARK  Name = 
REMARK  5 active torsions:
REMARK  status: ('A' for Active; 'I' for Inactive)
REMARK    1  A    between atoms: C_2  and  C_3
REMARK    2  A    between atoms: C_3  and  S_4
REMARK    3  A    between atoms: S_4  and  C_5
REMARK    4  A    between atoms: C_8  and  C_9
REMARK    5  A    between atoms: C_19  and  C_20
REMARK                            x       y       z     vdW  Elec       q    Type
REMARK                         _______ _______ _______ _____ _____    ______ ____
ROOT
ATOM      1  O   UNL     1       2.494   4.707  21.351  0.00  0.00    +0.000 OA
ATOM      2  C   UNL     1       2.997   4.494  20.250  0.00  0.00    +0.000 C 
ATOM      3  N   UNL     1       3.043   5.368  19.186  0.00  0.00    +0.000 N 
ATOM      4  C   UNL     1       2.508   6.623  19.247  0.00  0.00    +0.000 A 
ATOM      5  N   UNL     1       1.822   7.186  20.207  0.00  0.00    +0.000 NA
ATOM      6  C   UNL     1       1.497   8.485  19.852  0.00  0.00    +0.000 A 
ATOM      7  C   UNL     1       2.000   8.890  18.629  0.00  0.00    +0.000 A 
ATOM      8  S   UNL     1       2.824   7.586  17.875  0.00  0.00    +0.000 S 
ATOM      9  H   UNL     1       3.405   5.077  18.284  0.00  0.00    +0.000 HD
ENDROOT
BRANCH   6  10
ATOM     10  C   UNL     1       0.740   9.344  20.758  0.00  0.00    +0.000 A 
ATOM     11  C   UNL     1       0.117  10.498  20.250  0.00  0.00    +0.000 A 
ATOM     12  C   UNL     1      -0.659  11.317  21.075  0.00  0.00    +0.000 A 
ATOM     13  C   UNL     1      -0.802  10.992  22.419  0.00  0.00    +0.000 A 
ATOM     14  F   UNL     1      -1.559  11.768  23.207  0.00  0.00    +0.000 F 
ATOM     15  C   UNL     1      -0.168   9.870  22.939  0.00  0.00    +0.000 A 
ATOM     16  F   UNL     1      -0.299   9.562  24.235  0.00  0.00    +0.000 F 
ATOM     17  C   UNL     1       0.604   9.046  22.120  0.00  0.00    +0.000 A 
ENDBRANCH   6  10
BRANCH   2  18
ATOM     18  C   UNL     1       3.665   3.157  19.964  0.00  0.00    +0.000 C 
BRANCH  18  19
ATOM     19  S   UNL     1       3.373   2.642  18.249  0.00  0.00    +0.000 S 
BRANCH  19  20
ATOM     20  C   UNL     1       4.687   3.419  17.466  0.00  0.00    +0.000 A 
ATOM     21  N   UNL     1       5.520   4.306  17.947  0.00  0.00    +0.000 NA
ATOM     22  N   UNL     1       6.318   4.716  16.898  0.00  0.00    +0.000 NA
ATOM     23  C   UNL     1       5.926   4.086  15.801  0.00  0.00    +0.000 A 
ATOM     24  N   UNL     1       4.926   3.213  16.148  0.00  0.00    +0.000 N 
ATOM     25  H   UNL     1       4.429   2.580  15.542  0.00  0.00    +0.000 HD
BRANCH  23  26
ATOM     26  C   UNL     1       6.434   4.243  14.441  0.00  0.00    +0.000 A 
ATOM     27  C   UNL     1       5.905   3.472  13.398  0.00  0.00    +0.000 A 
ATOM     28  C   UNL     1       6.374   3.629  12.090  0.00  0.00    +0.000 A 
ATOM     29  C   UNL     1       7.384   4.548  11.814  0.00  0.00    +0.000 A 
ATOM     30  C   UNL     1       7.933   5.308  12.843  0.00  0.00    +0.000 A 
ATOM     31  C   UNL     1       7.462   5.156  14.150  0.00  0.00    +0.000 A 
ENDBRANCH  23  26
ENDBRANCH  19  20
ENDBRANCH  18  19
ENDBRANCH   2  18
TORSDOF 5
ENDMDL
MODEL 7
REMARK VINA RESULT:      -8.0      4.339      9.790
REMARK  Name = 
REMARK  5 active torsions:
REMARK  status: ('A' for Active; 'I' for Inactive)
REMARK    1  A    between atoms: C_2  and  C_3
REMARK    2  A    between atoms: C_3  and  S_4
REMARK    3  A    between atoms: S_4  and  C_5
REMARK    4  A    between atoms: C_8  and  C_9
REMARK    5  A    between atoms: C_19  and  C_20
REMARK                            x       y       z     vdW  Elec       q    Type
REMARK                         _______ _______ _______ _____ _____    ______ ____
ROOT
ATOM      1  O   UNL     1       2.079   6.727  18.377  0.00  0.00    +0.000 OA
ATOM      2  C   UNL     1       2.656   6.692  19.462  0.00  0.00    +0.000 C 
ATOM      3  N   UNL     1       2.386   7.478  20.560  0.00  0.00    +0.000 N 
ATOM      4  C   UNL     1       1.403   8.424  20.559  0.00  0.00    +0.000 A 
ATOM      5  N   UNL     1       0.632   8.817  19.578  0.00  0.00    +0.000 NA
ATOM      6  C   UNL     1      -0.245   9.789  20.032  0.00  0.00    +0.000 A 
ATOM      7  C   UNL     1      -0.143  10.073  21.381  0.00  0.00    +0.000 A 
ATOM      8  S   UNL     1       1.138   9.162  22.074  0.00  0.00    +0.000 S 
ATOM      9  H   UNL     1       2.971   7.438  21.389  0.00  0.00    +0.000 HD
ENDROOT
BRANCH   6  10
ATOM     10  C   UNL     1      -1.229  10.389  19.135  0.00  0.00    +0.000 A 
ATOM     11  C   UNL     1      -1.265   9.988  17.788  0.00  0.00    +0.000 A 
ATOM     12  C   UNL     1      -2.226  10.502  16.912  0.00  0.00    +0.000 A 
ATOM     13  C   UNL     1      -3.147  11.432  17.378  0.00  0.00    +0.000 A 
ATOM     14  F   UNL     1      -4.078  11.913  16.543  0.00  0.00    +0.000 F 
ATOM     15  C   UNL     1      -3.103  11.858  18.700  0.00  0.00    +0.000 A 
ATOM     16  F   UNL     1      -3.986  12.761  19.146  0.00  0.00    +0.000 F 
ATOM     17  C   UNL     1      -2.151  11.346  19.581  0.00  0.00    +0.000 A 
ENDBRANCH   6  10
BRANCH   2  18
ATOM     18  C   UNL     1       3.784   5.696  19.692  0.00  0.00    +0.000 C 
BRANCH  18  19
ATOM     19  S   UNL     1       3.532   4.195  18.706  0.00  0.00    +0.000 S 
BRANCH  19  20
ATOM     20  C   UNL     1       4.966   4.199  17.764  0.00  0.00    +0.000 A 
ATOM     21  N   UNL     1       6.202   4.379  18.153  0.00  0.00    +0.000 NA
ATOM     22  N   UNL     1       6.979   4.416  17.013  0.00  0.00    +0.000 NA
ATOM     23  C   UNL     1       6.186   4.288  15.960  0.00  0.00    +0.000 A 
ATOM     24  N   UNL     1       4.907   4.092  16.415  0.00  0.00    +0.000 N 
ATOM     25  H   UNL     1       4.076   3.947  15.862  0.00  0.00    +0.000 HD
BRANCH  23  26
ATOM     26  C   UNL     1       6.550   4.329  14.546  0.00  0.00    +0.000 A 
ATOM     27  C   UNL     1       5.904   3.492  13.628  0.00  0.00    +0.000 A 
ATOM     28  C   UNL     1       6.235   3.538  12.270  0.00  0.00    +0.000 A 
ATOM     29  C   UNL     1       7.223   4.411  11.820  0.00  0.00    +0.000 A 
ATOM     30  C   UNL     1       7.887   5.236  12.723  0.00  0.00    +0.000 A 
ATOM     31  C   UNL     1       7.554   5.194  14.079  0.00  0.00    +0.000 A 
ENDBRANCH  23  26
ENDBRANCH  19  20
ENDBRANCH  18  19
ENDBRANCH   2  18
TORSDOF 5
ENDMDL
MODEL 8
REMARK VINA RESULT:      -7.9      3.014      3.996
REMARK  Name = 
REMARK  5 active torsions:
REMARK  status: ('A' for Active; 'I' for Inactive)
REMARK    1  A    between atoms: C_2  and  C_3
REMARK    2  A    between atoms: C_3  and  S_4
REMARK    3  A    between atoms: S_4  and  C_5
REMARK    4  A    between atoms: C_8  and  C_9
REMARK    5  A    between atoms: C_19  and  C_20
REMARK                            x       y       z     vdW  Elec       q    Type
REMARK                         _______ _______ _______ _____ _____    ______ ____
ROOT
ATOM      1  O   UNL     1       2.622   8.187  18.611  0.00  0.00    +0.000 OA
ATOM      2  C   UNL     1       2.221   7.591  19.608  0.00  0.00    +0.000 C 
ATOM      3  N   UNL     1       2.512   6.291  19.959  0.00  0.00    +0.000 N 
ATOM      4  C   UNL     1       3.314   5.490  19.199  0.00  0.00    +0.000 A 
ATOM      5  N   UNL     1       3.860   5.729  18.035  0.00  0.00    +0.000 NA
ATOM      6  C   UNL     1       4.620   4.639  17.640  0.00  0.00    +0.000 A 
ATOM      7  C   UNL     1       4.667   3.608  18.559  0.00  0.00    +0.000 A 
ATOM      8  S   UNL     1       3.669   3.979  19.907  0.00  0.00    +0.000 S 
ATOM      9  H   UNL     1       2.068   5.853  20.760  0.00  0.00    +0.000 HD
ENDROOT
BRANCH   6  10
ATOM     10  C   UNL     1       5.351   4.652  16.377  0.00  0.00    +0.000 A 
ATOM     11  C   UNL     1       6.685   5.097  16.360  0.00  0.00    +0.000 A 
ATOM     12  C   UNL     1       7.434   5.075  15.179  0.00  0.00    +0.000 A 
ATOM     13  C   UNL     1       6.844   4.622  14.005  0.00  0.00    +0.000 A 
ATOM     14  F   UNL     1       7.566   4.586  12.877  0.00  0.00    +0.000 F 
ATOM     15  C   UNL     1       5.518   4.207  14.003  0.00  0.00    +0.000 A 
ATOM     16  F   UNL     1       4.948   3.779  12.870  0.00  0.00    +0.000 F 
ATOM     17  C   UNL     1       4.767   4.222  15.178  0.00  0.00    +0.000 A 
ENDBRANCH   6  10
BRANCH   2  18
ATOM     18  C   UNL     1       1.319   8.300  20.607  0.00  0.00    +0.000 C 
BRANCH  18  19
ATOM     19  S   UNL     1       0.639   9.824  19.895  0.00  0.00    +0.000 S 
BRANCH  19  20
ATOM     20  C   UNL     1      -0.038  10.544  21.298  0.00  0.00    +0.000 A 
ATOM     21  N   UNL     1       0.250  10.322  22.555  0.00  0.00    +0.000 NA
ATOM     22  N   UNL     1      -0.648  11.052  23.306  0.00  0.00    +0.000 NA
ATOM     23  C   UNL     1      -1.477  11.675  22.482  0.00  0.00    +0.000 A 
ATOM     24  N   UNL     1      -1.074  11.412  21.197  0.00  0.00    +0.000 N 
ATOM     25  H   UNL     1      -1.490  11.750  20.344  0.00  0.00    +0.000 HD
BRANCH  23  26
ATOM     26  C   UNL     1      -2.625  12.512  22.820  0.00  0.00    +0.000 A 
ATOM     27  C   UNL     1      -2.911  13.655  22.062  0.00  0.00    +0.000 A 
ATOM     28  C   UNL     1      -4.018  14.451  22.369  0.00  0.00    +0.000 A 
ATOM     29  C   UNL     1      -4.842  14.122  23.443  0.00  0.00    +0.000 A 
ATOM     30  C   UNL     1      -4.560  13.000  24.217  0.00  0.00    +0.000 A 
ATOM     31  C   UNL     1      -3.457  12.200  23.908  0.00  0.00    +0.000 A 
ENDBRANCH  23  26
ENDBRANCH  19  20
ENDBRANCH  18  19
ENDBRANCH   2  18
TORSDOF 5
ENDMDL
MODEL 9
REMARK VINA RESULT:      -7.9      3.022      3.837
REMARK  Name = 
REMARK  5 active torsions:
REMARK  status: ('A' for Active; 'I' for Inactive)
REMARK    1  A    between atoms: C_2  and  C_3
REMARK    2  A    between atoms: C_3  and  S_4
REMARK    3  A    between atoms: S_4  and  C_5
REMARK    4  A    between atoms: C_8  and  C_9
REMARK    5  A    between atoms: C_19  and  C_20
REMARK                            x       y       z     vdW  Elec       q    Type
REMARK                         _______ _______ _______ _____ _____    ______ ____
ROOT
ATOM      1  O   UNL     1       2.080   8.749  19.575  0.00  0.00    +0.000 OA
ATOM      2  C   UNL     1       1.409   8.187  20.438  0.00  0.00    +0.000 C 
ATOM      3  N   UNL     1       1.470   6.855  20.785  0.00  0.00    +0.000 N 
ATOM      4  C   UNL     1       2.321   5.979  20.177  0.00  0.00    +0.000 A 
ATOM      5  N   UNL     1       3.128   6.173  19.167  0.00  0.00    +0.000 NA
ATOM      6  C   UNL     1       3.828   5.008  18.894  0.00  0.00    +0.000 A 
ATOM      7  C   UNL     1       3.560   3.961  19.757  0.00  0.00    +0.000 A 
ATOM      8  S   UNL     1       2.344   4.424  20.878  0.00  0.00    +0.000 S 
ATOM      9  H   UNL     1       0.817   6.458  21.455  0.00  0.00    +0.000 HD
ENDROOT
BRANCH   6  10
ATOM     10  C   UNL     1       4.810   4.957  17.816  0.00  0.00    +0.000 A 
ATOM     11  C   UNL     1       4.666   3.994  16.801  0.00  0.00    +0.000 A 
ATOM     12  C   UNL     1       5.557   3.947  15.724  0.00  0.00    +0.000 A 
ATOM     13  C   UNL     1       6.606   4.857  15.667  0.00  0.00    +0.000 A 
ATOM     14  F   UNL     1       7.451   4.823  14.627  0.00  0.00    +0.000 F 
ATOM     15  C   UNL     1       6.776   5.794  16.678  0.00  0.00    +0.000 A 
ATOM     16  F   UNL     1       7.792   6.664  16.627  0.00  0.00    +0.000 F 
ATOM     17  C   UNL     1       5.888   5.849  17.753  0.00  0.00    +0.000 A 
ENDBRANCH   6  10
BRANCH   2  18
ATOM     18  C   UNL     1       0.399   8.980  21.254  0.00  0.00    +0.000 C 
BRANCH  18  19
ATOM     19  S   UNL     1      -0.498  10.157  20.204  0.00  0.00    +0.000 S 
BRANCH  19  20
ATOM     20  C   UNL     1       0.427  11.576  20.472  0.00  0.00    +0.000 A 
ATOM     21  N   UNL     1       0.703  12.175  21.602  0.00  0.00    +0.000 NA
ATOM     22  N   UNL     1       1.372  13.340  21.285  0.00  0.00    +0.000 NA
ATOM     23  C   UNL     1       1.457  13.430  19.967  0.00  0.00    +0.000 A 
ATOM     24  N   UNL     1       0.913  12.292  19.428  0.00  0.00    +0.000 N 
ATOM     25  H   UNL     1       0.839  12.051  18.453  0.00  0.00    +0.000 HD
BRANCH  23  26
ATOM     26  C   UNL     1       2.026  14.516  19.172  0.00  0.00    +0.000 A 
ATOM     27  C   UNL     1       3.059  14.257  18.263  0.00  0.00    +0.000 A 
ATOM     28  C   UNL     1       3.596  15.287  17.486  0.00  0.00    +0.000 A 
ATOM     29  C   UNL     1       3.115  16.588  17.619  0.00  0.00    +0.000 A 
ATOM     30  C   UNL     1       2.101  16.865  18.532  0.00  0.00    +0.000 A 
ATOM     31  C   UNL     1       1.560  15.834  19.305  0.00  0.00    +0.000 A 
ENDBRANCH  23  26
ENDBRANCH  19  20
ENDBRANCH  18  19
ENDBRANCH   2  18
TORSDOF 5
ENDMDL
