MODEL 1
REMARK VINA RESULT:      -9.0      0.000      0.000
REMARK  Name = 
REMARK  5 active torsions:
REMARK  status: ('A' for Active; 'I' for Inactive)
REMARK    1  A    between atoms: C_6  and  S_7
REMARK    2  A    between atoms: S_7  and  N_10
REMARK    3  A    between atoms: N_10  and  C_11
REMARK    4  A    between atoms: C_11  and  C_12
REMARK    5  A    between atoms: C_11  and  C_18
REMARK                            x       y       z     vdW  Elec       q    Type
REMARK                         _______ _______ _______ _____ _____    ______ ____
ROOT
ATOM      1  N   UNL     1       4.514   5.954  19.629  0.00  0.00    +0.000 NA
ATOM      2  H   UNL     1       4.950   6.877  19.611  0.00  0.00    +0.000 HD
ENDROOT
BRANCH   1   3
ATOM      3  S   UNL     1       5.700   4.763  19.403  0.00  0.00    +0.000 S 
ATOM      4  O   UNL     1       5.147   3.437  19.514  0.00  0.00    +0.000 OA
ATOM      5  O   UNL     1       6.855   5.174  20.177  0.00  0.00    +0.000 OA
BRANCH   3  11
ATOM      6  O   UNL     1       6.552   3.780  11.958  0.00  0.00    +0.000 OA
ATOM      7  C   UNL     1       6.519   4.090  13.137  0.00  0.00    +0.000 C 
ATOM      8  C   UNL     1       5.774   3.353  14.253  0.00  0.00    +0.000 C 
ATOM      9  C   UNL     1       6.084   4.200  15.449  0.00  0.00    +0.000 A 
ATOM     10  C   UNL     1       5.690   4.041  16.761  0.00  0.00    +0.000 A 
ATOM     11  C   UNL     1       6.135   4.991  17.688  0.00  0.00    +0.000 A 
ATOM     12  C   UNL     1       6.984   6.054  17.307  0.00  0.00    +0.000 A 
ATOM     13  C   UNL     1       7.373   6.197  15.970  0.00  0.00    +0.000 A 
ATOM     14  C   UNL     1       6.906   5.261  15.071  0.00  0.00    +0.000 A 
ATOM     15  N   UNL     1       7.153   5.188  13.709  0.00  0.00    +0.000 N 
ATOM     16  H   UNL     1       7.720   5.829  13.174  0.00  0.00    +0.000 HD
ENDBRANCH   3  11
ENDBRANCH   1   3
BRANCH   1  17
ATOM     17  C   UNL     1       3.314   5.926  18.757  0.00  0.00    +0.000 C 
BRANCH  17  18
ATOM     18  C   UNL     1       2.359   4.780  19.049  0.00  0.00    +0.000 A 
ATOM     19  C   UNL     1       1.896   3.927  18.035  0.00  0.00    +0.000 A 
ATOM     20  C   UNL     1       1.086   2.834  18.347  0.00  0.00    +0.000 A 
ATOM     21  C   UNL     1       0.719   2.590  19.669  0.00  0.00    +0.000 A 
ATOM     22  C   UNL     1       1.131   3.458  20.678  0.00  0.00    +0.000 A 
ATOM     23  C   UNL     1       1.940   4.550  20.370  0.00  0.00    +0.000 A 
ENDBRANCH  17  18
BRANCH  17  24
ATOM     24  C   UNL     1       2.545   7.256  18.794  0.00  0.00    +0.000 A 
ATOM     25  C   UNL     1       1.938   7.684  19.986  0.00  0.00    +0.000 A 
ATOM     26  C   UNL     1       1.289   8.911  20.011  0.00  0.00    +0.000 A 
ATOM     27  N   UNL     1       1.203   9.734  18.948  0.00  0.00    +0.000 NA
ATOM     28  C   UNL     1       1.814   9.326  17.816  0.00  0.00    +0.000 A 
ATOM     29  C   UNL     1       2.493   8.121  17.693  0.00  0.00    +0.000 A 
ENDBRANCH  17  24
ENDBRANCH   1  17
TORSDOF 5
ENDMDL
MODEL 2
REMARK VINA RESULT:      -8.7      2.506      5.109
REMARK  Name = 
REMARK  5 active torsions:
REMARK  status: ('A' for Active; 'I' for Inactive)
REMARK    1  A    between atoms: C_6  and  S_7
REMARK    2  A    between atoms: S_7  and  N_10
REMARK    3  A    between atoms: N_10  and  C_11
REMARK    4  A    between atoms: C_11  and  C_12
REMARK    5  A    between atoms: C_11  and  C_18
REMARK                            x       y       z     vdW  Elec       q    Type
REMARK                         _______ _______ _______ _____ _____    ______ ____
ROOT
ATOM      1  N   UNL     1       3.352   5.469  17.335  0.00  0.00    +0.000 NA
ATOM      2  H   UNL     1       2.546   4.952  16.983  0.00  0.00    +0.000 HD
ENDROOT
BRANCH   1   3
ATOM      3  S   UNL     1       4.774   4.620  16.967  0.00  0.00    +0.000 S 
ATOM      4  O   UNL     1       5.021   4.591  15.547  0.00  0.00    +0.000 OA
ATOM      5  O   UNL     1       4.750   3.407  17.760  0.00  0.00    +0.000 OA
BRANCH   3  11
ATOM      6  O   UNL     1       9.342  10.449  18.474  0.00  0.00    +0.000 OA
ATOM      7  C   UNL     1       8.705   9.415  18.355  0.00  0.00    +0.000 C 
ATOM      8  C   UNL     1       7.494   9.189  17.447  0.00  0.00    +0.000 C 
ATOM      9  C   UNL     1       7.141   7.764  17.744  0.00  0.00    +0.000 A 
ATOM     10  C   UNL     1       6.128   6.987  17.224  0.00  0.00    +0.000 A 
ATOM     11  C   UNL     1       6.029   5.666  17.681  0.00  0.00    +0.000 A 
ATOM     12  C   UNL     1       6.950   5.136  18.611  0.00  0.00    +0.000 A 
ATOM     13  C   UNL     1       7.972   5.942  19.126  0.00  0.00    +0.000 A 
ATOM     14  C   UNL     1       8.038   7.244  18.677  0.00  0.00    +0.000 A 
ATOM     15  N   UNL     1       8.951   8.224  19.031  0.00  0.00    +0.000 N 
ATOM     16  H   UNL     1       9.711   8.118  19.687  0.00  0.00    +0.000 HD
ENDBRANCH   3  11
ENDBRANCH   1   3
BRANCH   1  17
ATOM     17  C   UNL     1       3.130   5.891  18.740  0.00  0.00    +0.000 C 
BRANCH  17  18
ATOM     18  C   UNL     1       2.386   7.209  18.884  0.00  0.00    +0.000 A 
ATOM     19  C   UNL     1       1.847   7.624  20.112  0.00  0.00    +0.000 A 
ATOM     20  C   UNL     1       1.242   8.876  20.231  0.00  0.00    +0.000 A 
ATOM     21  C   UNL     1       1.158   9.720  19.125  0.00  0.00    +0.000 A 
ATOM     22  C   UNL     1       1.644   9.300  17.890  0.00  0.00    +0.000 A 
ATOM     23  C   UNL     1       2.249   8.051  17.767  0.00  0.00    +0.000 A 
ENDBRANCH  17  18
BRANCH  17  24
ATOM     24  C   UNL     1       2.412   4.807  19.559  0.00  0.00    +0.000 A 
ATOM     25  C   UNL     1       1.430   4.005  18.955  0.00  0.00    +0.000 A 
ATOM     26  C   UNL     1       0.828   2.999  19.700  0.00  0.00    +0.000 A 
ATOM     27  N   UNL     1       1.130   2.737  20.987  0.00  0.00    +0.000 NA
ATOM     28  C   UNL     1       2.095   3.495  21.548  0.00  0.00    +0.000 A 
ATOM     29  C   UNL     1       2.759   4.519  20.886  0.00  0.00    +0.000 A 
ENDBRANCH  17  24
ENDBRANCH   1  17
TORSDOF 5
ENDMDL
MODEL 3
REMARK VINA RESULT:      -8.7      2.277      6.922
REMARK  Name = 
REMARK  5 active torsions:
REMARK  status: ('A' for Active; 'I' for Inactive)
REMARK    1  A    between atoms: C_6  and  S_7
REMARK    2  A    between atoms: S_7  and  N_10
REMARK    3  A    between atoms: N_10  and  C_11
REMARK    4  A    between atoms: C_11  and  C_12
REMARK    5  A    between atoms: C_11  and  C_18
REMARK                            x       y       z     vdW  Elec       q    Type
REMARK                         _______ _______ _______ _____ _____    ______ ____
ROOT
ATOM      1  N   UNL     1       4.245   4.252  16.321  0.00  0.00    +0.000 NA
ATOM      2  H   UNL     1       3.996   5.237  16.410  0.00  0.00    +0.000 HD
ENDROOT
BRANCH   1   3
ATOM      3  S   UNL     1       3.510   3.367  17.567  0.00  0.00    +0.000 S 
ATOM      4  O   UNL     1       4.484   2.666  18.365  0.00  0.00    +0.000 OA
ATOM      5  O   UNL     1       2.374   2.684  16.977  0.00  0.00    +0.000 OA
BRANCH   3  11
ATOM      6  O   UNL     1       1.157  10.058  20.175  0.00  0.00    +0.000 OA
ATOM      7  C   UNL     1       1.500   8.915  19.924  0.00  0.00    +0.000 C 
ATOM      8  C   UNL     1       2.000   8.388  18.576  0.00  0.00    +0.000 C 
ATOM      9  C   UNL     1       2.241   6.941  18.877  0.00  0.00    +0.000 A 
ATOM     10  C   UNL     1       2.703   5.940  18.048  0.00  0.00    +0.000 A 
ATOM     11  C   UNL     1       2.842   4.660  18.598  0.00  0.00    +0.000 A 
ATOM     12  C   UNL     1       2.554   4.405  19.958  0.00  0.00    +0.000 A 
ATOM     13  C   UNL     1       2.087   5.435  20.782  0.00  0.00    +0.000 A 
ATOM     14  C   UNL     1       1.939   6.683  20.213  0.00  0.00    +0.000 A 
ATOM     15  N   UNL     1       1.502   7.850  20.819  0.00  0.00    +0.000 N 
ATOM     16  H   UNL     1       1.220   7.949  21.783  0.00  0.00    +0.000 HD
ENDBRANCH   3  11
ENDBRANCH   1   3
BRANCH   1  17
ATOM     17  C   UNL     1       5.708   4.100  16.120  0.00  0.00    +0.000 C 
BRANCH  17  18
ATOM     18  C   UNL     1       6.148   4.181  14.667  0.00  0.00    +0.000 A 
ATOM     19  C   UNL     1       7.281   4.913  14.278  0.00  0.00    +0.000 A 
ATOM     20  C   UNL     1       7.707   4.901  12.949  0.00  0.00    +0.000 A 
ATOM     21  C   UNL     1       7.001   4.171  11.994  0.00  0.00    +0.000 A 
ATOM     22  C   UNL     1       5.847   3.481  12.358  0.00  0.00    +0.000 A 
ATOM     23  C   UNL     1       5.419   3.491  13.684  0.00  0.00    +0.000 A 
ENDBRANCH  17  18
BRANCH  17  24
ATOM     24  C   UNL     1       6.511   5.110  16.954  0.00  0.00    +0.000 A 
ATOM     25  C   UNL     1       6.318   6.488  16.767  0.00  0.00    +0.000 A 
ATOM     26  C   UNL     1       7.018   7.383  17.565  0.00  0.00    +0.000 A 
ATOM     27  N   UNL     1       7.886   7.008  18.526  0.00  0.00    +0.000 NA
ATOM     28  C   UNL     1       8.041   5.682  18.717  0.00  0.00    +0.000 A 
ATOM     29  C   UNL     1       7.383   4.710  17.976  0.00  0.00    +0.000 A 
ENDBRANCH  17  24
ENDBRANCH   1  17
TORSDOF 5
ENDMDL
MODEL 4
REMARK VINA RESULT:      -8.6      2.290      6.854
REMARK  Name = 
REMARK  5 active torsions:
REMARK  status: ('A' for Active; 'I' for Inactive)
REMARK    1  A    between atoms: C_6  and  S_7
REMARK    2  A    between atoms: S_7  and  N_10
REMARK    3  A    between atoms: N_10  and  C_11
REMARK    4  A    between atoms: C_11  and  C_12
REMARK    5  A    between atoms: C_11  and  C_18
REMARK                            x       y       z     vdW  Elec       q    Type
REMARK                         _______ _______ _______ _____ _____    ______ ____
ROOT
ATOM      1  N   UNL     1       4.263   4.399  16.318  0.00  0.00    +0.000 NA
ATOM      2  H   UNL     1       4.046   5.396  16.302  0.00  0.00    +0.000 HD
ENDROOT
BRANCH   1   3
ATOM      3  S   UNL     1       3.468   3.667  17.625  0.00  0.00    +0.000 S 
ATOM      4  O   UNL     1       4.401   3.044  18.531  0.00  0.00    +0.000 OA
ATOM      5  O   UNL     1       2.342   2.941  17.074  0.00  0.00    +0.000 OA
BRANCH   3  11
ATOM      6  O   UNL     1       1.182  10.646  19.410  0.00  0.00    +0.000 OA
ATOM      7  C   UNL     1       1.505   9.476  19.296  0.00  0.00    +0.000 C 
ATOM      8  C   UNL     1       2.052   8.799  18.036  0.00  0.00    +0.000 C 
ATOM      9  C   UNL     1       2.240   7.387  18.495  0.00  0.00    +0.000 A 
ATOM     10  C   UNL     1       2.712   6.294  17.798  0.00  0.00    +0.000 A 
ATOM     11  C   UNL     1       2.789   5.076  18.484  0.00  0.00    +0.000 A 
ATOM     12  C   UNL     1       2.432   4.971  19.847  0.00  0.00    +0.000 A 
ATOM     13  C   UNL     1       1.956   6.092  20.537  0.00  0.00    +0.000 A 
ATOM     14  C   UNL     1       1.869   7.277  19.835  0.00  0.00    +0.000 A 
ATOM     15  N   UNL     1       1.436   8.510  20.295  0.00  0.00    +0.000 N 
ATOM     16  H   UNL     1       1.113   8.716  21.229  0.00  0.00    +0.000 HD
ENDBRANCH   3  11
ENDBRANCH   1   3
BRANCH   1  17
ATOM     17  C   UNL     1       5.723   4.180  16.172  0.00  0.00    +0.000 C 
BRANCH  17  18
ATOM     18  C   UNL     1       6.211   4.174  14.731  0.00  0.00    +0.000 A 
ATOM     19  C   UNL     1       5.549   3.445  13.730  0.00  0.00    +0.000 A 
ATOM     20  C   UNL     1       5.971   3.525  12.402  0.00  0.00    +0.000 A 
ATOM     21  C   UNL     1       7.063   4.322  12.063  0.00  0.00    +0.000 A 
ATOM     22  C   UNL     1       7.758   5.011  13.054  0.00  0.00    +0.000 A 
ATOM     23  C   UNL     1       7.339   4.934  14.380  0.00  0.00    +0.000 A 
ENDBRANCH  17  18
BRANCH  17  24
ATOM     24  C   UNL     1       6.541   5.196  16.984  0.00  0.00    +0.000 A 
ATOM     25  C   UNL     1       6.376   6.572  16.759  0.00  0.00    +0.000 A 
ATOM     26  C   UNL     1       7.089   7.474  17.537  0.00  0.00    +0.000 A 
ATOM     27  N   UNL     1       7.943   7.109  18.513  0.00  0.00    +0.000 NA
ATOM     28  C   UNL     1       8.072   5.786  18.740  0.00  0.00    +0.000 A 
ATOM     29  C   UNL     1       7.399   4.807  18.021  0.00  0.00    +0.000 A 
ENDBRANCH  17  24
ENDBRANCH   1  17
TORSDOF 5
ENDMDL
MODEL 5
REMARK VINA RESULT:      -8.6      2.509      4.943
REMARK  Name = 
REMARK  5 active torsions:
REMARK  status: ('A' for Active; 'I' for Inactive)
REMARK    1  A    between atoms: C_6  and  S_7
REMARK    2  A    between atoms: S_7  and  N_10
REMARK    3  A    between atoms: N_10  and  C_11
REMARK    4  A    between atoms: C_11  and  C_12
REMARK    5  A    between atoms: C_11  and  C_18
REMARK                            x       y       z     vdW  Elec       q    Type
REMARK                         _______ _______ _______ _____ _____    ______ ____
ROOT
ATOM      1  N   UNL     1       3.394   5.215  17.331  0.00  0.00    +0.000 NA
ATOM      2  H   UNL     1       2.609   4.623  17.057  0.00  0.00    +0.000 HD
ENDROOT
BRANCH   1   3
ATOM      3  S   UNL     1       4.849   4.469  16.881  0.00  0.00    +0.000 S 
ATOM      4  O   UNL     1       5.062   4.539  15.457  0.00  0.00    +0.000 OA
ATOM      5  O   UNL     1       4.912   3.212  17.600  0.00  0.00    +0.000 OA
BRANCH   3  11
ATOM      6  O   UNL     1       9.278  10.376  18.497  0.00  0.00    +0.000 OA
ATOM      7  C   UNL     1       8.661   9.332  18.365  0.00  0.00    +0.000 C 
ATOM      8  C   UNL     1       7.485   9.082  17.417  0.00  0.00    +0.000 C 
ATOM      9  C   UNL     1       7.143   7.654  17.713  0.00  0.00    +0.000 A 
ATOM     10  C   UNL     1       6.159   6.858  17.165  0.00  0.00    +0.000 A 
ATOM     11  C   UNL     1       6.063   5.540  17.629  0.00  0.00    +0.000 A 
ATOM     12  C   UNL     1       6.959   5.030  18.596  0.00  0.00    +0.000 A 
ATOM     13  C   UNL     1       7.951   5.855  19.139  0.00  0.00    +0.000 A 
ATOM     14  C   UNL     1       8.013   7.155  18.682  0.00  0.00    +0.000 A 
ATOM     15  N   UNL     1       8.900   8.151  19.059  0.00  0.00    +0.000 N 
ATOM     16  H   UNL     1       9.638   8.061  19.742  0.00  0.00    +0.000 HD
ENDBRANCH   3  11
ENDBRANCH   1   3
BRANCH   1  17
ATOM     17  C   UNL     1       3.241   5.666  18.737  0.00  0.00    +0.000 C 
BRANCH  17  18
ATOM     18  C   UNL     1       2.547   7.011  18.886  0.00  0.00    +0.000 A 
ATOM     19  C   UNL     1       2.381   7.882  17.798  0.00  0.00    +0.000 A 
ATOM     20  C   UNL     1       1.668   9.072  17.948  0.00  0.00    +0.000 A 
ATOM     21  C   UNL     1       1.126   9.410  19.186  0.00  0.00    +0.000 A 
ATOM     22  C   UNL     1       1.326   8.579  20.286  0.00  0.00    +0.000 A 
ATOM     23  C   UNL     1       2.037   7.390  20.139  0.00  0.00    +0.000 A 
ENDBRANCH  17  18
BRANCH  17  24
ATOM     24  C   UNL     1       2.520   4.620  19.601  0.00  0.00    +0.000 A 
ATOM     25  C   UNL     1       3.018   4.295  20.873  0.00  0.00    +0.000 A 
ATOM     26  C   UNL     1       2.324   3.383  21.657  0.00  0.00    +0.000 A 
ATOM     27  N   UNL     1       1.183   2.779  21.271  0.00  0.00    +0.000 NA
ATOM     28  C   UNL     1       0.698   3.121  20.059  0.00  0.00    +0.000 A 
ATOM     29  C   UNL     1       1.314   4.025  19.205  0.00  0.00    +0.000 A 
ENDBRANCH  17  24
ENDBRANCH   1  17
TORSDOF 5
ENDMDL
MODEL 6
REMARK VINA RESULT:      -8.3      2.702      5.349
REMARK  Name = 
REMARK  5 active torsions:
REMARK  status: ('A' for Active; 'I' for Inactive)
REMARK    1  A    between atoms: C_6  and  S_7
REMARK    2  A    between atoms: S_7  and  N_10
REMARK    3  A    between atoms: N_10  and  C_11
REMARK    4  A    between atoms: C_11  and  C_12
REMARK    5  A    between atoms: C_11  and  C_18
REMARK                            x       y       z     vdW  Elec       q    Type
REMARK                         _______ _______ _______ _____ _____    ______ ____
ROOT
ATOM      1  N   UNL     1       4.051   5.284  16.501  0.00  0.00    +0.000 NA
ATOM      2  H   UNL     1       3.404   4.613  16.086  0.00  0.00    +0.000 HD
ENDROOT
BRANCH   1   3
ATOM      3  S   UNL     1       5.631   4.936  15.991  0.00  0.00    +0.000 S 
ATOM      4  O   UNL     1       5.872   5.412  14.652  0.00  0.00    +0.000 OA
ATOM      5  O   UNL     1       5.898   3.563  16.371  0.00  0.00    +0.000 OA
BRANCH   3  11
ATOM      6  O   UNL     1       9.372  10.757  19.030  0.00  0.00    +0.000 OA
ATOM      7  C   UNL     1       8.837   9.719  18.679  0.00  0.00    +0.000 C 
ATOM      8  C   UNL     1       7.915   9.530  17.472  0.00  0.00    +0.000 C 
ATOM      9  C   UNL     1       7.565   8.077  17.570  0.00  0.00    +0.000 A 
ATOM     10  C   UNL     1       6.759   7.314  16.752  0.00  0.00    +0.000 A 
ATOM     11  C   UNL     1       6.607   5.960  17.077  0.00  0.00    +0.000 A 
ATOM     12  C   UNL     1       7.278   5.386  18.180  0.00  0.00    +0.000 A 
ATOM     13  C   UNL     1       8.093   6.178  18.997  0.00  0.00    +0.000 A 
ATOM     14  C   UNL     1       8.211   7.512  18.669  0.00  0.00    +0.000 A 
ATOM     15  N   UNL     1       8.954   8.487  19.315  0.00  0.00    +0.000 N 
ATOM     16  H   UNL     1       9.522   8.352  20.139  0.00  0.00    +0.000 HD
ENDBRANCH   3  11
ENDBRANCH   1   3
BRANCH   1  17
ATOM     17  C   UNL     1       3.797   5.422  17.957  0.00  0.00    +0.000 C 
BRANCH  17  18
ATOM     18  C   UNL     1       3.007   6.665  18.335  0.00  0.00    +0.000 A 
ATOM     19  C   UNL     1       2.435   6.817  19.608  0.00  0.00    +0.000 A 
ATOM     20  C   UNL     1       1.786   8.004  19.953  0.00  0.00    +0.000 A 
ATOM     21  C   UNL     1       1.691   9.043  19.029  0.00  0.00    +0.000 A 
ATOM     22  C   UNL     1       2.211   8.885  17.747  0.00  0.00    +0.000 A 
ATOM     23  C   UNL     1       2.859   7.702  17.399  0.00  0.00    +0.000 A 
ENDBRANCH  17  18
BRANCH  17  24
ATOM     24  C   UNL     1       3.106   4.180  18.540  0.00  0.00    +0.000 A 
ATOM     25  C   UNL     1       1.849   3.781  18.057  0.00  0.00    +0.000 A 
ATOM     26  C   UNL     1       1.265   2.629  18.564  0.00  0.00    +0.000 A 
ATOM     27  N   UNL     1       1.835   1.852  19.506  0.00  0.00    +0.000 NA
ATOM     28  C   UNL     1       3.055   2.228  19.942  0.00  0.00    +0.000 A 
ATOM     29  C   UNL     1       3.724   3.358  19.493  0.00  0.00    +0.000 A 
ENDBRANCH  17  24
ENDBRANCH   1  17
TORSDOF 5
ENDMDL
MODEL 7
REMARK VINA RESULT:      -8.3      3.922      8.261
REMARK  Name = 
REMARK  5 active torsions:
REMARK  status: ('A' for Active; 'I' for Inactive)
REMARK    1  A    between atoms: C_6  and  S_7
REMARK    2  A    between atoms: S_7  and  N_10
REMARK    3  A    between atoms: N_10  and  C_11
REMARK    4  A    between atoms: C_11  and  C_12
REMARK    5  A    between atoms: C_11  and  C_18
REMARK                            x       y       z     vdW  Elec       q    Type
REMARK                         _______ _______ _______ _____ _____    ______ ____
ROOT
ATOM      1  N   UNL     1       2.753   7.545  18.962  0.00  0.00    +0.000 NA
ATOM      2  H   UNL     1       2.458   7.273  19.900  0.00  0.00    +0.000 HD
ENDROOT
BRANCH   1   3
ATOM      3  S   UNL     1       1.764   8.805  18.402  0.00  0.00    +0.000 S 
ATOM      4  O   UNL     1       0.759   8.323  17.488  0.00  0.00    +0.000 OA
ATOM      5  O   UNL     1       2.646   9.902  18.055  0.00  0.00    +0.000 OA
BRANCH   3  11
ATOM      6  O   UNL     1      -2.499  12.537  23.403  0.00  0.00    +0.000 OA
ATOM      7  C   UNL     1      -1.766  11.825  22.738  0.00  0.00    +0.000 C 
ATOM      8  C   UNL     1      -1.483  11.954  21.239  0.00  0.00    +0.000 C 
ATOM      9  C   UNL     1      -0.546  10.812  20.997  0.00  0.00    +0.000 A 
ATOM     10  C   UNL     1       0.063  10.410  19.826  0.00  0.00    +0.000 A 
ATOM     11  C   UNL     1       0.908   9.295  19.887  0.00  0.00    +0.000 A 
ATOM     12  C   UNL     1       1.158   8.624  21.105  0.00  0.00    +0.000 A 
ATOM     13  C   UNL     1       0.532   9.048  22.283  0.00  0.00    +0.000 A 
ATOM     14  C   UNL     1      -0.312  10.136  22.195  0.00  0.00    +0.000 A 
ATOM     15  N   UNL     1      -1.037  10.739  23.210  0.00  0.00    +0.000 N 
ATOM     16  H   UNL     1      -1.050  10.455  24.179  0.00  0.00    +0.000 HD
ENDBRANCH   3  11
ENDBRANCH   1   3
BRANCH   1  17
ATOM     17  C   UNL     1       2.923   6.349  18.100  0.00  0.00    +0.000 C 
BRANCH  17  18
ATOM     18  C   UNL     1       4.372   5.995  17.807  0.00  0.00    +0.000 A 
ATOM     19  C   UNL     1       4.921   6.132  16.522  0.00  0.00    +0.000 A 
ATOM     20  C   UNL     1       6.275   5.877  16.302  0.00  0.00    +0.000 A 
ATOM     21  C   UNL     1       7.091   5.472  17.356  0.00  0.00    +0.000 A 
ATOM     22  C   UNL     1       6.548   5.285  18.625  0.00  0.00    +0.000 A 
ATOM     23  C   UNL     1       5.197   5.538  18.849  0.00  0.00    +0.000 A 
ENDBRANCH  17  18
BRANCH  17  24
ATOM     24  C   UNL     1       2.202   5.120  18.674  0.00  0.00    +0.000 A 
ATOM     25  C   UNL     1       1.791   5.109  20.017  0.00  0.00    +0.000 A 
ATOM     26  C   UNL     1       1.099   4.008  20.502  0.00  0.00    +0.000 A 
ATOM     27  N   UNL     1       0.788   2.929  19.756  0.00  0.00    +0.000 NA
ATOM     28  C   UNL     1       1.163   2.963  18.460  0.00  0.00    +0.000 A 
ATOM     29  C   UNL     1       1.852   4.019  17.880  0.00  0.00    +0.000 A 
ENDBRANCH  17  24
ENDBRANCH   1  17
TORSDOF 5
ENDMDL
MODEL 8
REMARK VINA RESULT:      -8.2      1.406      3.785
REMARK  Name = 
REMARK  5 active torsions:
REMARK  status: ('A' for Active; 'I' for Inactive)
REMARK    1  A    between atoms: C_6  and  S_7
REMARK    2  A    between atoms: S_7  and  N_10
REMARK    3  A    between atoms: N_10  and  C_11
REMARK    4  A    between atoms: C_11  and  C_12
REMARK    5  A    between atoms: C_11  and  C_18
REMARK                            x       y       z     vdW  Elec       q    Type
REMARK                         _______ _______ _______ _____ _____    ______ ____
ROOT
ATOM      1  N   UNL     1       3.786   5.675  18.359  0.00  0.00    +0.000 NA
ATOM      2  H   UNL     1       3.074   5.553  17.638  0.00  0.00    +0.000 HD
ENDROOT
BRANCH   1   3
ATOM      3  S   UNL     1       4.881   4.381  18.299  0.00  0.00    +0.000 S 
ATOM      4  O   UNL     1       4.203   3.121  18.125  0.00  0.00    +0.000 OA
ATOM      5  O   UNL     1       5.833   4.592  19.371  0.00  0.00    +0.000 OA
BRANCH   3  11
ATOM      6  O   UNL     1       7.320   4.094  11.151  0.00  0.00    +0.000 OA
ATOM      7  C   UNL     1       7.060   4.266  12.330  0.00  0.00    +0.000 C 
ATOM      8  C   UNL     1       5.942   3.588  13.126  0.00  0.00    +0.000 C 
ATOM      9  C   UNL     1       6.104   4.204  14.481  0.00  0.00    +0.000 A 
ATOM     10  C   UNL     1       5.379   3.986  15.634  0.00  0.00    +0.000 A 
ATOM     11  C   UNL     1       5.754   4.703  16.777  0.00  0.00    +0.000 A 
ATOM     12  C   UNL     1       6.853   5.591  16.764  0.00  0.00    +0.000 A 
ATOM     13  C   UNL     1       7.576   5.798  15.584  0.00  0.00    +0.000 A 
ATOM     14  C   UNL     1       7.176   5.095  14.466  0.00  0.00    +0.000 A 
ATOM     15  N   UNL     1       7.729   5.126  13.196  0.00  0.00    +0.000 N 
ATOM     16  H   UNL     1       8.518   5.684  12.905  0.00  0.00    +0.000 HD
ENDBRANCH   3  11
ENDBRANCH   1   3
BRANCH   1  17
ATOM     17  C   UNL     1       3.157   6.003  19.663  0.00  0.00    +0.000 C 
BRANCH  17  18
ATOM     18  C   UNL     1       2.278   7.243  19.635  0.00  0.00    +0.000 A 
ATOM     19  C   UNL     1       1.579   7.679  20.772  0.00  0.00    +0.000 A 
ATOM     20  C   UNL     1       0.846   8.866  20.739  0.00  0.00    +0.000 A 
ATOM     21  C   UNL     1       0.793   9.622  19.569  0.00  0.00    +0.000 A 
ATOM     22  C   UNL     1       1.441   9.174  18.420  0.00  0.00    +0.000 A 
ATOM     23  C   UNL     1       2.174   7.990  18.450  0.00  0.00    +0.000 A 
ENDBRANCH  17  18
BRANCH  17  24
ATOM     24  C   UNL     1       2.355   4.820  20.228  0.00  0.00    +0.000 A 
ATOM     25  C   UNL     1       1.316   4.250  19.474  0.00  0.00    +0.000 A 
ATOM     26  C   UNL     1       0.636   3.152  19.982  0.00  0.00    +0.000 A 
ATOM     27  N   UNL     1       0.914   2.585  21.173  0.00  0.00    +0.000 NA
ATOM     28  C   UNL     1       1.932   3.122  21.876  0.00  0.00    +0.000 A 
ATOM     29  C   UNL     1       2.676   4.215  21.451  0.00  0.00    +0.000 A 
ENDBRANCH  17  24
ENDBRANCH   1  17
TORSDOF 5
ENDMDL
MODEL 9
REMARK VINA RESULT:      -8.2      2.733      5.311
REMARK  Name = 
REMARK  5 active torsions:
REMARK  status: ('A' for Active; 'I' for Inactive)
REMARK    1  A    between atoms: C_6  and  S_7
REMARK    2  A    between atoms: S_7  and  N_10
REMARK    3  A    between atoms: N_10  and  C_11
REMARK    4  A    between atoms: C_11  and  C_12
REMARK    5  A    between atoms: C_11  and  C_18
REMARK                            x       y       z     vdW  Elec       q    Type
REMARK                         _______ _______ _______ _____ _____    ______ ____
ROOT
ATOM      1  N   UNL     1       3.860   5.942  16.790  0.00  0.00    +0.000 NA
ATOM      2  H   UNL     1       3.125   5.484  16.251  0.00  0.00    +0.000 HD
ENDROOT
BRANCH   1   3
ATOM      3  S   UNL     1       5.372   5.345  16.307  0.00  0.00    +0.000 S 
ATOM      4  O   UNL     1       5.649   5.656  14.927  0.00  0.00    +0.000 OA
ATOM      5  O   UNL     1       5.466   3.991  16.816  0.00  0.00    +0.000 OA
BRANCH   3  11
ATOM      6  O   UNL     1       9.591  11.032  18.948  0.00  0.00    +0.000 OA
ATOM      7  C   UNL     1       8.992  10.012  18.653  0.00  0.00    +0.000 C 
ATOM      8  C   UNL     1       7.935   9.860  17.555  0.00  0.00    +0.000 C 
ATOM      9  C   UNL     1       7.558   8.416  17.681  0.00  0.00    +0.000 A 
ATOM     10  C   UNL     1       6.644   7.683  16.953  0.00  0.00    +0.000 A 
ATOM     11  C   UNL     1       6.492   6.331  17.284  0.00  0.00    +0.000 A 
ATOM     12  C   UNL     1       7.266   5.727  18.300  0.00  0.00    +0.000 A 
ATOM     13  C   UNL     1       8.189   6.489  19.027  0.00  0.00    +0.000 A 
ATOM     14  C   UNL     1       8.307   7.823  18.697  0.00  0.00    +0.000 A 
ATOM     15  N   UNL     1       9.145   8.771  19.263  0.00  0.00    +0.000 N 
ATOM     16  H   UNL     1       9.797   8.612  20.017  0.00  0.00    +0.000 HD
ENDBRANCH   3  11
ENDBRANCH   1   3
BRANCH   1  17
ATOM     17  C   UNL     1       3.530   5.933  18.236  0.00  0.00    +0.000 C 
BRANCH  17  18
ATOM     18  C   UNL     1       2.656   7.094  18.683  0.00  0.00    +0.000 A 
ATOM     19  C   UNL     1       2.179   7.196  19.999  0.00  0.00    +0.000 A 
ATOM     20  C   UNL     1       1.448   8.315  20.401  0.00  0.00    +0.000 A 
ATOM     21  C   UNL     1       1.175   9.336  19.491  0.00  0.00    +0.000 A 
ATOM     22  C   UNL     1       1.600   9.223  18.169  0.00  0.00    +0.000 A 
ATOM     23  C   UNL     1       2.331   8.107  17.765  0.00  0.00    +0.000 A 
ENDBRANCH  17  18
BRANCH  17  24
ATOM     24  C   UNL     1       2.881   4.609  18.669  0.00  0.00    +0.000 A 
ATOM     25  C   UNL     1       3.439   3.863  19.720  0.00  0.00    +0.000 A 
ATOM     26  C   UNL     1       2.810   2.694  20.127  0.00  0.00    +0.000 A 
ATOM     27  N   UNL     1       1.677   2.221  19.572  0.00  0.00    +0.000 NA
ATOM     28  C   UNL     1       1.134   2.961  18.583  0.00  0.00    +0.000 A 
ATOM     29  C   UNL     1       1.683   4.145  18.110  0.00  0.00    +0.000 A 
ENDBRANCH  17  24
ENDBRANCH   1  17
TORSDOF 5
ENDMDL
