MODEL 1
REMARK VINA RESULT:     -10.0      0.000      0.000
REMARK  Name = 
REMARK  3 active torsions:
REMARK  status: ('A' for Active; 'I' for Inactive)
REMARK    1  A    between atoms: C_10  and  C_11
REMARK    2  A    between atoms: C_15  and  C_17
REMARK    3  A    between atoms: C_21  and  N_22
REMARK                            x       y       z     vdW  Elec       q    Type
REMARK                         _______ _______ _______ _____ _____    ______ ____
ROOT
ATOM      1  C   UNL     1       0.067  11.515  21.552  0.00  0.00    +0.000 C 
ATOM      2  C   UNL     1       1.014  11.802  20.372  0.00  0.00    +0.000 C 
ATOM      3  C   UNL     1       0.943  10.761  19.262  0.00  0.00    +0.000 C 
ATOM      4  N   UNL     1       1.153   9.420  19.795  0.00  0.00    +0.000 N 
ATOM      5  C   UNL     1       1.916   8.546  19.019  0.00  0.00    +0.000 C 
ATOM      6  O   UNL     1       2.436   8.880  17.949  0.00  0.00    +0.000 OA
ATOM      7  C   UNL     1       0.201   9.032  20.842  0.00  0.00    +0.000 C 
ATOM      8  C   UNL     1       0.199  10.043  21.991  0.00  0.00    +0.000 C 
ENDROOT
BRANCH   1  18
ATOM      9  O   UNL     1      -2.069  11.485  19.040  0.00  0.00    +0.000 OA
ATOM     10  C   UNL     1      -1.880  12.287  19.934  0.00  0.00    +0.000 C 
ATOM     11  N   UNL     1      -2.100  13.656  19.836  0.00  0.00    +0.000 N 
ATOM     12  C   UNL     1      -1.983  14.276  21.068  0.00  0.00    +0.000 A 
ATOM     13  C   UNL     1      -2.206  15.600  21.366  0.00  0.00    +0.000 A 
ATOM     14  C   UNL     1      -2.093  15.984  22.702  0.00  0.00    +0.000 A 
ATOM     15  C   UNL     1      -1.764  15.042  23.696  0.00  0.00    +0.000 A 
ATOM     16  C   UNL     1      -1.526  13.705  23.367  0.00  0.00    +0.000 A 
ATOM     17  C   UNL     1      -1.626  13.333  22.039  0.00  0.00    +0.000 A 
ATOM     18  C   UNL     1      -1.402  11.993  21.376  0.00  0.00    +0.000 C 
ATOM     19  H   UNL     1      -2.430  14.091  18.985  0.00  0.00    +0.000 HD
ENDBRANCH   1  18
BRANCH   5  20
ATOM     20  C   UNL     1       2.147   7.149  19.448  0.00  0.00    +0.000 A 
ATOM     21  C   UNL     1       1.436   6.645  20.537  0.00  0.00    +0.000 A 
ATOM     22  C   UNL     1       1.772   5.396  21.055  0.00  0.00    +0.000 A 
ATOM     23  C   UNL     1       2.770   4.629  20.449  0.00  0.00    +0.000 A 
ATOM     24  C   UNL     1       3.362   5.048  19.251  0.00  0.00    +0.000 A 
ATOM     25  C   UNL     1       3.036   6.324  18.763  0.00  0.00    +0.000 A 
BRANCH  24  26
ATOM     26  N   UNL     1       4.396   4.305  18.618  0.00  0.00    +0.000 N 
ATOM     27  C   UNL     1       5.725   4.649  18.731  0.00  0.00    +0.000 C 
ATOM     28  O   UNL     1       6.386   5.057  19.669  0.00  0.00    +0.000 OA
ATOM     29  C   UNL     1       6.256   4.547  17.376  0.00  0.00    +0.000 A 
ATOM     30  C   UNL     1       7.215   5.359  16.805  0.00  0.00    +0.000 A 
ATOM     31  C   UNL     1       7.179   5.495  15.416  0.00  0.00    +0.000 A 
ATOM     32  C   UNL     1       6.237   4.792  14.635  0.00  0.00    +0.000 A 
ATOM     33  C   UNL     1       5.300   3.948  15.231  0.00  0.00    +0.000 A 
ATOM     34  C   UNL     1       5.324   3.876  16.609  0.00  0.00    +0.000 A 
ATOM     35  C   UNL     1       4.187   3.586  17.463  0.00  0.00    +0.000 C 
ATOM     36  O   UNL     1       3.240   2.916  17.093  0.00  0.00    +0.000 OA
ENDBRANCH  24  26
ENDBRANCH   5  20
TORSDOF 3
ENDMDL
MODEL 2
REMARK VINA RESULT:      -9.6      1.165      1.457
REMARK  Name = 
REMARK  3 active torsions:
REMARK  status: ('A' for Active; 'I' for Inactive)
REMARK    1  A    between atoms: C_10  and  C_11
REMARK    2  A    between atoms: C_15  and  C_17
REMARK    3  A    between atoms: C_21  and  N_22
REMARK                            x       y       z     vdW  Elec       q    Type
REMARK                         _______ _______ _______ _____ _____    ______ ____
ROOT
ATOM      1  C   UNL     1       0.670  12.474  20.477  0.00  0.00    +0.000 C 
ATOM      2  C   UNL     1       1.583  12.490  19.237  0.00  0.00    +0.000 C 
ATOM      3  C   UNL     1       1.357  11.315  18.294  0.00  0.00    +0.000 C 
ATOM      4  N   UNL     1       1.458  10.049  19.010  0.00  0.00    +0.000 N 
ATOM      5  C   UNL     1       2.093   8.999  18.344  0.00  0.00    +0.000 C 
ATOM      6  O   UNL     1       2.592   9.121  17.221  0.00  0.00    +0.000 OA
ATOM      7  C   UNL     1       0.523   9.915  20.132  0.00  0.00    +0.000 C 
ATOM      8  C   UNL     1       0.675  11.073  21.121  0.00  0.00    +0.000 C 
ENDROOT
BRANCH   1  18
ATOM      9  O   UNL     1      -0.498  15.154  18.951  0.00  0.00    +0.000 OA
ATOM     10  C   UNL     1      -0.841  14.587  19.971  0.00  0.00    +0.000 C 
ATOM     11  N   UNL     1      -1.431  15.206  21.067  0.00  0.00    +0.000 N 
ATOM     12  C   UNL     1      -1.885  14.277  21.987  0.00  0.00    +0.000 A 
ATOM     13  C   UNL     1      -2.583  14.518  23.147  0.00  0.00    +0.000 A 
ATOM     14  C   UNL     1      -2.998  13.410  23.887  0.00  0.00    +0.000 A 
ATOM     15  C   UNL     1      -2.710  12.103  23.448  0.00  0.00    +0.000 A 
ATOM     16  C   UNL     1      -1.986  11.883  22.274  0.00  0.00    +0.000 A 
ATOM     17  C   UNL     1      -1.564  12.986  21.552  0.00  0.00    +0.000 A 
ATOM     18  C   UNL     1      -0.751  13.074  20.281  0.00  0.00    +0.000 C 
ATOM     19  H   UNL     1      -1.608  16.201  21.095  0.00  0.00    +0.000 HD
ENDBRANCH   1  18
BRANCH   5  20
ATOM     20  C   UNL     1       2.204   7.660  18.964  0.00  0.00    +0.000 A 
ATOM     21  C   UNL     1       1.499   7.393  20.138  0.00  0.00    +0.000 A 
ATOM     22  C   UNL     1       1.734   6.201  20.821  0.00  0.00    +0.000 A 
ATOM     23  C   UNL     1       2.621   5.255  20.301  0.00  0.00    +0.000 A 
ATOM     24  C   UNL     1       3.194   5.437  19.035  0.00  0.00    +0.000 A 
ATOM     25  C   UNL     1       2.974   6.658  18.378  0.00  0.00    +0.000 A 
BRANCH  24  26
ATOM     26  N   UNL     1       4.119   4.507  18.485  0.00  0.00    +0.000 N 
ATOM     27  C   UNL     1       5.475   4.598  18.706  0.00  0.00    +0.000 C 
ATOM     28  O   UNL     1       6.123   4.884  19.696  0.00  0.00    +0.000 OA
ATOM     29  C   UNL     1       6.084   4.385  17.398  0.00  0.00    +0.000 A 
ATOM     30  C   UNL     1       7.221   4.998  16.910  0.00  0.00    +0.000 A 
ATOM     31  C   UNL     1       7.323   5.125  15.523  0.00  0.00    +0.000 A 
ATOM     32  C   UNL     1       6.332   4.602  14.665  0.00  0.00    +0.000 A 
ATOM     33  C   UNL     1       5.209   3.954  15.179  0.00  0.00    +0.000 A 
ATOM     34  C   UNL     1       5.108   3.893  16.554  0.00  0.00    +0.000 A 
ATOM     35  C   UNL     1       3.872   3.829  17.313  0.00  0.00    +0.000 C 
ATOM     36  O   UNL     1       2.849   3.344  16.864  0.00  0.00    +0.000 OA
ENDBRANCH  24  26
ENDBRANCH   5  20
TORSDOF 3
ENDMDL
MODEL 3
REMARK VINA RESULT:      -9.6      2.009     10.468
REMARK  Name = 
REMARK  3 active torsions:
REMARK  status: ('A' for Active; 'I' for Inactive)
REMARK    1  A    between atoms: C_10  and  C_11
REMARK    2  A    between atoms: C_15  and  C_17
REMARK    3  A    between atoms: C_21  and  N_22
REMARK                            x       y       z     vdW  Elec       q    Type
REMARK                         _______ _______ _______ _____ _____    ______ ____
ROOT
ATOM      1  C   UNL     1       3.351   5.840  17.955  0.00  0.00    +0.000 C 
ATOM      2  C   UNL     1       3.873   7.004  17.092  0.00  0.00    +0.000 C 
ATOM      3  C   UNL     1       3.756   8.366  17.765  0.00  0.00    +0.000 C 
ATOM      4  N   UNL     1       2.390   8.609  18.211  0.00  0.00    +0.000 N 
ATOM      5  C   UNL     1       1.897   9.906  18.054  0.00  0.00    +0.000 C 
ATOM      6  O   UNL     1       2.551  10.812  17.526  0.00  0.00    +0.000 OA
ATOM      7  C   UNL     1       1.870   7.600  19.140  0.00  0.00    +0.000 C 
ATOM      8  C   UNL     1       1.970   6.194  18.543  0.00  0.00    +0.000 C 
ENDROOT
BRANCH   1  18
ATOM      9  O   UNL     1       6.420   4.648  17.771  0.00  0.00    +0.000 OA
ATOM     10  C   UNL     1       5.469   4.338  18.464  0.00  0.00    +0.000 C 
ATOM     11  N   UNL     1       5.222   3.060  18.952  0.00  0.00    +0.000 N 
ATOM     12  C   UNL     1       4.181   3.060  19.863  0.00  0.00    +0.000 A 
ATOM     13  C   UNL     1       3.711   1.999  20.601  0.00  0.00    +0.000 A 
ATOM     14  C   UNL     1       2.689   2.256  21.516  0.00  0.00    +0.000 A 
ATOM     15  C   UNL     1       2.171   3.557  21.668  0.00  0.00    +0.000 A 
ATOM     16  C   UNL     1       2.653   4.617  20.896  0.00  0.00    +0.000 A 
ATOM     17  C   UNL     1       3.657   4.352  19.981  0.00  0.00    +0.000 A 
ATOM     18  C   UNL     1       4.352   5.265  18.997  0.00  0.00    +0.000 C 
ATOM     19  H   UNL     1       5.827   2.276  18.747  0.00  0.00    +0.000 HD
ENDBRANCH   1  18
BRANCH   5  20
ATOM     20  C   UNL     1       0.540  10.267  18.518  0.00  0.00    +0.000 A 
ATOM     21  C   UNL     1      -0.567   9.845  17.782  0.00  0.00    +0.000 A 
ATOM     22  C   UNL     1      -1.832  10.326  18.112  0.00  0.00    +0.000 A 
ATOM     23  C   UNL     1      -1.998  11.174  19.210  0.00  0.00    +0.000 A 
ATOM     24  C   UNL     1      -0.922  11.457  20.060  0.00  0.00    +0.000 A 
ATOM     25  C   UNL     1       0.352  10.993  19.693  0.00  0.00    +0.000 A 
BRANCH  24  26
ATOM     26  N   UNL     1      -1.048  12.334  21.172  0.00  0.00    +0.000 N 
ATOM     27  C   UNL     1      -1.265  11.874  22.452  0.00  0.00    +0.000 C 
ATOM     28  O   UNL     1      -0.818  10.921  23.064  0.00  0.00    +0.000 OA
ATOM     29  C   UNL     1      -2.315  12.734  22.987  0.00  0.00    +0.000 A 
ATOM     30  C   UNL     1      -3.330  12.357  23.844  0.00  0.00    +0.000 A 
ATOM     31  C   UNL     1      -4.511  13.101  23.787  0.00  0.00    +0.000 A 
ATOM     32  C   UNL     1      -4.633  14.217  22.932  0.00  0.00    +0.000 A 
ATOM     33  C   UNL     1      -3.581  14.602  22.101  0.00  0.00    +0.000 A 
ATOM     34  C   UNL     1      -2.448  13.815  22.137  0.00  0.00    +0.000 A 
ATOM     35  C   UNL     1      -1.512  13.624  21.045  0.00  0.00    +0.000 C 
ATOM     36  O   UNL     1      -1.329  14.463  20.181  0.00  0.00    +0.000 OA
ENDBRANCH  24  26
ENDBRANCH   5  20
TORSDOF 3
ENDMDL
MODEL 4
REMARK VINA RESULT:      -9.6      2.312      3.695
REMARK  Name = 
REMARK  3 active torsions:
REMARK  status: ('A' for Active; 'I' for Inactive)
REMARK    1  A    between atoms: C_10  and  C_11
REMARK    2  A    between atoms: C_15  and  C_17
REMARK    3  A    between atoms: C_21  and  N_22
REMARK                            x       y       z     vdW  Elec       q    Type
REMARK                         _______ _______ _______ _____ _____    ______ ____
ROOT
ATOM      1  C   UNL     1       0.071   9.916  20.410  0.00  0.00    +0.000 C 
ATOM      2  C   UNL     1      -0.211   8.775  21.405  0.00  0.00    +0.000 C 
ATOM      3  C   UNL     1       0.969   7.831  21.606  0.00  0.00    +0.000 C 
ATOM      4  N   UNL     1       1.442   7.314  20.328  0.00  0.00    +0.000 N 
ATOM      5  C   UNL     1       1.832   5.974  20.297  0.00  0.00    +0.000 C 
ATOM      6  O   UNL     1       1.749   5.229  21.278  0.00  0.00    +0.000 OA
ATOM      7  C   UNL     1       1.849   8.349  19.372  0.00  0.00    +0.000 C 
ATOM      8  C   UNL     1       0.719   9.353  19.129  0.00  0.00    +0.000 C 
ENDROOT
BRANCH   1  18
ATOM      9  O   UNL     1      -0.435  11.850  23.032  0.00  0.00    +0.000 OA
ATOM     10  C   UNL     1      -0.024  12.092  21.913  0.00  0.00    +0.000 C 
ATOM     11  N   UNL     1      -0.190  13.300  21.246  0.00  0.00    +0.000 N 
ATOM     12  C   UNL     1       0.550  13.339  20.078  0.00  0.00    +0.000 A 
ATOM     13  C   UNL     1       0.690  14.394  19.207  0.00  0.00    +0.000 A 
ATOM     14  C   UNL     1       1.552  14.221  18.123  0.00  0.00    +0.000 A 
ATOM     15  C   UNL     1       2.247  13.009  17.943  0.00  0.00    +0.000 A 
ATOM     16  C   UNL     1       2.076  11.945  18.832  0.00  0.00    +0.000 A 
ATOM     17  C   UNL     1       1.210  12.118  19.897  0.00  0.00    +0.000 A 
ATOM     18  C   UNL     1       0.799  11.160  20.992  0.00  0.00    +0.000 C 
ATOM     19  H   UNL     1      -0.690  14.079  21.655  0.00  0.00    +0.000 HD
ENDBRANCH   1  18
BRANCH   5  20
ATOM     20  C   UNL     1       2.372   5.366  19.061  0.00  0.00    +0.000 A 
ATOM     21  C   UNL     1       1.584   4.465  18.344  0.00  0.00    +0.000 A 
ATOM     22  C   UNL     1       2.147   3.757  17.284  0.00  0.00    +0.000 A 
ATOM     23  C   UNL     1       3.469   3.995  16.902  0.00  0.00    +0.000 A 
ATOM     24  C   UNL     1       4.208   5.025  17.499  0.00  0.00    +0.000 A 
ATOM     25  C   UNL     1       3.639   5.703  18.588  0.00  0.00    +0.000 A 
BRANCH  24  26
ATOM     26  N   UNL     1       5.564   5.281  17.152  0.00  0.00    +0.000 N 
ATOM     27  C   UNL     1       6.614   4.907  17.961  0.00  0.00    +0.000 C 
ATOM     28  O   UNL     1       6.816   3.908  18.626  0.00  0.00    +0.000 OA
ATOM     29  C   UNL     1       7.496   6.068  17.991  0.00  0.00    +0.000 A 
ATOM     30  C   UNL     1       8.242   6.506  19.067  0.00  0.00    +0.000 A 
ATOM     31  C   UNL     1       8.542   7.869  19.113  0.00  0.00    +0.000 A 
ATOM     32  C   UNL     1       8.144   8.742  18.078  0.00  0.00    +0.000 A 
ATOM     33  C   UNL     1       7.422   8.270  16.981  0.00  0.00    +0.000 A 
ATOM     34  C   UNL     1       7.092   6.931  16.991  0.00  0.00    +0.000 A 
ATOM     35  C   UNL     1       5.933   6.337  16.350  0.00  0.00    +0.000 C 
ATOM     36  O   UNL     1       5.406   6.821  15.365  0.00  0.00    +0.000 OA
ENDBRANCH  24  26
ENDBRANCH   5  20
TORSDOF 3
ENDMDL
MODEL 5
REMARK VINA RESULT:      -9.6      3.004     10.250
REMARK  Name = 
REMARK  3 active torsions:
REMARK  status: ('A' for Active; 'I' for Inactive)
REMARK    1  A    between atoms: C_10  and  C_11
REMARK    2  A    between atoms: C_15  and  C_17
REMARK    3  A    between atoms: C_21  and  N_22
REMARK                            x       y       z     vdW  Elec       q    Type
REMARK                         _______ _______ _______ _____ _____    ______ ____
ROOT
ATOM      1  C   UNL     1       3.760   6.692  18.327  0.00  0.00    +0.000 C 
ATOM      2  C   UNL     1       3.306   6.608  19.796  0.00  0.00    +0.000 C 
ATOM      3  C   UNL     1       1.840   6.967  20.006  0.00  0.00    +0.000 C 
ATOM      4  N   UNL     1       1.539   8.272  19.432  0.00  0.00    +0.000 N 
ATOM      5  C   UNL     1       0.671   9.093  20.156  0.00  0.00    +0.000 C 
ATOM      6  O   UNL     1       0.201   8.770  21.251  0.00  0.00    +0.000 OA
ATOM      7  C   UNL     1       1.831   8.384  17.999  0.00  0.00    +0.000 C 
ATOM      8  C   UNL     1       3.288   8.019  17.701  0.00  0.00    +0.000 C 
ENDROOT
BRANCH   1  18
ATOM      9  O   UNL     1       2.561   3.685  18.956  0.00  0.00    +0.000 OA
ATOM     10  C   UNL     1       3.407   4.073  18.174  0.00  0.00    +0.000 C 
ATOM     11  N   UNL     1       4.495   3.325  17.739  0.00  0.00    +0.000 N 
ATOM     12  C   UNL     1       5.166   3.959  16.710  0.00  0.00    +0.000 A 
ATOM     13  C   UNL     1       6.236   3.486  15.988  0.00  0.00    +0.000 A 
ATOM     14  C   UNL     1       6.707   4.281  14.941  0.00  0.00    +0.000 A 
ATOM     15  C   UNL     1       6.097   5.515  14.647  0.00  0.00    +0.000 A 
ATOM     16  C   UNL     1       5.021   5.984  15.405  0.00  0.00    +0.000 A 
ATOM     17  C   UNL     1       4.569   5.198  16.450  0.00  0.00    +0.000 A 
ATOM     18  C   UNL     1       3.464   5.441  17.452  0.00  0.00    +0.000 C 
ATOM     19  H   UNL     1       4.667   2.383  18.065  0.00  0.00    +0.000 HD
ENDBRANCH   1  18
BRANCH   5  20
ATOM     20  C   UNL     1       0.264  10.417  19.637  0.00  0.00    +0.000 A 
ATOM     21  C   UNL     1      -0.915  10.526  18.897  0.00  0.00    +0.000 A 
ATOM     22  C   UNL     1      -1.214  11.727  18.258  0.00  0.00    +0.000 A 
ATOM     23  C   UNL     1      -0.372  12.832  18.410  0.00  0.00    +0.000 A 
ATOM     24  C   UNL     1       0.713  12.785  19.294  0.00  0.00    +0.000 A 
ATOM     25  C   UNL     1       1.020  11.557  19.901  0.00  0.00    +0.000 A 
BRANCH  24  26
ATOM     26  N   UNL     1       1.604  13.882  19.455  0.00  0.00    +0.000 N 
ATOM     27  C   UNL     1       1.199  15.090  19.979  0.00  0.00    +0.000 C 
ATOM     28  O   UNL     1       0.448  15.371  20.895  0.00  0.00    +0.000 OA
ATOM     29  C   UNL     1       1.783  16.096  19.099  0.00  0.00    +0.000 A 
ATOM     30  C   UNL     1       1.212  17.298  18.730  0.00  0.00    +0.000 A 
ATOM     31  C   UNL     1       1.607  17.832  17.502  0.00  0.00    +0.000 A 
ATOM     32  C   UNL     1       2.583  17.195  16.706  0.00  0.00    +0.000 A 
ATOM     33  C   UNL     1       3.173  16.000  17.115  0.00  0.00    +0.000 A 
ATOM     34  C   UNL     1       2.723  15.466  18.306  0.00  0.00    +0.000 A 
ATOM     35  C   UNL     1       2.710  14.058  18.654  0.00  0.00    +0.000 C 
ATOM     36  O   UNL     1       3.500  13.258  18.188  0.00  0.00    +0.000 OA
ENDBRANCH  24  26
ENDBRANCH   5  20
TORSDOF 3
ENDMDL
MODEL 6
REMARK VINA RESULT:      -9.5      2.250      2.989
REMARK  Name = 
REMARK  3 active torsions:
REMARK  status: ('A' for Active; 'I' for Inactive)
REMARK    1  A    between atoms: C_10  and  C_11
REMARK    2  A    between atoms: C_15  and  C_17
REMARK    3  A    between atoms: C_21  and  N_22
REMARK                            x       y       z     vdW  Elec       q    Type
REMARK                         _______ _______ _______ _____ _____    ______ ____
ROOT
ATOM      1  C   UNL     1      -0.367  11.673  19.034  0.00  0.00    +0.000 C 
ATOM      2  C   UNL     1      -0.313  11.465  20.559  0.00  0.00    +0.000 C 
ATOM      3  C   UNL     1       0.926  10.714  21.031  0.00  0.00    +0.000 C 
ATOM      4  N   UNL     1       1.069   9.450  20.320  0.00  0.00    +0.000 N 
ATOM      5  C   UNL     1       1.506   8.354  21.065  0.00  0.00    +0.000 C 
ATOM      6  O   UNL     1       1.728   8.414  22.279  0.00  0.00    +0.000 OA
ATOM      7  C   UNL     1       1.150   9.585  18.861  0.00  0.00    +0.000 C 
ATOM      8  C   UNL     1      -0.055  10.349  18.308  0.00  0.00    +0.000 C 
ENDROOT
BRANCH   1  18
ATOM      9  O   UNL     1       2.684  12.090  17.855  0.00  0.00    +0.000 OA
ATOM     10  C   UNL     1       1.967  12.811  18.523  0.00  0.00    +0.000 C 
ATOM     11  N   UNL     1       2.417  13.748  19.446  0.00  0.00    +0.000 N 
ATOM     12  C   UNL     1       1.382  14.545  19.901  0.00  0.00    +0.000 A 
ATOM     13  C   UNL     1       1.463  15.619  20.756  0.00  0.00    +0.000 A 
ATOM     14  C   UNL     1       0.285  16.319  21.020  0.00  0.00    +0.000 A 
ATOM     15  C   UNL     1      -0.931  15.932  20.424  0.00  0.00    +0.000 A 
ATOM     16  C   UNL     1      -0.992  14.827  19.571  0.00  0.00    +0.000 A 
ATOM     17  C   UNL     1       0.176  14.128  19.324  0.00  0.00    +0.000 A 
ATOM     18  C   UNL     1       0.423  12.895  18.486  0.00  0.00    +0.000 C 
ATOM     19  H   UNL     1       3.399  13.889  19.638  0.00  0.00    +0.000 HD
ENDBRANCH   1  18
BRANCH   5  20
ATOM     20  C   UNL     1       1.730   7.039  20.427  0.00  0.00    +0.000 A 
ATOM     21  C   UNL     1       0.847   5.992  20.696  0.00  0.00    +0.000 A 
ATOM     22  C   UNL     1       1.147   4.709  20.242  0.00  0.00    +0.000 A 
ATOM     23  C   UNL     1       2.290   4.486  19.470  0.00  0.00    +0.000 A 
ATOM     24  C   UNL     1       3.083   5.560  19.044  0.00  0.00    +0.000 A 
ATOM     25  C   UNL     1       2.786   6.839  19.540  0.00  0.00    +0.000 A 
BRANCH  24  26
ATOM     26  N   UNL     1       4.266   5.368  18.278  0.00  0.00    +0.000 N 
ATOM     27  C   UNL     1       5.354   4.677  18.763  0.00  0.00    +0.000 C 
ATOM     28  O   UNL     1       5.446   3.666  19.434  0.00  0.00    +0.000 OA
ATOM     29  C   UNL     1       6.508   5.496  18.406  0.00  0.00    +0.000 A 
ATOM     30  C   UNL     1       7.655   5.671  19.153  0.00  0.00    +0.000 A 
ATOM     31  C   UNL     1       8.352   6.867  18.966  0.00  0.00    +0.000 A 
ATOM     32  C   UNL     1       7.928   7.821  18.017  0.00  0.00    +0.000 A 
ATOM     33  C   UNL     1       6.786   7.606  17.246  0.00  0.00    +0.000 A 
ATOM     34  C   UNL     1       6.086   6.442  17.493  0.00  0.00    +0.000 A 
ATOM     35  C   UNL     1       4.660   6.251  17.298  0.00  0.00    +0.000 C 
ATOM     36  O   UNL     1       4.019   6.879  16.476  0.00  0.00    +0.000 OA
ENDBRANCH  24  26
ENDBRANCH   5  20
TORSDOF 3
ENDMDL
MODEL 7
REMARK VINA RESULT:      -9.5      2.262      3.881
REMARK  Name = 
REMARK  3 active torsions:
REMARK  status: ('A' for Active; 'I' for Inactive)
REMARK    1  A    between atoms: C_10  and  C_11
REMARK    2  A    between atoms: C_15  and  C_17
REMARK    3  A    between atoms: C_21  and  N_22
REMARK                            x       y       z     vdW  Elec       q    Type
REMARK                         _______ _______ _______ _____ _____    ______ ____
ROOT
ATOM      1  C   UNL     1      -2.148  13.566  21.052  0.00  0.00    +0.000 C 
ATOM      2  C   UNL     1      -2.532  12.380  21.956  0.00  0.00    +0.000 C 
ATOM      3  C   UNL     1      -1.344  11.530  22.391  0.00  0.00    +0.000 C 
ATOM      4  N   UNL     1      -0.574  11.088  21.235  0.00  0.00    +0.000 N 
ATOM      5  C   UNL     1      -0.074   9.784  21.274  0.00  0.00    +0.000 C 
ATOM      6  O   UNL     1      -0.295   9.009  22.210  0.00  0.00    +0.000 OA
ATOM      7  C   UNL     1      -0.067  12.177  20.394  0.00  0.00    +0.000 C 
ATOM      8  C   UNL     1      -1.204  13.092  19.930  0.00  0.00    +0.000 C 
ENDROOT
BRANCH   1  18
ATOM      9  O   UNL     1       0.644  14.417  22.585  0.00  0.00    +0.000 OA
ATOM     10  C   UNL     1      -0.520  14.686  22.812  0.00  0.00    +0.000 C 
ATOM     11  N   UNL     1      -1.048  14.942  24.072  0.00  0.00    +0.000 N 
ATOM     12  C   UNL     1      -2.348  15.407  23.990  0.00  0.00    +0.000 A 
ATOM     13  C   UNL     1      -3.155  15.831  25.020  0.00  0.00    +0.000 A 
ATOM     14  C   UNL     1      -4.416  16.326  24.685  0.00  0.00    +0.000 A 
ATOM     15  C   UNL     1      -4.831  16.387  23.340  0.00  0.00    +0.000 A 
ATOM     16  C   UNL     1      -4.000  15.935  22.312  0.00  0.00    +0.000 A 
ATOM     17  C   UNL     1      -2.757  15.432  22.652  0.00  0.00    +0.000 A 
ATOM     18  C   UNL     1      -1.665  14.850  21.784  0.00  0.00    +0.000 C 
ATOM     19  H   UNL     1      -0.485  14.908  24.911  0.00  0.00    +0.000 HD
ENDBRANCH   1  18
BRANCH   5  20
ATOM     20  C   UNL     1       0.760   9.255  20.173  0.00  0.00    +0.000 A 
ATOM     21  C   UNL     1       0.748   9.902  18.937  0.00  0.00    +0.000 A 
ATOM     22  C   UNL     1       1.389   9.313  17.849  0.00  0.00    +0.000 A 
ATOM     23  C   UNL     1       2.092   8.117  18.011  0.00  0.00    +0.000 A 
ATOM     24  C   UNL     1       2.261   7.556  19.284  0.00  0.00    +0.000 A 
ATOM     25  C   UNL     1       1.579   8.143  20.361  0.00  0.00    +0.000 A 
BRANCH  24  26
ATOM     26  N   UNL     1       2.950   6.328  19.482  0.00  0.00    +0.000 N 
ATOM     27  C   UNL     1       3.853   5.833  18.568  0.00  0.00    +0.000 C 
ATOM     28  O   UNL     1       4.707   6.375  17.890  0.00  0.00    +0.000 OA
ATOM     29  C   UNL     1       3.520   4.419  18.438  0.00  0.00    +0.000 A 
ATOM     30  C   UNL     1       3.589   3.660  17.287  0.00  0.00    +0.000 A 
ATOM     31  C   UNL     1       2.730   2.563  17.203  0.00  0.00    +0.000 A 
ATOM     32  C   UNL     1       1.872   2.221  18.271  0.00  0.00    +0.000 A 
ATOM     33  C   UNL     1       1.846   2.981  19.440  0.00  0.00    +0.000 A 
ATOM     34  C   UNL     1       2.665   4.092  19.472  0.00  0.00    +0.000 A 
ATOM     35  C   UNL     1       2.424   5.302  20.235  0.00  0.00    +0.000 C 
ATOM     36  O   UNL     1       1.781   5.311  21.269  0.00  0.00    +0.000 OA
ENDBRANCH  24  26
ENDBRANCH   5  20
TORSDOF 3
ENDMDL
MODEL 8
REMARK VINA RESULT:      -9.5      2.865      5.164
REMARK  Name = 
REMARK  3 active torsions:
REMARK  status: ('A' for Active; 'I' for Inactive)
REMARK    1  A    between atoms: C_10  and  C_11
REMARK    2  A    between atoms: C_15  and  C_17
REMARK    3  A    between atoms: C_21  and  N_22
REMARK                            x       y       z     vdW  Elec       q    Type
REMARK                         _______ _______ _______ _____ _____    ______ ____
ROOT
ATOM      1  C   UNL     1      -1.732  13.520  23.785  0.00  0.00    +0.000 C 
ATOM      2  C   UNL     1      -1.064  14.605  22.920  0.00  0.00    +0.000 C 
ATOM      3  C   UNL     1      -1.498  14.578  21.460  0.00  0.00    +0.000 C 
ATOM      4  N   UNL     1      -1.306  13.251  20.887  0.00  0.00    +0.000 N 
ATOM      5  C   UNL     1      -0.837  13.194  19.573  0.00  0.00    +0.000 C 
ATOM      6  O   UNL     1      -0.551  14.202  18.919  0.00  0.00    +0.000 OA
ATOM      7  C   UNL     1      -2.020  12.181  21.591  0.00  0.00    +0.000 C 
ATOM      8  C   UNL     1      -1.651  12.154  23.077  0.00  0.00    +0.000 C 
ENDROOT
BRANCH   1  18
ATOM      9  O   UNL     1      -4.781  12.484  23.078  0.00  0.00    +0.000 OA
ATOM     10  C   UNL     1      -4.351  13.572  23.410  0.00  0.00    +0.000 C 
ATOM     11  N   UNL     1      -4.902  14.793  23.040  0.00  0.00    +0.000 N 
ATOM     12  C   UNL     1      -4.315  15.841  23.726  0.00  0.00    +0.000 A 
ATOM     13  C   UNL     1      -4.653  17.173  23.675  0.00  0.00    +0.000 A 
ATOM     14  C   UNL     1      -3.960  18.044  24.516  0.00  0.00    +0.000 A 
ATOM     15  C   UNL     1      -2.958  17.563  25.381  0.00  0.00    +0.000 A 
ATOM     16  C   UNL     1      -2.620  16.207  25.404  0.00  0.00    +0.000 A 
ATOM     17  C   UNL     1      -3.301  15.351  24.558  0.00  0.00    +0.000 A 
ATOM     18  C   UNL     1      -3.146  13.864  24.334  0.00  0.00    +0.000 C 
ATOM     19  H   UNL     1      -5.714  14.861  22.441  0.00  0.00    +0.000 HD
ENDBRANCH   1  18
BRANCH   5  20
ATOM     20  C   UNL     1      -0.655  11.898  18.884  0.00  0.00    +0.000 A 
ATOM     21  C   UNL     1      -1.596  11.492  17.936  0.00  0.00    +0.000 A 
ATOM     22  C   UNL     1      -1.528  10.202  17.414  0.00  0.00    +0.000 A 
ATOM     23  C   UNL     1      -0.490   9.345  17.789  0.00  0.00    +0.000 A 
ATOM     24  C   UNL     1       0.557   9.805  18.598  0.00  0.00    +0.000 A 
ATOM     25  C   UNL     1       0.454  11.095  19.143  0.00  0.00    +0.000 A 
BRANCH  24  26
ATOM     26  N   UNL     1       1.616   8.955  19.019  0.00  0.00    +0.000 N 
ATOM     27  C   UNL     1       2.388   8.243  18.127  0.00  0.00    +0.000 C 
ATOM     28  O   UNL     1       2.849   8.529  17.037  0.00  0.00    +0.000 OA
ATOM     29  C   UNL     1       2.485   6.905  18.700  0.00  0.00    +0.000 A 
ATOM     30  C   UNL     1       2.513   5.713  18.005  0.00  0.00    +0.000 A 
ATOM     31  C   UNL     1       2.038   4.582  18.674  0.00  0.00    +0.000 A 
ATOM     32  C   UNL     1       1.603   4.653  20.014  0.00  0.00    +0.000 A 
ATOM     33  C   UNL     1       1.619   5.863  20.709  0.00  0.00    +0.000 A 
ATOM     34  C   UNL     1       2.040   6.973  20.005  0.00  0.00    +0.000 A 
ATOM     35  C   UNL     1       1.624   8.341  20.251  0.00  0.00    +0.000 C 
ATOM     36  O   UNL     1       1.270   8.734  21.347  0.00  0.00    +0.000 OA
ENDBRANCH  24  26
ENDBRANCH   5  20
TORSDOF 3
ENDMDL
MODEL 9
REMARK VINA RESULT:      -9.4      3.025      4.412
REMARK  Name = 
REMARK  3 active torsions:
REMARK  status: ('A' for Active; 'I' for Inactive)
REMARK    1  A    between atoms: C_10  and  C_11
REMARK    2  A    between atoms: C_15  and  C_17
REMARK    3  A    between atoms: C_21  and  N_22
REMARK                            x       y       z     vdW  Elec       q    Type
REMARK                         _______ _______ _______ _____ _____    ______ ____
ROOT
ATOM      1  C   UNL     1      -0.548  13.899  18.966  0.00  0.00    +0.000 C 
ATOM      2  C   UNL     1      -1.429  13.024  19.876  0.00  0.00    +0.000 C 
ATOM      3  C   UNL     1      -0.639  12.059  20.751  0.00  0.00    +0.000 C 
ATOM      4  N   UNL     1       0.261  11.245  19.943  0.00  0.00    +0.000 N 
ATOM      5  C   UNL     1       0.393   9.903  20.308  0.00  0.00    +0.000 C 
ATOM      6  O   UNL     1      -0.241   9.396  21.238  0.00  0.00    +0.000 OA
ATOM      7  C   UNL     1       1.217  12.016  19.142  0.00  0.00    +0.000 C 
ATOM      8  C   UNL     1       0.498  13.027  18.244  0.00  0.00    +0.000 C 
ENDROOT
BRANCH   1  18
ATOM      9  O   UNL     1      -1.852  16.440  20.612  0.00  0.00    +0.000 OA
ATOM     10  C   UNL     1      -0.923  16.372  19.831  0.00  0.00    +0.000 C 
ATOM     11  N   UNL     1      -0.518  17.395  18.981  0.00  0.00    +0.000 N 
ATOM     12  C   UNL     1       0.679  17.091  18.358  0.00  0.00    +0.000 A 
ATOM     13  C   UNL     1       1.414  17.891  17.516  0.00  0.00    +0.000 A 
ATOM     14  C   UNL     1       2.635  17.392  17.060  0.00  0.00    +0.000 A 
ATOM     15  C   UNL     1       3.084  16.118  17.458  0.00  0.00    +0.000 A 
ATOM     16  C   UNL     1       2.313  15.316  18.302  0.00  0.00    +0.000 A 
ATOM     17  C   UNL     1       1.097  15.811  18.739  0.00  0.00    +0.000 A 
ATOM     18  C   UNL     1       0.042  15.181  19.619  0.00  0.00    +0.000 C 
ATOM     19  H   UNL     1      -0.992  18.288  18.947  0.00  0.00    +0.000 HD
ENDBRANCH   1  18
BRANCH   5  20
ATOM     20  C   UNL     1       1.317   9.005  19.582  0.00  0.00    +0.000 A 
ATOM     21  C   UNL     1       1.757   9.364  18.307  0.00  0.00    +0.000 A 
ATOM     22  C   UNL     1       2.482   8.447  17.550  0.00  0.00    +0.000 A 
ATOM     23  C   UNL     1       2.820   7.202  18.086  0.00  0.00    +0.000 A 
ATOM     24  C   UNL     1       2.539   6.904  19.426  0.00  0.00    +0.000 A 
ATOM     25  C   UNL     1       1.778   7.825  20.163  0.00  0.00    +0.000 A 
BRANCH  24  26
ATOM     26  N   UNL     1       2.847   5.639  19.999  0.00  0.00    +0.000 N 
ATOM     27  C   UNL     1       4.045   4.999  19.770  0.00  0.00    +0.000 C 
ATOM     28  O   UNL     1       5.188   5.410  19.692  0.00  0.00    +0.000 OA
ATOM     29  C   UNL     1       3.682   3.613  19.493  0.00  0.00    +0.000 A 
ATOM     30  C   UNL     1       4.301   2.764  18.597  0.00  0.00    +0.000 A 
ATOM     31  C   UNL     1       3.519   1.743  18.054  0.00  0.00    +0.000 A 
ATOM     32  C   UNL     1       2.176   1.561  18.446  0.00  0.00    +0.000 A 
ATOM     33  C   UNL     1       1.582   2.409  19.381  0.00  0.00    +0.000 A 
ATOM     34  C   UNL     1       2.361   3.442  19.859  0.00  0.00    +0.000 A 
ATOM     35  C   UNL     1       1.874   4.725  20.332  0.00  0.00    +0.000 C 
ATOM     36  O   UNL     1       0.765   4.869  20.814  0.00  0.00    +0.000 OA
ENDBRANCH  24  26
ENDBRANCH   5  20
TORSDOF 3
ENDMDL
