MODEL 1
REMARK VINA RESULT:      -9.4      0.000      0.000
REMARK  Name = 
REMARK  4 active torsions:
REMARK  status: ('A' for Active; 'I' for Inactive)
REMARK    1  A    between atoms: C_2  and  C_16
REMARK    2  A    between atoms: N_3  and  C_4
REMARK    3  A    between atoms: N_8  and  C_9
REMARK    4  A    between atoms: C_9  and  C_10
REMARK                            x       y       z     vdW  Elec       q    Type
REMARK                         _______ _______ _______ _____ _____    ______ ____
ROOT
ATOM      1  O   UNL     1       4.844   3.354  17.689  0.00  0.00    +0.000 OA
ATOM      2  C   UNL     1       4.288   4.169  16.977  0.00  0.00    +0.000 C 
ATOM      3  N   UNL     1       2.956   4.593  17.184  0.00  0.00    +0.000 N 
ATOM      4  H   UNL     1       2.534   5.215  16.510  0.00  0.00    +0.000 HD
ENDROOT
BRANCH   2   5
ATOM      5  C   UNL     1       4.917   4.876  15.845  0.00  0.00    +0.000 A 
ATOM      6  C   UNL     1       5.146   6.181  16.109  0.00  0.00    +0.000 A 
ATOM      7  C   UNL     1       6.546   6.179  16.698  0.00  0.00    +0.000 A 
ATOM      8  O   UNL     1       6.780   6.568  17.823  0.00  0.00    +0.000 OA
ATOM      9  N   UNL     1       7.480   5.677  15.806  0.00  0.00    +0.000 N 
ATOM     10  C   UNL     1       7.042   4.959  14.678  0.00  0.00    +0.000 A 
ATOM     11  C   UNL     1       7.688   5.039  13.459  0.00  0.00    +0.000 A 
ATOM     12  C   UNL     1       7.101   4.401  12.365  0.00  0.00    +0.000 A 
ATOM     13  C   UNL     1       6.002   3.545  12.541  0.00  0.00    +0.000 A 
ATOM     14  C   UNL     1       5.350   3.476  13.772  0.00  0.00    +0.000 A 
ATOM     15  C   UNL     1       5.785   4.328  14.780  0.00  0.00    +0.000 A 
ATOM     16  H   UNL     1       8.453   5.646  16.096  0.00  0.00    +0.000 HD
ENDBRANCH   2   5
BRANCH   3  17
ATOM     17  C   UNL     1       2.182   4.206  18.262  0.00  0.00    +0.000 A 
ATOM     18  C   UNL     1       1.355   3.116  18.424  0.00  0.00    +0.000 A 
ATOM     19  C   UNL     1       0.870   3.245  19.740  0.00  0.00    +0.000 A 
ATOM     20  N   UNL     1       1.378   4.302  20.386  0.00  0.00    +0.000 NA
ATOM     21  N   UNL     1       2.161   4.885  19.455  0.00  0.00    +0.000 N 
BRANCH  21  22
ATOM     22  C   UNL     1       2.981   6.048  19.793  0.00  0.00    +0.000 C 
BRANCH  22  23
ATOM     23  C   UNL     1       2.301   7.362  19.487  0.00  0.00    +0.000 A 
ATOM     24  C   UNL     1       2.329   7.934  18.206  0.00  0.00    +0.000 A 
ATOM     25  C   UNL     1       1.653   9.125  17.939  0.00  0.00    +0.000 A 
ATOM     26  C   UNL     1       0.926   9.757  18.943  0.00  0.00    +0.000 A 
ATOM     27  C   UNL     1       0.885   9.205  20.222  0.00  0.00    +0.000 A 
ATOM     28  C   UNL     1       1.569   8.018  20.495  0.00  0.00    +0.000 A 
ENDBRANCH  22  23
ENDBRANCH  21  22
ENDBRANCH   3  17
TORSDOF 4
ENDMDL
MODEL 2
REMARK VINA RESULT:      -8.2      1.637      7.212
REMARK  Name = 
REMARK  4 active torsions:
REMARK  status: ('A' for Active; 'I' for Inactive)
REMARK    1  A    between atoms: C_2  and  C_16
REMARK    2  A    between atoms: N_3  and  C_4
REMARK    3  A    between atoms: N_8  and  C_9
REMARK    4  A    between atoms: C_9  and  C_10
REMARK                            x       y       z     vdW  Elec       q    Type
REMARK                         _______ _______ _______ _____ _____    ______ ____
ROOT
ATOM      1  O   UNL     1       3.611   3.888  17.744  0.00  0.00    +0.000 OA
ATOM      2  C   UNL     1       3.649   5.022  18.184  0.00  0.00    +0.000 C 
ATOM      3  N   UNL     1       4.855   5.735  18.371  0.00  0.00    +0.000 N 
ATOM      4  H   UNL     1       4.817   6.644  18.811  0.00  0.00    +0.000 HD
ENDROOT
BRANCH   2   5
ATOM      5  C   UNL     1       2.470   5.839  18.530  0.00  0.00    +0.000 A 
ATOM      6  C   UNL     1       1.542   5.145  19.224  0.00  0.00    +0.000 A 
ATOM      7  C   UNL     1       1.944   5.373  20.671  0.00  0.00    +0.000 A 
ATOM      8  O   UNL     1       2.253   4.464  21.411  0.00  0.00    +0.000 OA
ATOM      9  N   UNL     1       1.921   6.717  21.007  0.00  0.00    +0.000 N 
ATOM     10  C   UNL     1       1.873   7.684  19.986  0.00  0.00    +0.000 A 
ATOM     11  C   UNL     1       1.169   8.865  20.125  0.00  0.00    +0.000 A 
ATOM     12  C   UNL     1       1.065   9.699  19.010  0.00  0.00    +0.000 A 
ATOM     13  C   UNL     1       1.816   9.441  17.852  0.00  0.00    +0.000 A 
ATOM     14  C   UNL     1       2.516   8.242  17.716  0.00  0.00    +0.000 A 
ATOM     15  C   UNL     1       2.386   7.302  18.730  0.00  0.00    +0.000 A 
ATOM     16  H   UNL     1       2.159   6.978  21.959  0.00  0.00    +0.000 HD
ENDBRANCH   2   5
BRANCH   3  17
ATOM     17  C   UNL     1       6.096   5.266  17.987  0.00  0.00    +0.000 A 
ATOM     18  C   UNL     1       7.114   4.714  18.735  0.00  0.00    +0.000 A 
ATOM     19  C   UNL     1       8.107   4.402  17.786  0.00  0.00    +0.000 A 
ATOM     20  N   UNL     1       7.741   4.685  16.529  0.00  0.00    +0.000 NA
ATOM     21  N   UNL     1       6.517   5.231  16.681  0.00  0.00    +0.000 N 
BRANCH  21  22
ATOM     22  C   UNL     1       5.718   5.605  15.514  0.00  0.00    +0.000 C 
BRANCH  22  23
ATOM     23  C   UNL     1       6.158   4.909  14.247  0.00  0.00    +0.000 A 
ATOM     24  C   UNL     1       5.420   3.859  13.680  0.00  0.00    +0.000 A 
ATOM     25  C   UNL     1       5.824   3.264  12.484  0.00  0.00    +0.000 A 
ATOM     26  C   UNL     1       6.963   3.720  11.827  0.00  0.00    +0.000 A 
ATOM     27  C   UNL     1       7.709   4.762  12.372  0.00  0.00    +0.000 A 
ATOM     28  C   UNL     1       7.313   5.353  13.575  0.00  0.00    +0.000 A 
ENDBRANCH  22  23
ENDBRANCH  21  22
ENDBRANCH   3  17
TORSDOF 4
ENDMDL
MODEL 3
REMARK VINA RESULT:      -7.9      1.949      6.406
REMARK  Name = 
REMARK  4 active torsions:
REMARK  status: ('A' for Active; 'I' for Inactive)
REMARK    1  A    between atoms: C_2  and  C_16
REMARK    2  A    between atoms: N_3  and  C_4
REMARK    3  A    between atoms: N_8  and  C_9
REMARK    4  A    between atoms: C_9  and  C_10
REMARK                            x       y       z     vdW  Elec       q    Type
REMARK                         _______ _______ _______ _____ _____    ______ ____
ROOT
ATOM      1  O   UNL     1       3.068   3.304  17.075  0.00  0.00    +0.000 OA
ATOM      2  C   UNL     1       3.217   4.440  17.482  0.00  0.00    +0.000 C 
ATOM      3  N   UNL     1       4.369   5.212  17.209  0.00  0.00    +0.000 N 
ATOM      4  H   UNL     1       4.459   6.120  17.642  0.00  0.00    +0.000 HD
ENDROOT
BRANCH   2   5
ATOM      5  C   UNL     1       2.220   5.202  18.258  0.00  0.00    +0.000 A 
ATOM      6  C   UNL     1       1.429   4.407  19.011  0.00  0.00    +0.000 A 
ATOM      7  C   UNL     1       2.175   4.317  20.331  0.00  0.00    +0.000 A 
ATOM      8  O   UNL     1       2.577   3.265  20.781  0.00  0.00    +0.000 OA
ATOM      9  N   UNL     1       2.337   5.562  20.917  0.00  0.00    +0.000 N 
ATOM     10  C   UNL     1       2.127   6.721  20.147  0.00  0.00    +0.000 A 
ATOM     11  C   UNL     1       1.571   7.868  20.681  0.00  0.00    +0.000 A 
ATOM     12  C   UNL     1       1.275   8.917  19.809  0.00  0.00    +0.000 A 
ATOM     13  C   UNL     1       1.710   8.884  18.475  0.00  0.00    +0.000 A 
ATOM     14  C   UNL     1       2.263   7.720  17.941  0.00  0.00    +0.000 A 
ATOM     15  C   UNL     1       2.300   6.593  18.753  0.00  0.00    +0.000 A 
ATOM     16  H   UNL     1       2.812   5.613  21.813  0.00  0.00    +0.000 HD
ENDBRANCH   2   5
BRANCH   3  17
ATOM     17  C   UNL     1       5.394   4.801  16.377  0.00  0.00    +0.000 A 
ATOM     18  C   UNL     1       5.371   4.412  15.055  0.00  0.00    +0.000 A 
ATOM     19  C   UNL     1       6.720   4.143  14.753  0.00  0.00    +0.000 A 
ATOM     20  N   UNL     1       7.546   4.382  15.779  0.00  0.00    +0.000 NA
ATOM     21  N   UNL     1       6.710   4.763  16.766  0.00  0.00    +0.000 N 
BRANCH  21  22
ATOM     22  C   UNL     1       7.234   5.207  18.058  0.00  0.00    +0.000 C 
BRANCH  22  23
ATOM     23  C   UNL     1       7.611   6.670  18.073  0.00  0.00    +0.000 A 
ATOM     24  C   UNL     1       7.023   7.599  17.202  0.00  0.00    +0.000 A 
ATOM     25  C   UNL     1       7.356   8.953  17.269  0.00  0.00    +0.000 A 
ATOM     26  C   UNL     1       8.270   9.402  18.217  0.00  0.00    +0.000 A 
ATOM     27  C   UNL     1       8.864   8.496  19.092  0.00  0.00    +0.000 A 
ATOM     28  C   UNL     1       8.541   7.138  19.021  0.00  0.00    +0.000 A 
ENDBRANCH  22  23
ENDBRANCH  21  22
ENDBRANCH   3  17
TORSDOF 4
ENDMDL
MODEL 4
REMARK VINA RESULT:      -7.9      1.695      7.320
REMARK  Name = 
REMARK  4 active torsions:
REMARK  status: ('A' for Active; 'I' for Inactive)
REMARK    1  A    between atoms: C_2  and  C_16
REMARK    2  A    between atoms: N_3  and  C_4
REMARK    3  A    between atoms: N_8  and  C_9
REMARK    4  A    between atoms: C_9  and  C_10
REMARK                            x       y       z     vdW  Elec       q    Type
REMARK                         _______ _______ _______ _____ _____    ______ ____
ROOT
ATOM      1  O   UNL     1       4.601   7.159  16.533  0.00  0.00    +0.000 OA
ATOM      2  C   UNL     1       4.078   6.605  17.482  0.00  0.00    +0.000 C 
ATOM      3  N   UNL     1       4.726   5.607  18.245  0.00  0.00    +0.000 N 
ATOM      4  H   UNL     1       4.205   5.137  18.971  0.00  0.00    +0.000 HD
ENDROOT
BRANCH   2   5
ATOM      5  C   UNL     1       2.738   6.917  18.015  0.00  0.00    +0.000 A 
ATOM      6  C   UNL     1       2.086   5.820  18.457  0.00  0.00    +0.000 A 
ATOM      7  C   UNL     1       2.490   5.739  19.920  0.00  0.00    +0.000 A 
ATOM      8  O   UNL     1       3.086   4.787  20.378  0.00  0.00    +0.000 OA
ATOM      9  N   UNL     1       2.107   6.868  20.624  0.00  0.00    +0.000 N 
ATOM     10  C   UNL     1       1.728   8.026  19.921  0.00  0.00    +0.000 A 
ATOM     11  C   UNL     1       0.729   8.867  20.372  0.00  0.00    +0.000 A 
ATOM     12  C   UNL     1       0.329   9.913  19.539  0.00  0.00    +0.000 A 
ATOM     13  C   UNL     1       1.053  10.218  18.376  0.00  0.00    +0.000 A 
ATOM     14  C   UNL     1       2.055   9.360  17.922  0.00  0.00    +0.000 A 
ATOM     15  C   UNL     1       2.255   8.177  18.621  0.00  0.00    +0.000 A 
ATOM     16  H   UNL     1       2.316   6.909  21.617  0.00  0.00    +0.000 HD
ENDBRANCH   2   5
BRANCH   3  17
ATOM     17  C   UNL     1       6.043   5.228  18.060  0.00  0.00    +0.000 A 
ATOM     18  C   UNL     1       7.149   5.425  18.858  0.00  0.00    +0.000 A 
ATOM     19  C   UNL     1       8.192   4.786  18.160  0.00  0.00    +0.000 A 
ATOM     20  N   UNL     1       7.784   4.189  17.034  0.00  0.00    +0.000 NA
ATOM     21  N   UNL     1       6.470   4.492  16.984  0.00  0.00    +0.000 N 
BRANCH  21  22
ATOM     22  C   UNL     1       5.618   3.943  15.929  0.00  0.00    +0.000 C 
BRANCH  22  23
ATOM     23  C   UNL     1       6.181   4.155  14.543  0.00  0.00    +0.000 A 
ATOM     24  C   UNL     1       7.189   5.096  14.284  0.00  0.00    +0.000 A 
ATOM     25  C   UNL     1       7.724   5.238  13.003  0.00  0.00    +0.000 A 
ATOM     26  C   UNL     1       7.272   4.432  11.963  0.00  0.00    +0.000 A 
ATOM     27  C   UNL     1       6.272   3.491  12.199  0.00  0.00    +0.000 A 
ATOM     28  C   UNL     1       5.727   3.352  13.478  0.00  0.00    +0.000 A 
ENDBRANCH  22  23
ENDBRANCH  21  22
ENDBRANCH   3  17
TORSDOF 4
ENDMDL
MODEL 5
REMARK VINA RESULT:      -7.8      3.529      6.363
REMARK  Name = 
REMARK  4 active torsions:
REMARK  status: ('A' for Active; 'I' for Inactive)
REMARK    1  A    between atoms: C_2  and  C_16
REMARK    2  A    between atoms: N_3  and  C_4
REMARK    3  A    between atoms: N_8  and  C_9
REMARK    4  A    between atoms: C_9  and  C_10
REMARK                            x       y       z     vdW  Elec       q    Type
REMARK                         _______ _______ _______ _____ _____    ______ ____
ROOT
ATOM      1  O   UNL     1       1.965   8.314  20.577  0.00  0.00    +0.000 OA
ATOM      2  C   UNL     1       1.856   7.900  19.438  0.00  0.00    +0.000 C 
ATOM      3  N   UNL     1       1.569   8.739  18.337  0.00  0.00    +0.000 N 
ATOM      4  H   UNL     1       1.418   8.318  17.432  0.00  0.00    +0.000 HD
ENDROOT
BRANCH   2   5
ATOM      5  C   UNL     1       2.058   6.500  19.020  0.00  0.00    +0.000 A 
ATOM      6  C   UNL     1       2.579   6.398  17.778  0.00  0.00    +0.000 A 
ATOM      7  C   UNL     1       4.078   6.388  18.027  0.00  0.00    +0.000 A 
ATOM      8  O   UNL     1       4.818   7.237  17.578  0.00  0.00    +0.000 OA
ATOM      9  N   UNL     1       4.462   5.320  18.822  0.00  0.00    +0.000 N 
ATOM     10  C   UNL     1       3.485   4.610  19.545  0.00  0.00    +0.000 A 
ATOM     11  C   UNL     1       3.568   3.246  19.747  0.00  0.00    +0.000 A 
ATOM     12  C   UNL     1       2.485   2.609  20.356  0.00  0.00    +0.000 A 
ATOM     13  C   UNL     1       1.440   3.358  20.920  0.00  0.00    +0.000 A 
ATOM     14  C   UNL     1       1.358   4.734  20.703  0.00  0.00    +0.000 A 
ATOM     15  C   UNL     1       2.303   5.310  19.863  0.00  0.00    +0.000 A 
ATOM     16  H   UNL     1       5.448   5.211  19.037  0.00  0.00    +0.000 HD
ENDBRANCH   2   5
BRANCH   3  17
ATOM     17  C   UNL     1       1.481  10.116  18.419  0.00  0.00    +0.000 A 
ATOM     18  C   UNL     1       2.405  11.091  18.108  0.00  0.00    +0.000 A 
ATOM     19  C   UNL     1       1.729  12.299  18.367  0.00  0.00    +0.000 A 
ATOM     20  N   UNL     1       0.464  12.119  18.766  0.00  0.00    +0.000 NA
ATOM     21  N   UNL     1       0.343  10.777  18.810  0.00  0.00    +0.000 N 
BRANCH  21  22
ATOM     22  C   UNL     1      -0.943  10.153  19.123  0.00  0.00    +0.000 C 
BRANCH  22  23
ATOM     23  C   UNL     1      -1.995  10.402  18.068  0.00  0.00    +0.000 A 
ATOM     24  C   UNL     1      -3.069  11.280  18.280  0.00  0.00    +0.000 A 
ATOM     25  C   UNL     1      -4.001  11.527  17.271  0.00  0.00    +0.000 A 
ATOM     26  C   UNL     1      -3.867  10.913  16.029  0.00  0.00    +0.000 A 
ATOM     27  C   UNL     1      -2.806  10.039  15.798  0.00  0.00    +0.000 A 
ATOM     28  C   UNL     1      -1.877   9.782  16.809  0.00  0.00    +0.000 A 
ENDBRANCH  22  23
ENDBRANCH  21  22
ENDBRANCH   3  17
TORSDOF 4
ENDMDL
MODEL 6
REMARK VINA RESULT:      -7.5      1.402      1.852
REMARK  Name = 
REMARK  4 active torsions:
REMARK  status: ('A' for Active; 'I' for Inactive)
REMARK    1  A    between atoms: C_2  and  C_16
REMARK    2  A    between atoms: N_3  and  C_4
REMARK    3  A    between atoms: N_8  and  C_9
REMARK    4  A    between atoms: C_9  and  C_10
REMARK                            x       y       z     vdW  Elec       q    Type
REMARK                         _______ _______ _______ _____ _____    ______ ____
ROOT
ATOM      1  O   UNL     1       5.493   4.203  18.131  0.00  0.00    +0.000 OA
ATOM      2  C   UNL     1       4.995   4.023  17.036  0.00  0.00    +0.000 C 
ATOM      3  N   UNL     1       3.937   3.113  16.812  0.00  0.00    +0.000 N 
ATOM      4  H   UNL     1       3.622   2.959  15.864  0.00  0.00    +0.000 HD
ENDROOT
BRANCH   2   5
ATOM      5  C   UNL     1       5.362   4.749  15.806  0.00  0.00    +0.000 A 
ATOM      6  C   UNL     1       5.505   6.077  16.008  0.00  0.00    +0.000 A 
ATOM      7  C   UNL     1       6.976   6.221  16.360  0.00  0.00    +0.000 A 
ATOM      8  O   UNL     1       7.350   6.664  17.425  0.00  0.00    +0.000 OA
ATOM      9  N   UNL     1       7.797   5.779  15.336  0.00  0.00    +0.000 N 
ATOM     10  C   UNL     1       7.253   4.990  14.306  0.00  0.00    +0.000 A 
ATOM     11  C   UNL     1       7.684   5.091  12.997  0.00  0.00    +0.000 A 
ATOM     12  C   UNL     1       6.991   4.368  12.024  0.00  0.00    +0.000 A 
ATOM     13  C   UNL     1       6.022   3.421  12.391  0.00  0.00    +0.000 A 
ATOM     14  C   UNL     1       5.586   3.331  13.713  0.00  0.00    +0.000 A 
ATOM     15  C   UNL     1       6.095   4.250  14.622  0.00  0.00    +0.000 A 
ATOM     16  H   UNL     1       8.803   5.846  15.463  0.00  0.00    +0.000 HD
ENDBRANCH   2   5
BRANCH   3  17
ATOM     17  C   UNL     1       3.296   2.412  17.816  0.00  0.00    +0.000 A 
ATOM     18  C   UNL     1       3.718   1.332  18.561  0.00  0.00    +0.000 A 
ATOM     19  C   UNL     1       2.649   1.086  19.444  0.00  0.00    +0.000 A 
ATOM     20  N   UNL     1       1.645   1.961  19.311  0.00  0.00    +0.000 NA
ATOM     21  N   UNL     1       2.055   2.748  18.296  0.00  0.00    +0.000 N 
BRANCH  21  22
ATOM     22  C   UNL     1       1.265   3.910  17.886  0.00  0.00    +0.000 C 
BRANCH  22  23
ATOM     23  C   UNL     1       1.658   5.178  18.608  0.00  0.00    +0.000 A 
ATOM     24  C   UNL     1       2.203   6.281  17.933  0.00  0.00    +0.000 A 
ATOM     25  C   UNL     1       2.514   7.457  18.617  0.00  0.00    +0.000 A 
ATOM     26  C   UNL     1       2.272   7.555  19.984  0.00  0.00    +0.000 A 
ATOM     27  C   UNL     1       1.732   6.472  20.673  0.00  0.00    +0.000 A 
ATOM     28  C   UNL     1       1.428   5.289  19.993  0.00  0.00    +0.000 A 
ENDBRANCH  22  23
ENDBRANCH  21  22
ENDBRANCH   3  17
TORSDOF 4
ENDMDL
MODEL 7
REMARK VINA RESULT:      -7.5      2.459      6.799
REMARK  Name = 
REMARK  4 active torsions:
REMARK  status: ('A' for Active; 'I' for Inactive)
REMARK    1  A    between atoms: C_2  and  C_16
REMARK    2  A    between atoms: N_3  and  C_4
REMARK    3  A    between atoms: N_8  and  C_9
REMARK    4  A    between atoms: C_9  and  C_10
REMARK                            x       y       z     vdW  Elec       q    Type
REMARK                         _______ _______ _______ _____ _____    ______ ____
ROOT
ATOM      1  O   UNL     1       4.165   7.346  16.631  0.00  0.00    +0.000 OA
ATOM      2  C   UNL     1       3.695   6.900  17.661  0.00  0.00    +0.000 C 
ATOM      3  N   UNL     1       4.381   5.980  18.486  0.00  0.00    +0.000 N 
ATOM      4  H   UNL     1       3.901   5.593  19.286  0.00  0.00    +0.000 HD
ENDROOT
BRANCH   2   5
ATOM      5  C   UNL     1       2.391   7.281  18.235  0.00  0.00    +0.000 A 
ATOM      6  C   UNL     1       1.708   6.223  18.724  0.00  0.00    +0.000 A 
ATOM      7  C   UNL     1       2.162   6.154  20.172  0.00  0.00    +0.000 A 
ATOM      8  O   UNL     1       2.733   5.187  20.630  0.00  0.00    +0.000 OA
ATOM      9  N   UNL     1       1.854   7.314  20.865  0.00  0.00    +0.000 N 
ATOM     10  C   UNL     1       1.500   8.473  20.151  0.00  0.00    +0.000 A 
ATOM     11  C   UNL     1       0.554   9.365  20.619  0.00  0.00    +0.000 A 
ATOM     12  C   UNL     1       0.170  10.411  19.777  0.00  0.00    +0.000 A 
ATOM     13  C   UNL     1       0.864  10.659  18.582  0.00  0.00    +0.000 A 
ATOM     14  C   UNL     1       1.810   9.749  18.112  0.00  0.00    +0.000 A 
ATOM     15  C   UNL     1       1.985   8.573  18.830  0.00  0.00    +0.000 A 
ATOM     16  H   UNL     1       2.101   7.365  21.849  0.00  0.00    +0.000 HD
ENDBRANCH   2   5
BRANCH   3  17
ATOM     17  C   UNL     1       5.683   5.568  18.266  0.00  0.00    +0.000 A 
ATOM     18  C   UNL     1       6.863   6.000  18.830  0.00  0.00    +0.000 A 
ATOM     19  C   UNL     1       7.846   5.185  18.236  0.00  0.00    +0.000 A 
ATOM     20  N   UNL     1       7.337   4.276  17.396  0.00  0.00    +0.000 NA
ATOM     21  N   UNL     1       6.016   4.544  17.416  0.00  0.00    +0.000 N 
BRANCH  21  22
ATOM     22  C   UNL     1       5.072   3.700  16.682  0.00  0.00    +0.000 C 
BRANCH  22  23
ATOM     23  C   UNL     1       4.009   3.091  17.567  0.00  0.00    +0.000 A 
ATOM     24  C   UNL     1       4.321   2.470  18.786  0.00  0.00    +0.000 A 
ATOM     25  C   UNL     1       3.315   1.958  19.606  0.00  0.00    +0.000 A 
ATOM     26  C   UNL     1       1.980   2.070  19.229  0.00  0.00    +0.000 A 
ATOM     27  C   UNL     1       1.649   2.683  18.023  0.00  0.00    +0.000 A 
ATOM     28  C   UNL     1       2.654   3.189  17.194  0.00  0.00    +0.000 A 
ENDBRANCH  22  23
ENDBRANCH  21  22
ENDBRANCH   3  17
TORSDOF 4
ENDMDL
MODEL 8
REMARK VINA RESULT:      -7.4      1.663      3.092
REMARK  Name = 
REMARK  4 active torsions:
REMARK  status: ('A' for Active; 'I' for Inactive)
REMARK    1  A    between atoms: C_2  and  C_16
REMARK    2  A    between atoms: N_3  and  C_4
REMARK    3  A    between atoms: N_8  and  C_9
REMARK    4  A    between atoms: C_9  and  C_10
REMARK                            x       y       z     vdW  Elec       q    Type
REMARK                         _______ _______ _______ _____ _____    ______ ____
ROOT
ATOM      1  O   UNL     1       4.455   2.173  17.349  0.00  0.00    +0.000 OA
ATOM      2  C   UNL     1       4.619   3.365  17.532  0.00  0.00    +0.000 C 
ATOM      3  N   UNL     1       3.637   4.198  18.114  0.00  0.00    +0.000 N 
ATOM      4  H   UNL     1       3.812   5.191  18.166  0.00  0.00    +0.000 HD
ENDROOT
BRANCH   2   5
ATOM      5  C   UNL     1       5.860   4.106  17.237  0.00  0.00    +0.000 A 
ATOM      6  C   UNL     1       6.275   3.941  15.962  0.00  0.00    +0.000 A 
ATOM      7  C   UNL     1       5.591   5.079  15.222  0.00  0.00    +0.000 A 
ATOM      8  O   UNL     1       4.805   4.888  14.319  0.00  0.00    +0.000 OA
ATOM      9  N   UNL     1       5.969   6.316  15.717  0.00  0.00    +0.000 N 
ATOM     10  C   UNL     1       6.617   6.394  16.964  0.00  0.00    +0.000 A 
ATOM     11  C   UNL     1       7.608   7.322  17.220  0.00  0.00    +0.000 A 
ATOM     12  C   UNL     1       8.287   7.232  18.437  0.00  0.00    +0.000 A 
ATOM     13  C   UNL     1       7.842   6.359  19.442  0.00  0.00    +0.000 A 
ATOM     14  C   UNL     1       6.847   5.419  19.172  0.00  0.00    +0.000 A 
ATOM     15  C   UNL     1       6.371   5.342  17.870  0.00  0.00    +0.000 A 
ATOM     16  H   UNL     1       5.581   7.147  15.281  0.00  0.00    +0.000 HD
ENDBRANCH   2   5
BRANCH   3  17
ATOM     17  C   UNL     1       2.438   3.736  18.624  0.00  0.00    +0.000 A 
ATOM     18  C   UNL     1       1.648   2.678  18.231  0.00  0.00    +0.000 A 
ATOM     19  C   UNL     1       0.579   2.688  19.148  0.00  0.00    +0.000 A 
ATOM     20  N   UNL     1       0.695   3.643  20.079  0.00  0.00    +0.000 NA
ATOM     21  N   UNL     1       1.828   4.283  19.725  0.00  0.00    +0.000 N 
BRANCH  21  22
ATOM     22  C   UNL     1       2.366   5.361  20.555  0.00  0.00    +0.000 C 
BRANCH  22  23
ATOM     23  C   UNL     1       1.987   6.737  20.060  0.00  0.00    +0.000 A 
ATOM     24  C   UNL     1       1.305   7.658  20.869  0.00  0.00    +0.000 A 
ATOM     25  C   UNL     1       1.007   8.938  20.402  0.00  0.00    +0.000 A 
ATOM     26  C   UNL     1       1.399   9.325  19.124  0.00  0.00    +0.000 A 
ATOM     27  C   UNL     1       2.077   8.425  18.304  0.00  0.00    +0.000 A 
ATOM     28  C   UNL     1       2.368   7.139  18.765  0.00  0.00    +0.000 A 
ENDBRANCH  22  23
ENDBRANCH  21  22
ENDBRANCH   3  17
TORSDOF 4
ENDMDL
MODEL 9
REMARK VINA RESULT:      -7.4      1.622      2.130
REMARK  Name = 
REMARK  4 active torsions:
REMARK  status: ('A' for Active; 'I' for Inactive)
REMARK    1  A    between atoms: C_2  and  C_16
REMARK    2  A    between atoms: N_3  and  C_4
REMARK    3  A    between atoms: N_8  and  C_9
REMARK    4  A    between atoms: C_9  and  C_10
REMARK                            x       y       z     vdW  Elec       q    Type
REMARK                         _______ _______ _______ _____ _____    ______ ____
ROOT
ATOM      1  O   UNL     1       5.271   5.511  19.366  0.00  0.00    +0.000 OA
ATOM      2  C   UNL     1       5.034   4.917  18.331  0.00  0.00    +0.000 C 
ATOM      3  N   UNL     1       4.369   3.671  18.293  0.00  0.00    +0.000 N 
ATOM      4  H   UNL     1       4.272   3.199  17.405  0.00  0.00    +0.000 HD
ENDROOT
BRANCH   2   5
ATOM      5  C   UNL     1       5.340   5.415  16.977  0.00  0.00    +0.000 A 
ATOM      6  C   UNL     1       5.627   6.735  16.961  0.00  0.00    +0.000 A 
ATOM      7  C   UNL     1       7.134   6.768  17.157  0.00  0.00    +0.000 A 
ATOM      8  O   UNL     1       7.654   7.316  18.105  0.00  0.00    +0.000 OA
ATOM      9  N   UNL     1       7.800   6.098  16.144  0.00  0.00    +0.000 N 
ATOM     10  C   UNL     1       7.082   5.233  15.299  0.00  0.00    +0.000 A 
ATOM     11  C   UNL     1       7.384   5.098  13.957  0.00  0.00    +0.000 A 
ATOM     12  C   UNL     1       6.530   4.323  13.170  0.00  0.00    +0.000 A 
ATOM     13  C   UNL     1       5.519   3.549  13.761  0.00  0.00    +0.000 A 
ATOM     14  C   UNL     1       5.214   3.697  15.114  0.00  0.00    +0.000 A 
ATOM     15  C   UNL     1       5.897   4.676  15.824  0.00  0.00    +0.000 A 
ATOM     16  H   UNL     1       8.815   6.073  16.172  0.00  0.00    +0.000 HD
ENDBRANCH   2   5
BRANCH   3  17
ATOM     17  C   UNL     1       3.834   3.047  19.405  0.00  0.00    +0.000 A 
ATOM     18  C   UNL     1       4.447   2.319  20.402  0.00  0.00    +0.000 A 
ATOM     19  C   UNL     1       3.394   1.972  21.269  0.00  0.00    +0.000 A 
ATOM     20  N   UNL     1       2.212   2.472  20.889  0.00  0.00    +0.000 NA
ATOM     21  N   UNL     1       2.504   3.108  19.736  0.00  0.00    +0.000 N 
BRANCH  21  22
ATOM     22  C   UNL     1       1.480   3.878  19.029  0.00  0.00    +0.000 C 
BRANCH  22  23
ATOM     23  C   UNL     1       1.673   5.372  19.152  0.00  0.00    +0.000 A 
ATOM     24  C   UNL     1       1.695   6.019  20.397  0.00  0.00    +0.000 A 
ATOM     25  C   UNL     1       1.920   7.394  20.484  0.00  0.00    +0.000 A 
ATOM     26  C   UNL     1       2.143   8.141  19.331  0.00  0.00    +0.000 A 
ATOM     27  C   UNL     1       2.125   7.517  18.086  0.00  0.00    +0.000 A 
ATOM     28  C   UNL     1       1.890   6.143  17.994  0.00  0.00    +0.000 A 
ENDBRANCH  22  23
ENDBRANCH  21  22
ENDBRANCH   3  17
TORSDOF 4
ENDMDL
