MODEL 1
REMARK VINA RESULT:      -8.7      0.000      0.000
REMARK  Name = 
REMARK  4 active torsions:
REMARK  status: ('A' for Active; 'I' for Inactive)
REMARK    1  A    between atoms: C_7  and  S_8
REMARK    2  A    between atoms: S_8  and  N_11
REMARK    3  A    between atoms: N_11  and  C_12
REMARK    4  A    between atoms: C_17  and  O_18
REMARK                            x       y       z     vdW  Elec       q    Type
REMARK                         _______ _______ _______ _____ _____    ______ ____
ROOT
ATOM      1  O   UNL     1       0.789   3.231  20.986  0.00  0.00    +0.000 OA
ATOM      2  C   UNL     1       1.648   3.545  20.174  0.00  0.00    +0.000 C 
ATOM      3  N   UNL     1       2.429   2.641  19.446  0.00  0.00    +0.000 N 
ATOM      4  C   UNL     1       3.314   3.283  18.600  0.00  0.00    +0.000 A 
ATOM      5  C   UNL     1       4.256   2.773  17.727  0.00  0.00    +0.000 A 
ATOM      6  C   UNL     1       5.003   3.732  17.014  0.00  0.00    +0.000 A 
ATOM      7  C   UNL     1       4.786   5.131  17.178  0.00  0.00    +0.000 A 
ATOM      8  C   UNL     1       3.811   5.615  18.099  0.00  0.00    +0.000 A 
ATOM      9  C   UNL     1       3.416   6.934  18.445  0.00  0.00    +0.000 A 
ATOM     10  C   UNL     1       2.404   7.169  19.396  0.00  0.00    +0.000 A 
ATOM     11  C   UNL     1       1.741   6.120  20.046  0.00  0.00    +0.000 A 
ATOM     12  C   UNL     1       2.126   4.829  19.699  0.00  0.00    +0.000 A 
ATOM     13  C   UNL     1       3.126   4.637  18.758  0.00  0.00    +0.000 A 
ATOM     14  H   UNL     1       2.338   1.642  19.564  0.00  0.00    +0.000 HD
ENDROOT
BRANCH   7  15
ATOM     15  S   UNL     1       5.823   6.246  16.240  0.00  0.00    +0.000 S 
ATOM     16  O   UNL     1       5.043   6.856  15.188  0.00  0.00    +0.000 OA
ATOM     17  O   UNL     1       6.504   7.086  17.210  0.00  0.00    +0.000 OA
BRANCH  15  18
ATOM     18  N   UNL     1       7.024   5.264  15.569  0.00  0.00    +0.000 N 
ATOM     19  H   UNL     1       7.286   4.541  16.239  0.00  0.00    +0.000 HD
BRANCH  18  20
ATOM     20  C   UNL     1       6.824   4.751  14.250  0.00  0.00    +0.000 A 
ATOM     21  C   UNL     1       5.763   3.894  13.975  0.00  0.00    +0.000 A 
ATOM     22  C   UNL     1       5.589   3.404  12.677  0.00  0.00    +0.000 A 
ATOM     23  C   UNL     1       6.500   3.739  11.670  0.00  0.00    +0.000 A 
ATOM     24  C   UNL     1       7.577   4.583  11.949  0.00  0.00    +0.000 A 
ATOM     25  C   UNL     1       7.720   5.102  13.234  0.00  0.00    +0.000 A 
BRANCH  25  26
ATOM     26  O   UNL     1       8.730   5.979  13.529  0.00  0.00    +0.000 OA
ATOM     27  H   UNL     1       9.577   5.543  13.333  0.00  0.00    +0.000 HD
ENDBRANCH  25  26
ENDBRANCH  18  20
ENDBRANCH  15  18
ENDBRANCH   7  15
TORSDOF 4
ENDMDL
MODEL 2
REMARK VINA RESULT:      -8.4      0.905      2.258
REMARK  Name = 
REMARK  4 active torsions:
REMARK  status: ('A' for Active; 'I' for Inactive)
REMARK    1  A    between atoms: C_7  and  S_8
REMARK    2  A    between atoms: S_8  and  N_11
REMARK    3  A    between atoms: N_11  and  C_12
REMARK    4  A    between atoms: C_17  and  O_18
REMARK                            x       y       z     vdW  Elec       q    Type
REMARK                         _______ _______ _______ _____ _____    ______ ____
ROOT
ATOM      1  O   UNL     1       0.718   3.020  21.040  0.00  0.00    +0.000 OA
ATOM      2  C   UNL     1       1.438   3.692  20.315  0.00  0.00    +0.000 C 
ATOM      3  N   UNL     1       1.485   5.091  20.310  0.00  0.00    +0.000 N 
ATOM      4  C   UNL     1       2.393   5.576  19.389  0.00  0.00    +0.000 A 
ATOM      5  C   UNL     1       2.739   6.873  19.061  0.00  0.00    +0.000 A 
ATOM      6  C   UNL     1       3.715   7.005  18.053  0.00  0.00    +0.000 A 
ATOM      7  C   UNL     1       4.311   5.872  17.429  0.00  0.00    +0.000 A 
ATOM      8  C   UNL     1       3.917   4.549  17.788  0.00  0.00    +0.000 A 
ATOM      9  C   UNL     1       4.345   3.280  17.319  0.00  0.00    +0.000 A 
ATOM     10  C   UNL     1       3.807   2.088  17.841  0.00  0.00    +0.000 A 
ATOM     11  C   UNL     1       2.827   2.093  18.842  0.00  0.00    +0.000 A 
ATOM     12  C   UNL     1       2.415   3.340  19.303  0.00  0.00    +0.000 A 
ATOM     13  C   UNL     1       2.969   4.492  18.765  0.00  0.00    +0.000 A 
ATOM     14  H   UNL     1       0.897   5.646  20.914  0.00  0.00    +0.000 HD
ENDROOT
BRANCH   7  15
ATOM     15  S   UNL     1       5.513   6.173  16.139  0.00  0.00    +0.000 S 
ATOM     16  O   UNL     1       4.867   6.819  15.021  0.00  0.00    +0.000 OA
ATOM     17  O   UNL     1       6.651   6.809  16.780  0.00  0.00    +0.000 OA
BRANCH  15  18
ATOM     18  N   UNL     1       6.053   4.637  15.681  0.00  0.00    +0.000 N 
ATOM     19  H   UNL     1       5.501   3.926  16.159  0.00  0.00    +0.000 HD
BRANCH  18  20
ATOM     20  C   UNL     1       6.222   4.364  14.289  0.00  0.00    +0.000 A 
ATOM     21  C   UNL     1       5.305   3.572  13.603  0.00  0.00    +0.000 A 
ATOM     22  C   UNL     1       5.494   3.318  12.242  0.00  0.00    +0.000 A 
ATOM     23  C   UNL     1       6.619   3.821  11.581  0.00  0.00    +0.000 A 
ATOM     24  C   UNL     1       7.550   4.599  12.271  0.00  0.00    +0.000 A 
ATOM     25  C   UNL     1       7.335   4.885  13.617  0.00  0.00    +0.000 A 
BRANCH  25  26
ATOM     26  O   UNL     1       8.195   5.693  14.310  0.00  0.00    +0.000 OA
ATOM     27  H   UNL     1       7.953   5.656  15.252  0.00  0.00    +0.000 HD
ENDBRANCH  25  26
ENDBRANCH  18  20
ENDBRANCH  15  18
ENDBRANCH   7  15
TORSDOF 4
ENDMDL
MODEL 3
REMARK VINA RESULT:      -8.3      2.646      4.122
REMARK  Name = 
REMARK  4 active torsions:
REMARK  status: ('A' for Active; 'I' for Inactive)
REMARK    1  A    between atoms: C_7  and  S_8
REMARK    2  A    between atoms: S_8  and  N_11
REMARK    3  A    between atoms: N_11  and  C_12
REMARK    4  A    between atoms: C_17  and  O_18
REMARK                            x       y       z     vdW  Elec       q    Type
REMARK                         _______ _______ _______ _____ _____    ______ ____
ROOT
ATOM      1  O   UNL     1       1.609   3.229  21.702  0.00  0.00    +0.000 OA
ATOM      2  C   UNL     1       2.158   3.783  20.760  0.00  0.00    +0.000 C 
ATOM      3  N   UNL     1       2.286   5.169  20.613  0.00  0.00    +0.000 N 
ATOM      4  C   UNL     1       2.956   5.508  19.452  0.00  0.00    +0.000 A 
ATOM      5  C   UNL     1       3.282   6.744  18.929  0.00  0.00    +0.000 A 
ATOM      6  C   UNL     1       3.974   6.720  17.701  0.00  0.00    +0.000 A 
ATOM      7  C   UNL     1       4.320   5.498  17.056  0.00  0.00    +0.000 A 
ATOM      8  C   UNL     1       3.954   4.242  17.625  0.00  0.00    +0.000 A 
ATOM      9  C   UNL     1       4.170   2.910  17.184  0.00  0.00    +0.000 A 
ATOM     10  C   UNL     1       3.714   1.809  17.933  0.00  0.00    +0.000 A 
ATOM     11  C   UNL     1       3.024   1.970  19.143  0.00  0.00    +0.000 A 
ATOM     12  C   UNL     1       2.820   3.277  19.574  0.00  0.00    +0.000 A 
ATOM     13  C   UNL     1       3.286   4.336  18.809  0.00  0.00    +0.000 A 
ATOM     14  H   UNL     1       1.906   5.815  21.290  0.00  0.00    +0.000 HD
ENDROOT
BRANCH   7  15
ATOM     15  S   UNL     1       5.168   5.601  15.484  0.00  0.00    +0.000 S 
ATOM     16  O   UNL     1       4.732   4.520  14.631  0.00  0.00    +0.000 OA
ATOM     17  O   UNL     1       5.029   6.975  15.033  0.00  0.00    +0.000 OA
BRANCH  15  18
ATOM     18  N   UNL     1       6.806   5.411  15.860  0.00  0.00    +0.000 N 
ATOM     19  H   UNL     1       7.363   5.517  15.013  0.00  0.00    +0.000 HD
BRANCH  18  20
ATOM     20  C   UNL     1       7.337   6.137  16.969  0.00  0.00    +0.000 A 
ATOM     21  C   UNL     1       7.584   7.504  16.870  0.00  0.00    +0.000 A 
ATOM     22  C   UNL     1       8.106   8.192  17.969  0.00  0.00    +0.000 A 
ATOM     23  C   UNL     1       8.419   7.506  19.146  0.00  0.00    +0.000 A 
ATOM     24  C   UNL     1       8.191   6.131  19.240  0.00  0.00    +0.000 A 
ATOM     25  C   UNL     1       7.631   5.458  18.158  0.00  0.00    +0.000 A 
BRANCH  25  26
ATOM     26  O   UNL     1       7.339   4.123  18.235  0.00  0.00    +0.000 OA
ATOM     27  H   UNL     1       6.424   4.031  18.552  0.00  0.00    +0.000 HD
ENDBRANCH  25  26
ENDBRANCH  18  20
ENDBRANCH  15  18
ENDBRANCH   7  15
TORSDOF 4
ENDMDL
MODEL 4
REMARK VINA RESULT:      -8.2      2.968      4.389
REMARK  Name = 
REMARK  4 active torsions:
REMARK  status: ('A' for Active; 'I' for Inactive)
REMARK    1  A    between atoms: C_7  and  S_8
REMARK    2  A    between atoms: S_8  and  N_11
REMARK    3  A    between atoms: N_11  and  C_12
REMARK    4  A    between atoms: C_17  and  O_18
REMARK                            x       y       z     vdW  Elec       q    Type
REMARK                         _______ _______ _______ _____ _____    ______ ____
ROOT
ATOM      1  O   UNL     1       1.013   9.558  20.821  0.00  0.00    +0.000 OA
ATOM      2  C   UNL     1       1.398   8.433  20.535  0.00  0.00    +0.000 C 
ATOM      3  N   UNL     1       1.239   7.304  21.347  0.00  0.00    +0.000 N 
ATOM      4  C   UNL     1       1.769   6.167  20.766  0.00  0.00    +0.000 A 
ATOM      5  C   UNL     1       1.830   4.866  21.224  0.00  0.00    +0.000 A 
ATOM      6  C   UNL     1       2.459   3.947  20.360  0.00  0.00    +0.000 A 
ATOM      7  C   UNL     1       2.981   4.339  19.094  0.00  0.00    +0.000 A 
ATOM      8  C   UNL     1       2.908   5.697  18.663  0.00  0.00    +0.000 A 
ATOM      9  C   UNL     1       3.351   6.332  17.474  0.00  0.00    +0.000 A 
ATOM     10  C   UNL     1       3.156   7.711  17.264  0.00  0.00    +0.000 A 
ATOM     11  C   UNL     1       2.520   8.522  18.214  0.00  0.00    +0.000 A 
ATOM     12  C   UNL     1       2.082   7.894  19.376  0.00  0.00    +0.000 A 
ATOM     13  C   UNL     1       2.291   6.533  19.546  0.00  0.00    +0.000 A 
ATOM     14  H   UNL     1       0.795   7.356  22.252  0.00  0.00    +0.000 HD
ENDROOT
BRANCH   7  15
ATOM     15  S   UNL     1       3.786   3.086  18.104  0.00  0.00    +0.000 S 
ATOM     16  O   UNL     1       3.290   1.783  18.483  0.00  0.00    +0.000 OA
ATOM     17  O   UNL     1       3.680   3.523  16.723  0.00  0.00    +0.000 OA
BRANCH  15  18
ATOM     18  N   UNL     1       5.427   3.210  18.494  0.00  0.00    +0.000 N 
ATOM     19  H   UNL     1       5.904   2.347  18.236  0.00  0.00    +0.000 HD
BRANCH  18  20
ATOM     20  C   UNL     1       6.136   4.381  18.083  0.00  0.00    +0.000 A 
ATOM     21  C   UNL     1       6.430   5.390  18.996  0.00  0.00    +0.000 A 
ATOM     22  C   UNL     1       7.122   6.527  18.570  0.00  0.00    +0.000 A 
ATOM     23  C   UNL     1       7.481   6.670  17.225  0.00  0.00    +0.000 A 
ATOM     24  C   UNL     1       7.169   5.667  16.304  0.00  0.00    +0.000 A 
ATOM     25  C   UNL     1       6.517   4.518  16.743  0.00  0.00    +0.000 A 
BRANCH  25  26
ATOM     26  O   UNL     1       6.248   3.490  15.880  0.00  0.00    +0.000 OA
ATOM     27  H   UNL     1       5.709   2.831  16.352  0.00  0.00    +0.000 HD
ENDBRANCH  25  26
ENDBRANCH  18  20
ENDBRANCH  15  18
ENDBRANCH   7  15
TORSDOF 4
ENDMDL
MODEL 5
REMARK VINA RESULT:      -8.2      1.010      1.127
REMARK  Name = 
REMARK  4 active torsions:
REMARK  status: ('A' for Active; 'I' for Inactive)
REMARK    1  A    between atoms: C_7  and  S_8
REMARK    2  A    between atoms: S_8  and  N_11
REMARK    3  A    between atoms: N_11  and  C_12
REMARK    4  A    between atoms: C_17  and  O_18
REMARK                            x       y       z     vdW  Elec       q    Type
REMARK                         _______ _______ _______ _____ _____    ______ ____
ROOT
ATOM      1  O   UNL     1       0.983   5.051  21.162  0.00  0.00    +0.000 OA
ATOM      2  C   UNL     1       1.935   5.132  20.397  0.00  0.00    +0.000 C 
ATOM      3  N   UNL     1       2.929   4.157  20.253  0.00  0.00    +0.000 N 
ATOM      4  C   UNL     1       3.876   4.517  19.313  0.00  0.00    +0.000 A 
ATOM      5  C   UNL     1       5.010   3.858  18.878  0.00  0.00    +0.000 A 
ATOM      6  C   UNL     1       5.763   4.530  17.896  0.00  0.00    +0.000 A 
ATOM      7  C   UNL     1       5.368   5.798  17.380  0.00  0.00    +0.000 A 
ATOM      8  C   UNL     1       4.196   6.450  17.864  0.00  0.00    +0.000 A 
ATOM      9  C   UNL     1       3.603   7.694  17.525  0.00  0.00    +0.000 A 
ATOM     10  C   UNL     1       2.416   8.132  18.144  0.00  0.00    +0.000 A 
ATOM     11  C   UNL     1       1.765   7.368  19.122  0.00  0.00    +0.000 A 
ATOM     12  C   UNL     1       2.347   6.146  19.447  0.00  0.00    +0.000 A 
ATOM     13  C   UNL     1       3.515   5.748  18.814  0.00  0.00    +0.000 A 
ATOM     14  H   UNL     1       2.928   3.310  20.801  0.00  0.00    +0.000 HD
ENDROOT
BRANCH   7  15
ATOM     15  S   UNL     1       6.428   6.564  16.159  0.00  0.00    +0.000 S 
ATOM     16  O   UNL     1       5.617   7.137  15.110  0.00  0.00    +0.000 OA
ATOM     17  O   UNL     1       7.356   7.406  16.893  0.00  0.00    +0.000 OA
BRANCH  15  18
ATOM     18  N   UNL     1       7.360   5.298  15.537  0.00  0.00    +0.000 N 
ATOM     19  H   UNL     1       7.526   4.606  16.267  0.00  0.00    +0.000 HD
BRANCH  18  20
ATOM     20  C   UNL     1       6.966   4.711  14.295  0.00  0.00    +0.000 A 
ATOM     21  C   UNL     1       5.875   3.849  14.232  0.00  0.00    +0.000 A 
ATOM     22  C   UNL     1       5.509   3.286  13.006  0.00  0.00    +0.000 A 
ATOM     23  C   UNL     1       6.261   3.551  11.857  0.00  0.00    +0.000 A 
ATOM     24  C   UNL     1       7.369   4.399  11.923  0.00  0.00    +0.000 A 
ATOM     25  C   UNL     1       7.702   4.992  13.138  0.00  0.00    +0.000 A 
BRANCH  25  26
ATOM     26  O   UNL     1       8.746   5.874  13.227  0.00  0.00    +0.000 OA
ATOM     27  H   UNL     1       9.127   5.803  14.120  0.00  0.00    +0.000 HD
ENDBRANCH  25  26
ENDBRANCH  18  20
ENDBRANCH  15  18
ENDBRANCH   7  15
TORSDOF 4
ENDMDL
MODEL 6
REMARK VINA RESULT:      -8.1      3.048      4.420
REMARK  Name = 
REMARK  4 active torsions:
REMARK  status: ('A' for Active; 'I' for Inactive)
REMARK    1  A    between atoms: C_7  and  S_8
REMARK    2  A    between atoms: S_8  and  N_11
REMARK    3  A    between atoms: N_11  and  C_12
REMARK    4  A    between atoms: C_17  and  O_18
REMARK                            x       y       z     vdW  Elec       q    Type
REMARK                         _______ _______ _______ _____ _____    ______ ____
ROOT
ATOM      1  O   UNL     1       0.963   9.483  20.837  0.00  0.00    +0.000 OA
ATOM      2  C   UNL     1       1.396   8.379  20.537  0.00  0.00    +0.000 C 
ATOM      3  N   UNL     1       1.283   7.233  21.333  0.00  0.00    +0.000 N 
ATOM      4  C   UNL     1       1.861   6.129  20.736  0.00  0.00    +0.000 A 
ATOM      5  C   UNL     1       1.977   4.825  21.177  0.00  0.00    +0.000 A 
ATOM      6  C   UNL     1       2.645   3.945  20.301  0.00  0.00    +0.000 A 
ATOM      7  C   UNL     1       3.151   4.377  19.041  0.00  0.00    +0.000 A 
ATOM      8  C   UNL     1       3.020   5.736  18.629  0.00  0.00    +0.000 A 
ATOM      9  C   UNL     1       3.437   6.406  17.449  0.00  0.00    +0.000 A 
ATOM     10  C   UNL     1       3.184   7.778  17.258  0.00  0.00    +0.000 A 
ATOM     11  C   UNL     1       2.515   8.548  18.219  0.00  0.00    +0.000 A 
ATOM     12  C   UNL     1       2.102   7.886  19.371  0.00  0.00    +0.000 A 
ATOM     13  C   UNL     1       2.369   6.533  19.522  0.00  0.00    +0.000 A 
ATOM     14  H   UNL     1       0.837   7.255  22.238  0.00  0.00    +0.000 HD
ENDROOT
BRANCH   7  15
ATOM     15  S   UNL     1       4.009   3.173  18.035  0.00  0.00    +0.000 S 
ATOM     16  O   UNL     1       3.615   1.842  18.438  0.00  0.00    +0.000 OA
ATOM     17  O   UNL     1       3.830   3.590  16.655  0.00  0.00    +0.000 OA
BRANCH  15  18
ATOM     18  N   UNL     1       5.648   3.413  18.372  0.00  0.00    +0.000 N 
ATOM     19  H   UNL     1       6.167   2.560  18.162  0.00  0.00    +0.000 HD
BRANCH  18  20
ATOM     20  C   UNL     1       6.282   4.587  17.861  0.00  0.00    +0.000 A 
ATOM     21  C   UNL     1       6.379   4.803  16.489  0.00  0.00    +0.000 A 
ATOM     22  C   UNL     1       7.005   5.959  16.014  0.00  0.00    +0.000 A 
ATOM     23  C   UNL     1       7.568   6.873  16.910  0.00  0.00    +0.000 A 
ATOM     24  C   UNL     1       7.490   6.649  18.286  0.00  0.00    +0.000 A 
ATOM     25  C   UNL     1       6.827   5.517  18.755  0.00  0.00    +0.000 A 
BRANCH  25  26
ATOM     26  O   UNL     1       6.679   5.294  20.098  0.00  0.00    +0.000 OA
ATOM     27  H   UNL     1       6.068   4.547  20.216  0.00  0.00    +0.000 HD
ENDBRANCH  25  26
ENDBRANCH  18  20
ENDBRANCH  15  18
ENDBRANCH   7  15
TORSDOF 4
ENDMDL
MODEL 7
REMARK VINA RESULT:      -8.0      1.224      1.403
REMARK  Name = 
REMARK  4 active torsions:
REMARK  status: ('A' for Active; 'I' for Inactive)
REMARK    1  A    between atoms: C_7  and  S_8
REMARK    2  A    between atoms: S_8  and  N_11
REMARK    3  A    between atoms: N_11  and  C_12
REMARK    4  A    between atoms: C_17  and  O_18
REMARK                            x       y       z     vdW  Elec       q    Type
REMARK                         _______ _______ _______ _____ _____    ______ ____
ROOT
ATOM      1  O   UNL     1       0.409   4.626  20.362  0.00  0.00    +0.000 OA
ATOM      2  C   UNL     1       1.522   4.604  19.854  0.00  0.00    +0.000 C 
ATOM      3  N   UNL     1       2.403   3.517  19.904  0.00  0.00    +0.000 N 
ATOM      4  C   UNL     1       3.586   3.777  19.240  0.00  0.00    +0.000 A 
ATOM      5  C   UNL     1       4.708   2.993  19.058  0.00  0.00    +0.000 A 
ATOM      6  C   UNL     1       5.752   3.588  18.322  0.00  0.00    +0.000 A 
ATOM      7  C   UNL     1       5.644   4.906  17.792  0.00  0.00    +0.000 A 
ATOM      8  C   UNL     1       4.472   5.687  18.012  0.00  0.00    +0.000 A 
ATOM      9  C   UNL     1       4.127   7.003  17.605  0.00  0.00    +0.000 A 
ATOM     10  C   UNL     1       2.883   7.571  17.942  0.00  0.00    +0.000 A 
ATOM     11  C   UNL     1       1.929   6.872  18.693  0.00  0.00    +0.000 A 
ATOM     12  C   UNL     1       2.268   5.580  19.085  0.00  0.00    +0.000 A 
ATOM     13  C   UNL     1       3.503   5.055  18.733  0.00  0.00    +0.000 A 
ATOM     14  H   UNL     1       2.170   2.665  20.392  0.00  0.00    +0.000 HD
ENDROOT
BRANCH   7  15
ATOM     15  S   UNL     1       7.052   5.561  16.904  0.00  0.00    +0.000 S 
ATOM     16  O   UNL     1       7.610   6.672  17.641  0.00  0.00    +0.000 OA
ATOM     17  O   UNL     1       7.892   4.424  16.571  0.00  0.00    +0.000 OA
BRANCH  15  18
ATOM     18  N   UNL     1       6.423   6.107  15.432  0.00  0.00    +0.000 N 
ATOM     19  H   UNL     1       6.886   6.975  15.166  0.00  0.00    +0.000 HD
BRANCH  18  20
ATOM     20  C   UNL     1       6.320   5.178  14.352  0.00  0.00    +0.000 A 
ATOM     21  C   UNL     1       5.176   4.402  14.189  0.00  0.00    +0.000 A 
ATOM     22  C   UNL     1       5.100   3.499  13.125  0.00  0.00    +0.000 A 
ATOM     23  C   UNL     1       6.183   3.344  12.253  0.00  0.00    +0.000 A 
ATOM     24  C   UNL     1       7.339   4.107  12.427  0.00  0.00    +0.000 A 
ATOM     25  C   UNL     1       7.393   5.036  13.463  0.00  0.00    +0.000 A 
BRANCH  25  26
ATOM     26  O   UNL     1       8.486   5.843  13.628  0.00  0.00    +0.000 OA
ATOM     27  H   UNL     1       8.193   6.668  14.052  0.00  0.00    +0.000 HD
ENDBRANCH  25  26
ENDBRANCH  18  20
ENDBRANCH  15  18
ENDBRANCH   7  15
TORSDOF 4
ENDMDL
MODEL 8
REMARK VINA RESULT:      -8.0      1.554      1.861
REMARK  Name = 
REMARK  4 active torsions:
REMARK  status: ('A' for Active; 'I' for Inactive)
REMARK    1  A    between atoms: C_7  and  S_8
REMARK    2  A    between atoms: S_8  and  N_11
REMARK    3  A    between atoms: N_11  and  C_12
REMARK    4  A    between atoms: C_17  and  O_18
REMARK                            x       y       z     vdW  Elec       q    Type
REMARK                         _______ _______ _______ _____ _____    ______ ____
ROOT
ATOM      1  O   UNL     1       0.977   6.493  21.152  0.00  0.00    +0.000 OA
ATOM      2  C   UNL     1       1.937   6.172  20.466  0.00  0.00    +0.000 C 
ATOM      3  N   UNL     1       2.708   5.019  20.659  0.00  0.00    +0.000 N 
ATOM      4  C   UNL     1       3.726   4.914  19.730  0.00  0.00    +0.000 A 
ATOM      5  C   UNL     1       4.703   3.951  19.570  0.00  0.00    +0.000 A 
ATOM      6  C   UNL     1       5.599   4.167  18.504  0.00  0.00    +0.000 A 
ATOM      7  C   UNL     1       5.488   5.297  17.644  0.00  0.00    +0.000 A 
ATOM      8  C   UNL     1       4.470   6.275  17.851  0.00  0.00    +0.000 A 
ATOM      9  C   UNL     1       4.158   7.470  17.152  0.00  0.00    +0.000 A 
ATOM     10  C   UNL     1       3.079   8.286  17.544  0.00  0.00    +0.000 A 
ATOM     11  C   UNL     1       2.264   7.962  18.638  0.00  0.00    +0.000 A 
ATOM     12  C   UNL     1       2.570   6.786  19.316  0.00  0.00    +0.000 A 
ATOM     13  C   UNL     1       3.641   6.008  18.899  0.00  0.00    +0.000 A 
ATOM     14  H   UNL     1       2.519   4.371  21.410  0.00  0.00    +0.000 HD
ENDROOT
BRANCH   7  15
ATOM     15  S   UNL     1       6.707   5.476  16.347  0.00  0.00    +0.000 S 
ATOM     16  O   UNL     1       7.507   6.652  16.598  0.00  0.00    +0.000 OA
ATOM     17  O   UNL     1       7.352   4.182  16.210  0.00  0.00    +0.000 OA
BRANCH  15  18
ATOM     18  N   UNL     1       5.807   5.686  14.931  0.00  0.00    +0.000 N 
ATOM     19  H   UNL     1       5.817   6.670  14.664  0.00  0.00    +0.000 HD
BRANCH  18  20
ATOM     20  C   UNL     1       6.059   4.811  13.830  0.00  0.00    +0.000 A 
ATOM     21  C   UNL     1       5.086   3.914  13.398  0.00  0.00    +0.000 A 
ATOM     22  C   UNL     1       5.356   3.066  12.321  0.00  0.00    +0.000 A 
ATOM     23  C   UNL     1       6.612   3.088  11.706  0.00  0.00    +0.000 A 
ATOM     24  C   UNL     1       7.597   3.973  12.150  0.00  0.00    +0.000 A 
ATOM     25  C   UNL     1       7.307   4.845  13.197  0.00  0.00    +0.000 A 
BRANCH  25  26
ATOM     26  O   UNL     1       8.228   5.766  13.620  0.00  0.00    +0.000 OA
ATOM     27  H   UNL     1       9.075   5.570  13.184  0.00  0.00    +0.000 HD
ENDBRANCH  25  26
ENDBRANCH  18  20
ENDBRANCH  15  18
ENDBRANCH   7  15
TORSDOF 4
ENDMDL
MODEL 9
REMARK VINA RESULT:      -7.9      2.507      6.689
REMARK  Name = 
REMARK  4 active torsions:
REMARK  status: ('A' for Active; 'I' for Inactive)
REMARK    1  A    between atoms: C_7  and  S_8
REMARK    2  A    between atoms: S_8  and  N_11
REMARK    3  A    between atoms: N_11  and  C_12
REMARK    4  A    between atoms: C_17  and  O_18
REMARK                            x       y       z     vdW  Elec       q    Type
REMARK                         _______ _______ _______ _____ _____    ______ ____
ROOT
ATOM      1  O   UNL     1       7.879   4.666  14.806  0.00  0.00    +0.000 OA
ATOM      2  C   UNL     1       6.889   4.556  15.516  0.00  0.00    +0.000 C 
ATOM      3  N   UNL     1       5.665   4.018  15.101  0.00  0.00    +0.000 N 
ATOM      4  C   UNL     1       4.728   4.017  16.117  0.00  0.00    +0.000 A 
ATOM      5  C   UNL     1       3.414   3.590  16.131  0.00  0.00    +0.000 A 
ATOM      6  C   UNL     1       2.738   3.746  17.357  0.00  0.00    +0.000 A 
ATOM      7  C   UNL     1       3.377   4.295  18.506  0.00  0.00    +0.000 A 
ATOM      8  C   UNL     1       4.733   4.735  18.446  0.00  0.00    +0.000 A 
ATOM      9  C   UNL     1       5.579   5.312  19.429  0.00  0.00    +0.000 A 
ATOM     10  C   UNL     1       6.910   5.664  19.132  0.00  0.00    +0.000 A 
ATOM     11  C   UNL     1       7.464   5.465  17.860  0.00  0.00    +0.000 A 
ATOM     12  C   UNL     1       6.633   4.892  16.902  0.00  0.00    +0.000 A 
ATOM     13  C   UNL     1       5.327   4.559  17.232  0.00  0.00    +0.000 A 
ATOM     14  H   UNL     1       5.518   3.693  14.157  0.00  0.00    +0.000 HD
ENDROOT
BRANCH   7  15
ATOM     15  S   UNL     1       2.401   4.472  19.994  0.00  0.00    +0.000 S 
ATOM     16  O   UNL     1       0.999   4.366  19.664  0.00  0.00    +0.000 OA
ATOM     17  O   UNL     1       2.981   3.571  20.974  0.00  0.00    +0.000 OA
BRANCH  15  18
ATOM     18  N   UNL     1       2.742   6.031  20.555  0.00  0.00    +0.000 N 
ATOM     19  H   UNL     1       3.736   6.106  20.767  0.00  0.00    +0.000 HD
BRANCH  18  20
ATOM     20  C   UNL     1       2.247   7.144  19.810  0.00  0.00    +0.000 A 
ATOM     21  C   UNL     1       2.466   7.235  18.438  0.00  0.00    +0.000 A 
ATOM     22  C   UNL     1       1.973   8.335  17.731  0.00  0.00    +0.000 A 
ATOM     23  C   UNL     1       1.302   9.361  18.403  0.00  0.00    +0.000 A 
ATOM     24  C   UNL     1       1.099   9.282  19.782  0.00  0.00    +0.000 A 
ATOM     25  C   UNL     1       1.555   8.163  20.475  0.00  0.00    +0.000 A 
BRANCH  25  26
ATOM     26  O   UNL     1       1.322   8.025  21.817  0.00  0.00    +0.000 OA
ATOM     27  H   UNL     1       1.087   7.097  21.990  0.00  0.00    +0.000 HD
ENDBRANCH  25  26
ENDBRANCH  18  20
ENDBRANCH  15  18
ENDBRANCH   7  15
TORSDOF 4
ENDMDL
