MODEL 1
REMARK VINA RESULT:      -7.9      0.000      0.000
REMARK  Name = 
REMARK  4 active torsions:
REMARK  status: ('A' for Active; 'I' for Inactive)
REMARK    1  A    between atoms: C_2  and  C_17
REMARK    2  A    between atoms: N_3  and  C_4
REMARK    3  A    between atoms: C_7  and  C_8
REMARK    4  A    between atoms: C_19  and  C_20
REMARK                            x       y       z     vdW  Elec       q    Type
REMARK                         _______ _______ _______ _____ _____    ______ ____
ROOT
ATOM      1  O   UNL     1       1.509  12.029  19.352  0.00  0.00    +0.000 OA
ATOM      2  C   UNL     1       0.404  11.517  19.489  0.00  0.00    +0.000 C 
ATOM      3  N   UNL     1       0.125  10.163  19.331  0.00  0.00    +0.000 N 
ATOM      4  H   UNL     1      -0.857   9.923  19.249  0.00  0.00    +0.000 HD
ENDROOT
BRANCH   3   5
ATOM      5  C   UNL     1       1.120   9.189  19.083  0.00  0.00    +0.000 A 
ATOM      6  C   UNL     1       1.739   9.084  17.834  0.00  0.00    +0.000 A 
ATOM      7  C   UNL     1       2.638   8.060  17.557  0.00  0.00    +0.000 A 
ATOM      8  C   UNL     1       2.889   7.081  18.513  0.00  0.00    +0.000 A 
ATOM      9  C   UNL     1       2.372   7.241  19.807  0.00  0.00    +0.000 A 
ATOM     10  C   UNL     1       1.499   8.306  20.097  0.00  0.00    +0.000 A 
BRANCH   8  11
ATOM     11  C   UNL     1       3.669   5.861  18.167  0.00  0.00    +0.000 C 
ATOM     12  O   UNL     1       4.897   5.919  18.233  0.00  0.00    +0.000 OA
ATOM     13  N   UNL     1       2.987   4.692  17.844  0.00  0.00    +0.000 N 
ATOM     14  C   UNL     1       1.554   4.435  17.879  0.00  0.00    +0.000 C 
ATOM     15  C   UNL     1       1.455   2.986  18.311  0.00  0.00    +0.000 C 
ATOM     16  C   UNL     1       2.668   2.344  17.654  0.00  0.00    +0.000 C 
ATOM     17  C   UNL     1       3.713   3.458  17.595  0.00  0.00    +0.000 C 
ENDBRANCH   8  11
ENDBRANCH   3   5
BRANCH   2  18
ATOM     18  C   UNL     1      -0.750  12.363  19.806  0.00  0.00    +0.000 A 
ATOM     19  C   UNL     1      -2.019  11.847  20.176  0.00  0.00    +0.000 A 
ATOM     20  C   UNL     1      -2.850  12.930  20.358  0.00  0.00    +0.000 A 
ATOM     21  N   UNL     1      -2.052  14.014  20.078  0.00  0.00    +0.000 N 
ATOM     22  N   UNL     1      -0.767  13.707  19.780  0.00  0.00    +0.000 NA
ATOM     23  H   UNL     1      -2.330  14.991  20.069  0.00  0.00    +0.000 HD
BRANCH  20  24
ATOM     24  C   UNL     1      -4.257  12.972  20.774  0.00  0.00    +0.000 A 
ATOM     25  C   UNL     1      -5.227  13.173  19.772  0.00  0.00    +0.000 A 
ATOM     26  C   UNL     1      -6.590  13.243  20.075  0.00  0.00    +0.000 A 
ATOM     27  C   UNL     1      -7.011  13.115  21.392  0.00  0.00    +0.000 A 
ATOM     28  C   UNL     1      -6.071  12.924  22.404  0.00  0.00    +0.000 A 
ATOM     29  C   UNL     1      -4.702  12.855  22.103  0.00  0.00    +0.000 A 
ATOM     30 CL   UNL     1      -3.621  12.656  23.439  0.00  0.00    +0.000 Cl
ENDBRANCH  20  24
ENDBRANCH   2  18
TORSDOF 4
ENDMDL
MODEL 2
REMARK VINA RESULT:      -7.9      3.021      4.125
REMARK  Name = 
REMARK  4 active torsions:
REMARK  status: ('A' for Active; 'I' for Inactive)
REMARK    1  A    between atoms: C_2  and  C_17
REMARK    2  A    between atoms: N_3  and  C_4
REMARK    3  A    between atoms: C_7  and  C_8
REMARK    4  A    between atoms: C_19  and  C_20
REMARK                            x       y       z     vdW  Elec       q    Type
REMARK                         _______ _______ _______ _____ _____    ______ ____
ROOT
ATOM      1  O   UNL     1      -1.161  10.172  18.519  0.00  0.00    +0.000 OA
ATOM      2  C   UNL     1      -0.320  10.913  19.015  0.00  0.00    +0.000 C 
ATOM      3  N   UNL     1       0.949  10.520  19.429  0.00  0.00    +0.000 N 
ATOM      4  H   UNL     1       1.441  11.179  20.022  0.00  0.00    +0.000 HD
ENDROOT
BRANCH   3   5
ATOM      5  C   UNL     1       1.459   9.216  19.235  0.00  0.00    +0.000 A 
ATOM      6  C   UNL     1       1.430   8.264  20.260  0.00  0.00    +0.000 A 
ATOM      7  C   UNL     1       2.028   7.018  20.105  0.00  0.00    +0.000 A 
ATOM      8  C   UNL     1       2.722   6.723  18.936  0.00  0.00    +0.000 A 
ATOM      9  C   UNL     1       2.656   7.616  17.857  0.00  0.00    +0.000 A 
ATOM     10  C   UNL     1       2.009   8.859  18.002  0.00  0.00    +0.000 A 
BRANCH   8  11
ATOM     11  C   UNL     1       3.552   5.492  18.835  0.00  0.00    +0.000 C 
ATOM     12  O   UNL     1       4.720   5.544  19.223  0.00  0.00    +0.000 OA
ATOM     13  N   UNL     1       2.968   4.319  18.367  0.00  0.00    +0.000 N 
ATOM     14  C   UNL     1       1.575   4.070  18.026  0.00  0.00    +0.000 C 
ATOM     15  C   UNL     1       1.348   2.632  18.446  0.00  0.00    +0.000 C 
ATOM     16  C   UNL     1       2.685   1.969  18.148  0.00  0.00    +0.000 C 
ATOM     17  C   UNL     1       3.720   3.076  18.346  0.00  0.00    +0.000 C 
ENDBRANCH   8  11
ENDBRANCH   3   5
BRANCH   2  18
ATOM     18  C   UNL     1      -0.646  12.324  19.244  0.00  0.00    +0.000 A 
ATOM     19  C   UNL     1       0.208  13.394  18.871  0.00  0.00    +0.000 A 
ATOM     20  C   UNL     1      -0.411  14.555  19.275  0.00  0.00    +0.000 A 
ATOM     21  N   UNL     1      -1.573  14.125  19.869  0.00  0.00    +0.000 N 
ATOM     22  N   UNL     1      -1.764  12.785  19.830  0.00  0.00    +0.000 NA
ATOM     23  H   UNL     1      -2.277  14.700  20.324  0.00  0.00    +0.000 HD
BRANCH  20  24
ATOM     24  C   UNL     1       0.017  15.950  19.113  0.00  0.00    +0.000 A 
ATOM     25  C   UNL     1      -0.448  16.648  17.980  0.00  0.00    +0.000 A 
ATOM     26  C   UNL     1      -0.080  17.974  17.734  0.00  0.00    +0.000 A 
ATOM     27  C   UNL     1       0.766  18.630  18.618  0.00  0.00    +0.000 A 
ATOM     28  C   UNL     1       1.247  17.961  19.743  0.00  0.00    +0.000 A 
ATOM     29  C   UNL     1       0.881  16.629  19.992  0.00  0.00    +0.000 A 
ATOM     30 CL   UNL     1       1.568  15.882  21.393  0.00  0.00    +0.000 Cl
ENDBRANCH  20  24
ENDBRANCH   2  18
TORSDOF 4
ENDMDL
MODEL 3
REMARK VINA RESULT:      -7.9      7.921     11.346
REMARK  Name = 
REMARK  4 active torsions:
REMARK  status: ('A' for Active; 'I' for Inactive)
REMARK    1  A    between atoms: C_2  and  C_17
REMARK    2  A    between atoms: N_3  and  C_4
REMARK    3  A    between atoms: C_7  and  C_8
REMARK    4  A    between atoms: C_19  and  C_20
REMARK                            x       y       z     vdW  Elec       q    Type
REMARK                         _______ _______ _______ _____ _____    ______ ____
ROOT
ATOM      1  O   UNL     1       8.181   7.587  16.551  0.00  0.00    +0.000 OA
ATOM      2  C   UNL     1       7.742   7.439  17.686  0.00  0.00    +0.000 C 
ATOM      3  N   UNL     1       7.899   8.347  18.729  0.00  0.00    +0.000 N 
ATOM      4  H   UNL     1       7.686   7.993  19.655  0.00  0.00    +0.000 HD
ENDROOT
BRANCH   3   5
ATOM      5  C   UNL     1       8.513   9.611  18.573  0.00  0.00    +0.000 A 
ATOM      6  C   UNL     1       7.984  10.573  17.706  0.00  0.00    +0.000 A 
ATOM      7  C   UNL     1       8.646  11.773  17.471  0.00  0.00    +0.000 A 
ATOM      8  C   UNL     1       9.886  12.009  18.057  0.00  0.00    +0.000 A 
ATOM      9  C   UNL     1      10.368  11.110  19.020  0.00  0.00    +0.000 A 
ATOM     10  C   UNL     1       9.672   9.916  19.290  0.00  0.00    +0.000 A 
BRANCH   8  11
ATOM     11  C   UNL     1      10.710  13.179  17.650  0.00  0.00    +0.000 C 
ATOM     12  O   UNL     1      11.427  13.067  16.655  0.00  0.00    +0.000 OA
ATOM     13  N   UNL     1      10.596  14.367  18.364  0.00  0.00    +0.000 N 
ATOM     14  C   UNL     1       9.683  14.691  19.451  0.00  0.00    +0.000 C 
ATOM     15  C   UNL     1       9.363  16.156  19.233  0.00  0.00    +0.000 C 
ATOM     16  C   UNL     1      10.669  16.720  18.695  0.00  0.00    +0.000 C 
ATOM     17  C   UNL     1      11.311  15.558  17.937  0.00  0.00    +0.000 C 
ENDBRANCH   8  11
ENDBRANCH   3   5
BRANCH   2  18
ATOM     18  C   UNL     1       7.021   6.209  18.026  0.00  0.00    +0.000 A 
ATOM     19  C   UNL     1       5.617   6.062  17.886  0.00  0.00    +0.000 A 
ATOM     20  C   UNL     1       5.304   4.798  18.334  0.00  0.00    +0.000 A 
ATOM     21  N   UNL     1       6.513   4.274  18.725  0.00  0.00    +0.000 N 
ATOM     22  N   UNL     1       7.575   5.086  18.514  0.00  0.00    +0.000 NA
ATOM     23  H   UNL     1       6.676   3.364  19.148  0.00  0.00    +0.000 HD
BRANCH  20  24
ATOM     24  C   UNL     1       4.004   4.117  18.384  0.00  0.00    +0.000 A 
ATOM     25  C   UNL     1       3.908   2.852  17.771  0.00  0.00    +0.000 A 
ATOM     26  C   UNL     1       2.707   2.136  17.754  0.00  0.00    +0.000 A 
ATOM     27  C   UNL     1       1.574   2.675  18.350  0.00  0.00    +0.000 A 
ATOM     28  C   UNL     1       1.641   3.928  18.956  0.00  0.00    +0.000 A 
ATOM     29  C   UNL     1       2.844   4.650  18.973  0.00  0.00    +0.000 A 
ATOM     30 CL   UNL     1       2.804   6.213  19.716  0.00  0.00    +0.000 Cl
ENDBRANCH  20  24
ENDBRANCH   2  18
TORSDOF 4
ENDMDL
MODEL 4
REMARK VINA RESULT:      -7.9      1.317      1.356
REMARK  Name = 
REMARK  4 active torsions:
REMARK  status: ('A' for Active; 'I' for Inactive)
REMARK    1  A    between atoms: C_2  and  C_17
REMARK    2  A    between atoms: N_3  and  C_4
REMARK    3  A    between atoms: C_7  and  C_8
REMARK    4  A    between atoms: C_19  and  C_20
REMARK                            x       y       z     vdW  Elec       q    Type
REMARK                         _______ _______ _______ _____ _____    ______ ____
ROOT
ATOM      1  O   UNL     1       1.665  11.497  21.349  0.00  0.00    +0.000 OA
ATOM      2  C   UNL     1       0.510  11.111  21.205  0.00  0.00    +0.000 C 
ATOM      3  N   UNL     1       0.125   9.998  20.464  0.00  0.00    +0.000 N 
ATOM      4  H   UNL     1      -0.864   9.936  20.248  0.00  0.00    +0.000 HD
ENDROOT
BRANCH   3   5
ATOM      5  C   UNL     1       1.045   9.113  19.857  0.00  0.00    +0.000 A 
ATOM      6  C   UNL     1       1.459   9.291  18.533  0.00  0.00    +0.000 A 
ATOM      7  C   UNL     1       2.279   8.361  17.902  0.00  0.00    +0.000 A 
ATOM      8  C   UNL     1       2.652   7.200  18.571  0.00  0.00    +0.000 A 
ATOM      9  C   UNL     1       2.348   7.067  19.933  0.00  0.00    +0.000 A 
ATOM     10  C   UNL     1       1.556   8.034  20.582  0.00  0.00    +0.000 A 
BRANCH   8  11
ATOM     11  C   UNL     1       3.339   6.094  17.849  0.00  0.00    +0.000 C 
ATOM     12  O   UNL     1       4.474   6.298  17.418  0.00  0.00    +0.000 OA
ATOM     13  N   UNL     1       2.705   4.860  17.742  0.00  0.00    +0.000 N 
ATOM     14  C   UNL     1       1.446   4.430  18.334  0.00  0.00    +0.000 C 
ATOM     15  C   UNL     1       1.677   2.969  18.659  0.00  0.00    +0.000 C 
ATOM     16  C   UNL     1       2.571   2.497  17.523  0.00  0.00    +0.000 C 
ATOM     17  C   UNL     1       3.384   3.731  17.131  0.00  0.00    +0.000 C 
ENDBRANCH   8  11
ENDBRANCH   3   5
BRANCH   2  18
ATOM     18  C   UNL     1      -0.586  11.872  21.813  0.00  0.00    +0.000 A 
ATOM     19  C   UNL     1      -1.921  11.833  21.337  0.00  0.00    +0.000 A 
ATOM     20  C   UNL     1      -2.649  12.694  22.128  0.00  0.00    +0.000 A 
ATOM     21  N   UNL     1      -1.723  13.203  23.007  0.00  0.00    +0.000 N 
ATOM     22  N   UNL     1      -0.476  12.695  22.870  0.00  0.00    +0.000 NA
ATOM     23  H   UNL     1      -1.884  13.904  23.725  0.00  0.00    +0.000 HD
BRANCH  20  24
ATOM     24  C   UNL     1      -4.082  13.012  22.094  0.00  0.00    +0.000 A 
ATOM     25  C   UNL     1      -4.612  13.505  20.884  0.00  0.00    +0.000 A 
ATOM     26  C   UNL     1      -5.961  13.850  20.761  0.00  0.00    +0.000 A 
ATOM     27  C   UNL     1      -6.810  13.712  21.851  0.00  0.00    +0.000 A 
ATOM     28  C   UNL     1      -6.310  13.234  23.062  0.00  0.00    +0.000 A 
ATOM     29  C   UNL     1      -4.956  12.889  23.189  0.00  0.00    +0.000 A 
ATOM     30 CL   UNL     1      -4.434  12.346  24.747  0.00  0.00    +0.000 Cl
ENDBRANCH  20  24
ENDBRANCH   2  18
TORSDOF 4
ENDMDL
MODEL 5
REMARK VINA RESULT:      -7.8      8.858     11.830
REMARK  Name = 
REMARK  4 active torsions:
REMARK  status: ('A' for Active; 'I' for Inactive)
REMARK    1  A    between atoms: C_2  and  C_17
REMARK    2  A    between atoms: N_3  and  C_4
REMARK    3  A    between atoms: C_7  and  C_8
REMARK    4  A    between atoms: C_19  and  C_20
REMARK                            x       y       z     vdW  Elec       q    Type
REMARK                         _______ _______ _______ _____ _____    ______ ____
ROOT
ATOM      1  O   UNL     1       7.789   8.735  17.072  0.00  0.00    +0.000 OA
ATOM      2  C   UNL     1       8.039   8.173  18.133  0.00  0.00    +0.000 C 
ATOM      3  N   UNL     1       8.805   8.713  19.162  0.00  0.00    +0.000 N 
ATOM      4  H   UNL     1       9.115   8.055  19.869  0.00  0.00    +0.000 HD
ENDROOT
BRANCH   3   5
ATOM      5  C   UNL     1       9.313  10.032  19.143  0.00  0.00    +0.000 A 
ATOM      6  C   UNL     1       9.496  10.757  20.325  0.00  0.00    +0.000 A 
ATOM      7  C   UNL     1       9.893  12.090  20.299  0.00  0.00    +0.000 A 
ATOM      8  C   UNL     1      10.058  12.741  19.081  0.00  0.00    +0.000 A 
ATOM      9  C   UNL     1       9.998  11.997  17.894  0.00  0.00    +0.000 A 
ATOM     10  C   UNL     1       9.641  10.635  17.926  0.00  0.00    +0.000 A 
BRANCH   8  11
ATOM     11  C   UNL     1      10.264  14.214  19.028  0.00  0.00    +0.000 C 
ATOM     12  O   UNL     1      11.415  14.636  18.910  0.00  0.00    +0.000 OA
ATOM     13  N   UNL     1       9.154  15.053  19.051  0.00  0.00    +0.000 N 
ATOM     14  C   UNL     1       7.743  14.696  19.027  0.00  0.00    +0.000 C 
ATOM     15  C   UNL     1       7.101  15.802  18.215  0.00  0.00    +0.000 C 
ATOM     16  C   UNL     1       7.914  17.030  18.596  0.00  0.00    +0.000 C 
ATOM     17  C   UNL     1       9.311  16.490  18.903  0.00  0.00    +0.000 C 
ENDBRANCH   8  11
ENDBRANCH   3   5
BRANCH   2  18
ATOM     18  C   UNL     1       7.546   6.812  18.363  0.00  0.00    +0.000 A 
ATOM     19  C   UNL     1       6.247   6.380  17.993  0.00  0.00    +0.000 A 
ATOM     20  C   UNL     1       6.135   5.068  18.398  0.00  0.00    +0.000 A 
ATOM     21  N   UNL     1       7.346   4.798  18.990  0.00  0.00    +0.000 N 
ATOM     22  N   UNL     1       8.234   5.818  18.949  0.00  0.00    +0.000 NA
ATOM     23  H   UNL     1       7.623   3.932  19.444  0.00  0.00    +0.000 HD
BRANCH  20  24
ATOM     24  C   UNL     1       5.017   4.131  18.239  0.00  0.00    +0.000 A 
ATOM     25  C   UNL     1       4.478   3.554  19.407  0.00  0.00    +0.000 A 
ATOM     26  C   UNL     1       3.424   2.638  19.352  0.00  0.00    +0.000 A 
ATOM     27  C   UNL     1       2.885   2.278  18.124  0.00  0.00    +0.000 A 
ATOM     28  C   UNL     1       3.405   2.828  16.953  0.00  0.00    +0.000 A 
ATOM     29  C   UNL     1       4.465   3.746  17.004  0.00  0.00    +0.000 A 
ATOM     30 CL   UNL     1       5.058   4.334  15.488  0.00  0.00    +0.000 Cl
ENDBRANCH  20  24
ENDBRANCH   2  18
TORSDOF 4
ENDMDL
MODEL 6
REMARK VINA RESULT:      -7.8      3.550     10.627
REMARK  Name = 
REMARK  4 active torsions:
REMARK  status: ('A' for Active; 'I' for Inactive)
REMARK    1  A    between atoms: C_2  and  C_17
REMARK    2  A    between atoms: N_3  and  C_4
REMARK    3  A    between atoms: C_7  and  C_8
REMARK    4  A    between atoms: C_19  and  C_20
REMARK                            x       y       z     vdW  Elec       q    Type
REMARK                         _______ _______ _______ _____ _____    ______ ____
ROOT
ATOM      1  O   UNL     1       0.877   9.269  18.811  0.00  0.00    +0.000 OA
ATOM      2  C   UNL     1       1.383   8.650  19.740  0.00  0.00    +0.000 C 
ATOM      3  N   UNL     1       1.258   8.982  21.085  0.00  0.00    +0.000 N 
ATOM      4  H   UNL     1       1.910   8.523  21.713  0.00  0.00    +0.000 HD
ENDROOT
BRANCH   3   5
ATOM      5  C   UNL     1       0.440  10.035  21.552  0.00  0.00    +0.000 A 
ATOM      6  C   UNL     1       0.547  11.327  21.026  0.00  0.00    +0.000 A 
ATOM      7  C   UNL     1      -0.181  12.386  21.559  0.00  0.00    +0.000 A 
ATOM      8  C   UNL     1      -0.988  12.181  22.673  0.00  0.00    +0.000 A 
ATOM      9  C   UNL     1      -1.199  10.873  23.133  0.00  0.00    +0.000 A 
ATOM     10  C   UNL     1      -0.496   9.796  22.561  0.00  0.00    +0.000 A 
BRANCH   8  11
ATOM     11  C   UNL     1      -1.599  13.333  23.392  0.00  0.00    +0.000 C 
ATOM     12  O   UNL     1      -0.854  14.091  24.013  0.00  0.00    +0.000 OA
ATOM     13  N   UNL     1      -2.969  13.545  23.287  0.00  0.00    +0.000 N 
ATOM     14  C   UNL     1      -3.940  12.833  22.468  0.00  0.00    +0.000 C 
ATOM     15  C   UNL     1      -4.925  13.907  22.054  0.00  0.00    +0.000 C 
ATOM     16  C   UNL     1      -4.977  14.819  23.270  0.00  0.00    +0.000 C 
ATOM     17  C   UNL     1      -3.585  14.713  23.894  0.00  0.00    +0.000 C 
ENDBRANCH   8  11
ENDBRANCH   3   5
BRANCH   2  18
ATOM     18  C   UNL     1       2.226   7.484  19.455  0.00  0.00    +0.000 A 
ATOM     19  C   UNL     1       3.069   7.389  18.318  0.00  0.00    +0.000 A 
ATOM     20  C   UNL     1       3.667   6.150  18.371  0.00  0.00    +0.000 A 
ATOM     21  N   UNL     1       3.147   5.577  19.507  0.00  0.00    +0.000 N 
ATOM     22  N   UNL     1       2.305   6.373  20.206  0.00  0.00    +0.000 NA
ATOM     23  H   UNL     1       3.329   4.640  19.856  0.00  0.00    +0.000 HD
BRANCH  20  24
ATOM     24  C   UNL     1       4.650   5.545  17.464  0.00  0.00    +0.000 A 
ATOM     25  C   UNL     1       5.843   6.257  17.227  0.00  0.00    +0.000 A 
ATOM     26  C   UNL     1       6.830   5.768  16.366  0.00  0.00    +0.000 A 
ATOM     27  C   UNL     1       6.642   4.553  15.721  0.00  0.00    +0.000 A 
ATOM     28  C   UNL     1       5.467   3.832  15.931  0.00  0.00    +0.000 A 
ATOM     29  C   UNL     1       4.474   4.321  16.793  0.00  0.00    +0.000 A 
ATOM     30 CL   UNL     1       3.040   3.366  16.949  0.00  0.00    +0.000 Cl
ENDBRANCH  20  24
ENDBRANCH   2  18
TORSDOF 4
ENDMDL
MODEL 7
REMARK VINA RESULT:      -7.8      7.830     11.284
REMARK  Name = 
REMARK  4 active torsions:
REMARK  status: ('A' for Active; 'I' for Inactive)
REMARK    1  A    between atoms: C_2  and  C_17
REMARK    2  A    between atoms: N_3  and  C_4
REMARK    3  A    between atoms: C_7  and  C_8
REMARK    4  A    between atoms: C_19  and  C_20
REMARK                            x       y       z     vdW  Elec       q    Type
REMARK                         _______ _______ _______ _____ _____    ______ ____
ROOT
ATOM      1  O   UNL     1       8.609   7.069  18.735  0.00  0.00    +0.000 OA
ATOM      2  C   UNL     1       7.732   7.618  18.078  0.00  0.00    +0.000 C 
ATOM      3  N   UNL     1       7.640   8.988  17.855  0.00  0.00    +0.000 N 
ATOM      4  H   UNL     1       6.750   9.315  17.494  0.00  0.00    +0.000 HD
ENDROOT
BRANCH   3   5
ATOM      5  C   UNL     1       8.616   9.914  18.287  0.00  0.00    +0.000 A 
ATOM      6  C   UNL     1       9.094   9.905  19.602  0.00  0.00    +0.000 A 
ATOM      7  C   UNL     1       9.973  10.881  20.057  0.00  0.00    +0.000 A 
ATOM      8  C   UNL     1      10.346  11.925  19.216  0.00  0.00    +0.000 A 
ATOM      9  C   UNL     1       9.975  11.880  17.865  0.00  0.00    +0.000 A 
ATOM     10  C   UNL     1       9.121  10.863  17.395  0.00  0.00    +0.000 A 
BRANCH   8  11
ATOM     11  C   UNL     1      11.103  13.093  19.743  0.00  0.00    +0.000 C 
ATOM     12  O   UNL     1      12.333  13.041  19.732  0.00  0.00    +0.000 OA
ATOM     13  N   UNL     1      10.402  14.217  20.167  0.00  0.00    +0.000 N 
ATOM     14  C   UNL     1       8.972  14.480  20.091  0.00  0.00    +0.000 C 
ATOM     15  C   UNL     1       8.888  15.970  19.829  0.00  0.00    +0.000 C 
ATOM     16  C   UNL     1      10.064  16.527  20.618  0.00  0.00    +0.000 C 
ATOM     17  C   UNL     1      11.110  15.412  20.596  0.00  0.00    +0.000 C 
ENDBRANCH   8  11
ENDBRANCH   3   5
BRANCH   2  18
ATOM     18  C   UNL     1       6.655   6.812  17.496  0.00  0.00    +0.000 A 
ATOM     19  C   UNL     1       5.771   6.015  18.268  0.00  0.00    +0.000 A 
ATOM     20  C   UNL     1       4.930   5.383  17.380  0.00  0.00    +0.000 A 
ATOM     21  N   UNL     1       5.358   5.816  16.148  0.00  0.00    +0.000 N 
ATOM     22  N   UNL     1       6.372   6.711  16.186  0.00  0.00    +0.000 NA
ATOM     23  H   UNL     1       4.998   5.531  15.241  0.00  0.00    +0.000 HD
BRANCH  20  24
ATOM     24  C   UNL     1       3.810   4.469  17.639  0.00  0.00    +0.000 A 
ATOM     25  C   UNL     1       4.049   3.087  17.494  0.00  0.00    +0.000 A 
ATOM     26  C   UNL     1       3.040   2.143  17.704  0.00  0.00    +0.000 A 
ATOM     27  C   UNL     1       1.766   2.564  18.062  0.00  0.00    +0.000 A 
ATOM     28  C   UNL     1       1.500   3.925  18.204  0.00  0.00    +0.000 A 
ATOM     29  C   UNL     1       2.511   4.875  17.992  0.00  0.00    +0.000 A 
ATOM     30 CL   UNL     1       2.062   6.539  18.155  0.00  0.00    +0.000 Cl
ENDBRANCH  20  24
ENDBRANCH   2  18
TORSDOF 4
ENDMDL
MODEL 8
REMARK VINA RESULT:      -7.7      1.321      1.695
REMARK  Name = 
REMARK  4 active torsions:
REMARK  status: ('A' for Active; 'I' for Inactive)
REMARK    1  A    between atoms: C_2  and  C_17
REMARK    2  A    between atoms: N_3  and  C_4
REMARK    3  A    between atoms: C_7  and  C_8
REMARK    4  A    between atoms: C_19  and  C_20
REMARK                            x       y       z     vdW  Elec       q    Type
REMARK                         _______ _______ _______ _____ _____    ______ ____
ROOT
ATOM      1  O   UNL     1       1.061  10.949  21.398  0.00  0.00    +0.000 OA
ATOM      2  C   UNL     1       0.239  10.948  20.489  0.00  0.00    +0.000 C 
ATOM      3  N   UNL     1       0.284  10.121  19.371  0.00  0.00    +0.000 N 
ATOM      4  H   UNL     1      -0.323  10.387  18.603  0.00  0.00    +0.000 HD
ENDROOT
BRANCH   3   5
ATOM      5  C   UNL     1       1.247   9.101  19.198  0.00  0.00    +0.000 A 
ATOM      6  C   UNL     1       1.990   8.995  18.017  0.00  0.00    +0.000 A 
ATOM      7  C   UNL     1       2.858   7.931  17.803  0.00  0.00    +0.000 A 
ATOM      8  C   UNL     1       2.955   6.914  18.748  0.00  0.00    +0.000 A 
ATOM      9  C   UNL     1       2.313   7.068  19.985  0.00  0.00    +0.000 A 
ATOM     10  C   UNL     1       1.470   8.172  20.217  0.00  0.00    +0.000 A 
BRANCH   8  11
ATOM     11  C   UNL     1       3.703   5.664  18.447  0.00  0.00    +0.000 C 
ATOM     12  O   UNL     1       4.922   5.659  18.621  0.00  0.00    +0.000 OA
ATOM     13  N   UNL     1       2.997   4.535  18.042  0.00  0.00    +0.000 N 
ATOM     14  C   UNL     1       1.557   4.349  17.946  0.00  0.00    +0.000 C 
ATOM     15  C   UNL     1       1.350   2.900  18.338  0.00  0.00    +0.000 C 
ATOM     16  C   UNL     1       2.584   2.209  17.776  0.00  0.00    +0.000 C 
ATOM     17  C   UNL     1       3.682   3.271  17.832  0.00  0.00    +0.000 C 
ENDBRANCH   8  11
ENDBRANCH   3   5
BRANCH   2  18
ATOM     18  C   UNL     1      -0.873  11.903  20.520  0.00  0.00    +0.000 A 
ATOM     19  C   UNL     1      -1.697  12.104  21.658  0.00  0.00    +0.000 A 
ATOM     20  C   UNL     1      -2.644  13.038  21.301  0.00  0.00    +0.000 A 
ATOM     21  N   UNL     1      -2.349  13.327  19.990  0.00  0.00    +0.000 N 
ATOM     22  N   UNL     1      -1.260  12.688  19.501  0.00  0.00    +0.000 NA
ATOM     23  H   UNL     1      -2.860  13.953  19.373  0.00  0.00    +0.000 HD
BRANCH  20  24
ATOM     24  C   UNL     1      -3.721  13.633  22.101  0.00  0.00    +0.000 A 
ATOM     25  C   UNL     1      -3.354  14.532  23.123  0.00  0.00    +0.000 A 
ATOM     26  C   UNL     1      -4.309  15.134  23.946  0.00  0.00    +0.000 A 
ATOM     27  C   UNL     1      -5.656  14.847  23.766  0.00  0.00    +0.000 A 
ATOM     28  C   UNL     1      -6.045  13.955  22.768  0.00  0.00    +0.000 A 
ATOM     29  C   UNL     1      -5.089  13.347  21.941  0.00  0.00    +0.000 A 
ATOM     30 CL   UNL     1      -5.679  12.225  20.762  0.00  0.00    +0.000 Cl
ENDBRANCH  20  24
ENDBRANCH   2  18
TORSDOF 4
ENDMDL
MODEL 9
REMARK VINA RESULT:      -7.7      0.923      1.059
REMARK  Name = 
REMARK  4 active torsions:
REMARK  status: ('A' for Active; 'I' for Inactive)
REMARK    1  A    between atoms: C_2  and  C_17
REMARK    2  A    between atoms: N_3  and  C_4
REMARK    3  A    between atoms: C_7  and  C_8
REMARK    4  A    between atoms: C_19  and  C_20
REMARK                            x       y       z     vdW  Elec       q    Type
REMARK                         _______ _______ _______ _____ _____    ______ ____
ROOT
ATOM      1  O   UNL     1       1.198  11.254  21.157  0.00  0.00    +0.000 OA
ATOM      2  C   UNL     1       0.263  11.126  20.375  0.00  0.00    +0.000 C 
ATOM      3  N   UNL     1       0.202  10.186  19.350  0.00  0.00    +0.000 N 
ATOM      4  H   UNL     1      -0.516  10.346  18.652  0.00  0.00    +0.000 HD
ENDROOT
BRANCH   3   5
ATOM      5  C   UNL     1       1.185   9.192  19.148  0.00  0.00    +0.000 A 
ATOM      6  C   UNL     1       1.908   9.117  17.953  0.00  0.00    +0.000 A 
ATOM      7  C   UNL     1       2.797   8.075  17.711  0.00  0.00    +0.000 A 
ATOM      8  C   UNL     1       2.935   7.051  18.643  0.00  0.00    +0.000 A 
ATOM      9  C   UNL     1       2.313   7.176  19.893  0.00  0.00    +0.000 A 
ATOM     10  C   UNL     1       1.448   8.257  20.152  0.00  0.00    +0.000 A 
BRANCH   8  11
ATOM     11  C   UNL     1       3.707   5.822  18.313  0.00  0.00    +0.000 C 
ATOM     12  O   UNL     1       4.930   5.849  18.452  0.00  0.00    +0.000 OA
ATOM     13  N   UNL     1       3.019   4.677  17.923  0.00  0.00    +0.000 N 
ATOM     14  C   UNL     1       1.582   4.453  17.869  0.00  0.00    +0.000 C 
ATOM     15  C   UNL     1       1.425   2.998  18.259  0.00  0.00    +0.000 C 
ATOM     16  C   UNL     1       2.659   2.342  17.658  0.00  0.00    +0.000 C 
ATOM     17  C   UNL     1       3.731   3.432  17.688  0.00  0.00    +0.000 C 
ENDBRANCH   8  11
ENDBRANCH   3   5
BRANCH   2  18
ATOM     18  C   UNL     1      -0.883  12.035  20.465  0.00  0.00    +0.000 A 
ATOM     19  C   UNL     1      -1.902  11.912  21.445  0.00  0.00    +0.000 A 
ATOM     20  C   UNL     1      -2.817  12.909  21.192  0.00  0.00    +0.000 A 
ATOM     21  N   UNL     1      -2.313  13.553  20.087  0.00  0.00    +0.000 N 
ATOM     22  N   UNL     1      -1.125  13.074  19.649  0.00  0.00    +0.000 NA
ATOM     23  H   UNL     1      -2.738  14.327  19.584  0.00  0.00    +0.000 HD
BRANCH  20  24
ATOM     24  C   UNL     1      -4.046  13.258  21.915  0.00  0.00    +0.000 A 
ATOM     25  C   UNL     1      -5.275  12.911  21.318  0.00  0.00    +0.000 A 
ATOM     26  C   UNL     1      -6.497  13.217  21.925  0.00  0.00    +0.000 A 
ATOM     27  C   UNL     1      -6.514  13.881  23.145  0.00  0.00    +0.000 A 
ATOM     28  C   UNL     1      -5.313  14.243  23.753  0.00  0.00    +0.000 A 
ATOM     29  C   UNL     1      -4.085  13.939  23.145  0.00  0.00    +0.000 A 
ATOM     30 CL   UNL     1      -2.658  14.471  23.967  0.00  0.00    +0.000 Cl
ENDBRANCH  20  24
ENDBRANCH   2  18
TORSDOF 4
ENDMDL
