MODEL 1
REMARK VINA RESULT:      -8.9      0.000      0.000
REMARK  Name = 
REMARK  5 active torsions:
REMARK  status: ('A' for Active; 'I' for Inactive)
REMARK    1  A    between atoms: C_2  and  C_17
REMARK    2  A    between atoms: N_3  and  C_4
REMARK    3  A    between atoms: C_9  and  C_10
REMARK    4  A    between atoms: N_12  and  C_13
REMARK    5  A    between atoms: C_20  and  C_21
REMARK                            x       y       z     vdW  Elec       q    Type
REMARK                         _______ _______ _______ _____ _____    ______ ____
ROOT
ATOM      1  O   UNL     1       1.770   8.102  19.364  0.00  0.00    +0.000 OA
ATOM      2  C   UNL     1       1.482   7.823  20.525  0.00  0.00    +0.000 C 
ATOM      3  N   UNL     1       1.570   6.542  21.078  0.00  0.00    +0.000 N 
ATOM      4  H   UNL     1       1.187   6.433  22.015  0.00  0.00    +0.000 HD
ENDROOT
BRANCH   3   5
ATOM      5  C   UNL     1       1.975   5.379  20.376  0.00  0.00    +0.000 A 
ATOM      6  C   UNL     1       1.199   4.221  20.338  0.00  0.00    +0.000 A 
ATOM      7  C   UNL     1       1.671   3.054  19.738  0.00  0.00    +0.000 A 
ATOM      8  C   UNL     1       2.930   3.021  19.138  0.00  0.00    +0.000 A 
ATOM      9 CL   UNL     1       3.391   1.499  18.459  0.00  0.00    +0.000 Cl
ATOM     10  C   UNL     1       3.714   4.184  19.107  0.00  0.00    +0.000 A 
ATOM     11  C   UNL     1       3.212   5.365  19.716  0.00  0.00    +0.000 A 
BRANCH  10  12
ATOM     12  C   UNL     1       5.071   4.288  18.482  0.00  0.00    +0.000 C 
ATOM     13  O   UNL     1       6.062   4.314  19.208  0.00  0.00    +0.000 OA
ATOM     14  N   UNL     1       5.155   4.295  17.102  0.00  0.00    +0.000 N 
ATOM     15  H   UNL     1       4.303   4.257  16.554  0.00  0.00    +0.000 HD
BRANCH  14  16
ATOM     16  C   UNL     1       6.398   4.283  16.399  0.00  0.00    +0.000 C 
ATOM     17  C   UNL     1       6.752   5.349  15.398  0.00  0.00    +0.000 C 
ATOM     18  C   UNL     1       6.433   3.960  14.927  0.00  0.00    +0.000 C 
ENDBRANCH  14  16
ENDBRANCH  10  12
ENDBRANCH   3   5
BRANCH   2  19
ATOM     19  C   UNL     1       0.950   8.850  21.433  0.00  0.00    +0.000 A 
ATOM     20  N   UNL     1       1.441   9.010  22.675  0.00  0.00    +0.000 NA
ATOM     21  O   UNL     1       0.737  10.093  23.175  0.00  0.00    +0.000 OA
ATOM     22  C   UNL     1      -0.123  10.491  22.193  0.00  0.00    +0.000 A 
ATOM     23  N   UNL     1      -0.047   9.753  21.103  0.00  0.00    +0.000 NA
BRANCH  22  24
ATOM     24  C   UNL     1      -0.941  11.659  22.487  0.00  0.00    +0.000 A 
ATOM     25  C   UNL     1      -0.501  12.926  22.064  0.00  0.00    +0.000 A 
ATOM     26  C   UNL     1      -1.238  14.076  22.361  0.00  0.00    +0.000 A 
ATOM     27  C   UNL     1      -2.425  13.972  23.083  0.00  0.00    +0.000 A 
ATOM     28  C   UNL     1      -2.867  12.723  23.496  0.00  0.00    +0.000 A 
ATOM     29  F   UNL     1      -4.009  12.624  24.192  0.00  0.00    +0.000 F 
ATOM     30  C   UNL     1      -2.146  11.569  23.206  0.00  0.00    +0.000 A 
ENDBRANCH  22  24
ENDBRANCH   2  19
TORSDOF 5
ENDMDL
MODEL 2
REMARK VINA RESULT:      -8.7      1.180      1.314
REMARK  Name = 
REMARK  5 active torsions:
REMARK  status: ('A' for Active; 'I' for Inactive)
REMARK    1  A    between atoms: C_2  and  C_17
REMARK    2  A    between atoms: N_3  and  C_4
REMARK    3  A    between atoms: C_9  and  C_10
REMARK    4  A    between atoms: N_12  and  C_13
REMARK    5  A    between atoms: C_20  and  C_21
REMARK                            x       y       z     vdW  Elec       q    Type
REMARK                         _______ _______ _______ _____ _____    ______ ____
ROOT
ATOM      1  O   UNL     1       1.844   8.099  19.354  0.00  0.00    +0.000 OA
ATOM      2  C   UNL     1       1.475   7.833  20.495  0.00  0.00    +0.000 C 
ATOM      3  N   UNL     1       1.507   6.555  21.061  0.00  0.00    +0.000 N 
ATOM      4  H   UNL     1       1.061   6.459  21.971  0.00  0.00    +0.000 HD
ENDROOT
BRANCH   3   5
ATOM      5  C   UNL     1       1.940   5.381  20.395  0.00  0.00    +0.000 A 
ATOM      6  C   UNL     1       1.229   4.183  20.456  0.00  0.00    +0.000 A 
ATOM      7  C   UNL     1       1.735   3.014  19.889  0.00  0.00    +0.000 A 
ATOM      8  C   UNL     1       2.961   3.017  19.222  0.00  0.00    +0.000 A 
ATOM      9 CL   UNL     1       3.470   1.489  18.594  0.00  0.00    +0.000 Cl
ATOM     10  C   UNL     1       3.675   4.217  19.092  0.00  0.00    +0.000 A 
ATOM     11  C   UNL     1       3.140   5.399  19.669  0.00  0.00    +0.000 A 
BRANCH  10  12
ATOM     12  C   UNL     1       4.989   4.362  18.390  0.00  0.00    +0.000 C 
ATOM     13  O   UNL     1       5.102   3.942  17.241  0.00  0.00    +0.000 OA
ATOM     14  N   UNL     1       6.012   5.018  19.049  0.00  0.00    +0.000 N 
ATOM     15  H   UNL     1       5.857   5.357  19.992  0.00  0.00    +0.000 HD
BRANCH  14  16
ATOM     16  C   UNL     1       7.270   5.308  18.438  0.00  0.00    +0.000 C 
ATOM     17  C   UNL     1       8.144   6.434  18.921  0.00  0.00    +0.000 C 
ATOM     18  C   UNL     1       7.438   6.552  17.603  0.00  0.00    +0.000 C 
ENDBRANCH  14  16
ENDBRANCH  10  12
ENDBRANCH   3   5
BRANCH   2  19
ATOM     19  C   UNL     1       0.900   8.875  21.359  0.00  0.00    +0.000 A 
ATOM     20  N   UNL     1       1.434   9.163  22.559  0.00  0.00    +0.000 NA
ATOM     21  O   UNL     1       0.663  10.217  23.022  0.00  0.00    +0.000 OA
ATOM     22  C   UNL     1      -0.273  10.472  22.063  0.00  0.00    +0.000 A 
ATOM     23  N   UNL     1      -0.185   9.667  21.022  0.00  0.00    +0.000 NA
BRANCH  22  24
ATOM     24  C   UNL     1      -1.174  11.586  22.320  0.00  0.00    +0.000 A 
ATOM     25  C   UNL     1      -1.030  12.768  21.574  0.00  0.00    +0.000 A 
ATOM     26  C   UNL     1      -1.849  13.874  21.818  0.00  0.00    +0.000 A 
ATOM     27  C   UNL     1      -2.824  13.809  22.811  0.00  0.00    +0.000 A 
ATOM     28  C   UNL     1      -2.976  12.641  23.546  0.00  0.00    +0.000 A 
ATOM     29  F   UNL     1      -3.913  12.580  24.501  0.00  0.00    +0.000 F 
ATOM     30  C   UNL     1      -2.170  11.532  23.312  0.00  0.00    +0.000 A 
ENDBRANCH  22  24
ENDBRANCH   2  19
TORSDOF 5
ENDMDL
MODEL 3
REMARK VINA RESULT:      -8.6      1.141      1.405
REMARK  Name = 
REMARK  5 active torsions:
REMARK  status: ('A' for Active; 'I' for Inactive)
REMARK    1  A    between atoms: C_2  and  C_17
REMARK    2  A    between atoms: N_3  and  C_4
REMARK    3  A    between atoms: C_9  and  C_10
REMARK    4  A    between atoms: N_12  and  C_13
REMARK    5  A    between atoms: C_20  and  C_21
REMARK                            x       y       z     vdW  Elec       q    Type
REMARK                         _______ _______ _______ _____ _____    ______ ____
ROOT
ATOM      1  O   UNL     1       2.029   7.919  19.054  0.00  0.00    +0.000 OA
ATOM      2  C   UNL     1       1.696   7.711  20.218  0.00  0.00    +0.000 C 
ATOM      3  N   UNL     1       1.747   6.463  20.847  0.00  0.00    +0.000 N 
ATOM      4  H   UNL     1       1.329   6.414  21.773  0.00  0.00    +0.000 HD
ENDROOT
BRANCH   3   5
ATOM      5  C   UNL     1       2.162   5.257  20.228  0.00  0.00    +0.000 A 
ATOM      6  C   UNL     1       1.449   4.066  20.362  0.00  0.00    +0.000 A 
ATOM      7  C   UNL     1       1.939   2.869  19.841  0.00  0.00    +0.000 A 
ATOM      8  C   UNL     1       3.150   2.836  19.148  0.00  0.00    +0.000 A 
ATOM      9 CL   UNL     1       3.641   1.279  18.582  0.00  0.00    +0.000 Cl
ATOM     10  C   UNL     1       3.864   4.026  18.944  0.00  0.00    +0.000 A 
ATOM     11  C   UNL     1       3.345   5.237  19.476  0.00  0.00    +0.000 A 
BRANCH  10  12
ATOM     12  C   UNL     1       5.162   4.133  18.205  0.00  0.00    +0.000 C 
ATOM     13  O   UNL     1       6.192   4.349  18.838  0.00  0.00    +0.000 OA
ATOM     14  N   UNL     1       5.154   3.926  16.839  0.00  0.00    +0.000 N 
ATOM     15  H   UNL     1       4.274   3.736  16.371  0.00  0.00    +0.000 HD
BRANCH  14  16
ATOM     16  C   UNL     1       6.345   3.897  16.050  0.00  0.00    +0.000 C 
ATOM     17  C   UNL     1       6.833   5.110  15.306  0.00  0.00    +0.000 C 
ATOM     18  C   UNL     1       6.259   3.951  14.546  0.00  0.00    +0.000 C 
ENDBRANCH  14  16
ENDBRANCH  10  12
ENDBRANCH   3   5
BRANCH   2  19
ATOM     19  C   UNL     1       1.145   8.796  21.045  0.00  0.00    +0.000 A 
ATOM     20  N   UNL     1       1.527   8.964  22.323  0.00  0.00    +0.000 NA
ATOM     21  O   UNL     1       0.847  10.101  22.727  0.00  0.00    +0.000 OA
ATOM     22  C   UNL     1       0.109  10.519  21.658  0.00  0.00    +0.000 A 
ATOM     23  N   UNL     1       0.241   9.745  20.599  0.00  0.00    +0.000 NA
BRANCH  22  24
ATOM     24  C   UNL     1      -0.660  11.742  21.843  0.00  0.00    +0.000 A 
ATOM     25  C   UNL     1      -1.390  11.917  23.032  0.00  0.00    +0.000 A 
ATOM     26  C   UNL     1      -2.172  13.058  23.231  0.00  0.00    +0.000 A 
ATOM     27  C   UNL     1      -2.233  14.038  22.243  0.00  0.00    +0.000 A 
ATOM     28  C   UNL     1      -1.508  13.873  21.071  0.00  0.00    +0.000 A 
ATOM     29  F   UNL     1      -1.567  14.816  20.120  0.00  0.00    +0.000 F 
ATOM     30  C   UNL     1      -0.723  12.744  20.860  0.00  0.00    +0.000 A 
ENDBRANCH  22  24
ENDBRANCH   2  19
TORSDOF 5
ENDMDL
MODEL 4
REMARK VINA RESULT:      -8.6      1.494      1.808
REMARK  Name = 
REMARK  5 active torsions:
REMARK  status: ('A' for Active; 'I' for Inactive)
REMARK    1  A    between atoms: C_2  and  C_17
REMARK    2  A    between atoms: N_3  and  C_4
REMARK    3  A    between atoms: C_9  and  C_10
REMARK    4  A    between atoms: N_12  and  C_13
REMARK    5  A    between atoms: C_20  and  C_21
REMARK                            x       y       z     vdW  Elec       q    Type
REMARK                         _______ _______ _______ _____ _____    ______ ____
ROOT
ATOM      1  O   UNL     1       1.988   8.096  19.376  0.00  0.00    +0.000 OA
ATOM      2  C   UNL     1       1.532   7.843  20.488  0.00  0.00    +0.000 C 
ATOM      3  N   UNL     1       1.488   6.566  21.056  0.00  0.00    +0.000 N 
ATOM      4  H   UNL     1       0.977   6.485  21.932  0.00  0.00    +0.000 HD
ENDROOT
BRANCH   3   5
ATOM      5  C   UNL     1       1.935   5.379  20.423  0.00  0.00    +0.000 A 
ATOM      6  C   UNL     1       1.238   4.175  20.517  0.00  0.00    +0.000 A 
ATOM      7  C   UNL     1       1.757   2.996  19.983  0.00  0.00    +0.000 A 
ATOM      8  C   UNL     1       2.983   2.995  19.317  0.00  0.00    +0.000 A 
ATOM      9 CL   UNL     1       3.510   1.456  18.731  0.00  0.00    +0.000 Cl
ATOM     10  C   UNL     1       3.683   4.199  19.152  0.00  0.00    +0.000 A 
ATOM     11  C   UNL     1       3.135   5.391  19.696  0.00  0.00    +0.000 A 
BRANCH  10  12
ATOM     12  C   UNL     1       4.996   4.340  18.446  0.00  0.00    +0.000 C 
ATOM     13  O   UNL     1       5.111   3.897  17.306  0.00  0.00    +0.000 OA
ATOM     14  N   UNL     1       6.014   5.018  19.090  0.00  0.00    +0.000 N 
ATOM     15  H   UNL     1       5.857   5.375  20.026  0.00  0.00    +0.000 HD
BRANCH  14  16
ATOM     16  C   UNL     1       7.269   5.305  18.471  0.00  0.00    +0.000 C 
ATOM     17  C   UNL     1       8.148   6.430  18.948  0.00  0.00    +0.000 C 
ATOM     18  C   UNL     1       7.434   6.547  17.633  0.00  0.00    +0.000 C 
ENDBRANCH  14  16
ENDBRANCH  10  12
ENDBRANCH   3   5
BRANCH   2  19
ATOM     19  C   UNL     1       0.926   8.903  21.308  0.00  0.00    +0.000 A 
ATOM     20  N   UNL     1       1.441   9.244  22.503  0.00  0.00    +0.000 NA
ATOM     21  O   UNL     1       0.643  10.298  22.920  0.00  0.00    +0.000 OA
ATOM     22  C   UNL     1      -0.287  10.498  21.943  0.00  0.00    +0.000 A 
ATOM     23  N   UNL     1      -0.171   9.659  20.932  0.00  0.00    +0.000 NA
BRANCH  22  24
ATOM     24  C   UNL     1      -1.214  11.602  22.152  0.00  0.00    +0.000 A 
ATOM     25  C   UNL     1      -2.049  11.589  23.283  0.00  0.00    +0.000 A 
ATOM     26  C   UNL     1      -2.980  12.609  23.498  0.00  0.00    +0.000 A 
ATOM     27  C   UNL     1      -3.086  13.656  22.584  0.00  0.00    +0.000 A 
ATOM     28  C   UNL     1      -2.258  13.677  21.470  0.00  0.00    +0.000 A 
ATOM     29  F   UNL     1      -2.361  14.684  20.591  0.00  0.00    +0.000 F 
ATOM     30  C   UNL     1      -1.325  12.670  21.244  0.00  0.00    +0.000 A 
ENDBRANCH  22  24
ENDBRANCH   2  19
TORSDOF 5
ENDMDL
MODEL 5
REMARK VINA RESULT:      -8.4      4.702      9.797
REMARK  Name = 
REMARK  5 active torsions:
REMARK  status: ('A' for Active; 'I' for Inactive)
REMARK    1  A    between atoms: C_2  and  C_17
REMARK    2  A    between atoms: N_3  and  C_4
REMARK    3  A    between atoms: C_9  and  C_10
REMARK    4  A    between atoms: N_12  and  C_13
REMARK    5  A    between atoms: C_20  and  C_21
REMARK                            x       y       z     vdW  Elec       q    Type
REMARK                         _______ _______ _______ _____ _____    ______ ____
ROOT
ATOM      1  O   UNL     1       1.047   5.814  20.925  0.00  0.00    +0.000 OA
ATOM      2  C   UNL     1       1.970   6.377  20.341  0.00  0.00    +0.000 C 
ATOM      3  N   UNL     1       2.149   7.762  20.291  0.00  0.00    +0.000 N 
ATOM      4  H   UNL     1       2.888   8.094  19.675  0.00  0.00    +0.000 HD
ENDROOT
BRANCH   3   5
ATOM      5  C   UNL     1       1.281   8.716  20.879  0.00  0.00    +0.000 A 
ATOM      6  C   UNL     1       1.099   8.811  22.258  0.00  0.00    +0.000 A 
ATOM      7  C   UNL     1       0.154   9.678  22.804  0.00  0.00    +0.000 A 
ATOM      8  C   UNL     1      -0.622  10.496  21.982  0.00  0.00    +0.000 A 
ATOM      9 CL   UNL     1      -1.768  11.500  22.798  0.00  0.00    +0.000 Cl
ATOM     10  C   UNL     1      -0.424  10.470  20.593  0.00  0.00    +0.000 A 
ATOM     11  C   UNL     1       0.549   9.585  20.056  0.00  0.00    +0.000 A 
BRANCH  10  12
ATOM     12  C   UNL     1      -1.174  11.305  19.603  0.00  0.00    +0.000 C 
ATOM     13  O   UNL     1      -1.123  12.529  19.693  0.00  0.00    +0.000 OA
ATOM     14  N   UNL     1      -1.853  10.659  18.586  0.00  0.00    +0.000 N 
ATOM     15  H   UNL     1      -1.848   9.646  18.553  0.00  0.00    +0.000 HD
BRANCH  14  16
ATOM     16  C   UNL     1      -2.511  11.355  17.527  0.00  0.00    +0.000 C 
ATOM     17  C   UNL     1      -3.830  10.890  16.973  0.00  0.00    +0.000 C 
ATOM     18  C   UNL     1      -2.584  10.745  16.150  0.00  0.00    +0.000 C 
ENDBRANCH  14  16
ENDBRANCH  10  12
ENDBRANCH   3   5
BRANCH   2  19
ATOM     19  C   UNL     1       2.959   5.600  19.578  0.00  0.00    +0.000 A 
ATOM     20  N   UNL     1       3.265   4.334  19.914  0.00  0.00    +0.000 NA
ATOM     21  O   UNL     1       4.166   3.940  18.938  0.00  0.00    +0.000 OA
ATOM     22  C   UNL     1       4.330   5.003  18.100  0.00  0.00    +0.000 A 
ATOM     23  N   UNL     1       3.623   6.059  18.453  0.00  0.00    +0.000 NA
BRANCH  22  24
ATOM     24  C   UNL     1       5.211   4.796  16.959  0.00  0.00    +0.000 A 
ATOM     25  C   UNL     1       6.596   4.970  17.124  0.00  0.00    +0.000 A 
ATOM     26  C   UNL     1       7.471   4.820  16.045  0.00  0.00    +0.000 A 
ATOM     27  C   UNL     1       6.970   4.492  14.786  0.00  0.00    +0.000 A 
ATOM     28  C   UNL     1       5.604   4.312  14.620  0.00  0.00    +0.000 A 
ATOM     29  F   UNL     1       5.122   3.998  13.409  0.00  0.00    +0.000 F 
ATOM     30  C   UNL     1       4.721   4.456  15.686  0.00  0.00    +0.000 A 
ENDBRANCH  22  24
ENDBRANCH   2  19
TORSDOF 5
ENDMDL
MODEL 6
REMARK VINA RESULT:      -8.4      5.109     10.469
REMARK  Name = 
REMARK  5 active torsions:
REMARK  status: ('A' for Active; 'I' for Inactive)
REMARK    1  A    between atoms: C_2  and  C_17
REMARK    2  A    between atoms: N_3  and  C_4
REMARK    3  A    between atoms: C_9  and  C_10
REMARK    4  A    between atoms: N_12  and  C_13
REMARK    5  A    between atoms: C_20  and  C_21
REMARK                            x       y       z     vdW  Elec       q    Type
REMARK                         _______ _______ _______ _____ _____    ______ ____
ROOT
ATOM      1  O   UNL     1       3.593   5.669  19.832  0.00  0.00    +0.000 OA
ATOM      2  C   UNL     1       3.541   6.018  18.656  0.00  0.00    +0.000 C 
ATOM      3  N   UNL     1       2.821   7.121  18.188  0.00  0.00    +0.000 N 
ATOM      4  H   UNL     1       2.769   7.223  17.177  0.00  0.00    +0.000 HD
ENDROOT
BRANCH   3   5
ATOM      5  C   UNL     1       2.030   7.977  18.994  0.00  0.00    +0.000 A 
ATOM      6  C   UNL     1       1.970   7.852  20.381  0.00  0.00    +0.000 A 
ATOM      7  C   UNL     1       1.096   8.630  21.140  0.00  0.00    +0.000 A 
ATOM      8  C   UNL     1       0.271   9.576  20.529  0.00  0.00    +0.000 A 
ATOM      9 CL   UNL     1      -0.777  10.447  21.593  0.00  0.00    +0.000 Cl
ATOM     10  C   UNL     1       0.348   9.769  19.142  0.00  0.00    +0.000 A 
ATOM     11  C   UNL     1       1.249   8.973  18.387  0.00  0.00    +0.000 A 
BRANCH  10  12
ATOM     12  C   UNL     1      -0.466  10.759  18.367  0.00  0.00    +0.000 C 
ATOM     13  O   UNL     1      -0.235  11.958  18.502  0.00  0.00    +0.000 OA
ATOM     14  N   UNL     1      -1.412  10.275  17.482  0.00  0.00    +0.000 N 
ATOM     15  H   UNL     1      -1.549   9.274  17.402  0.00  0.00    +0.000 HD
BRANCH  14  16
ATOM     16  C   UNL     1      -2.169  11.121  16.614  0.00  0.00    +0.000 C 
ATOM     17  C   UNL     1      -3.669  11.045  16.546  0.00  0.00    +0.000 C 
ATOM     18  C   UNL     1      -2.845  10.545  15.396  0.00  0.00    +0.000 C 
ENDBRANCH  14  16
ENDBRANCH  10  12
ENDBRANCH   3   5
BRANCH   2  19
ATOM     19  C   UNL     1       4.213   5.232  17.610  0.00  0.00    +0.000 A 
ATOM     20  N   UNL     1       4.211   3.888  17.633  0.00  0.00    +0.000 NA
ATOM     21  O   UNL     1       4.878   3.533  16.472  0.00  0.00    +0.000 OA
ATOM     22  C   UNL     1       5.229   4.695  15.849  0.00  0.00    +0.000 A 
ATOM     23  N   UNL     1       4.859   5.774  16.511  0.00  0.00    +0.000 NA
BRANCH  22  24
ATOM     24  C   UNL     1       5.909   4.561  14.568  0.00  0.00    +0.000 A 
ATOM     25  C   UNL     1       5.386   3.680  13.606  0.00  0.00    +0.000 A 
ATOM     26  C   UNL     1       6.031   3.493  12.380  0.00  0.00    +0.000 A 
ATOM     27  C   UNL     1       7.207   4.187  12.102  0.00  0.00    +0.000 A 
ATOM     28  C   UNL     1       7.723   5.064  13.046  0.00  0.00    +0.000 A 
ATOM     29  F   UNL     1       8.854   5.731  12.778  0.00  0.00    +0.000 F 
ATOM     30  C   UNL     1       7.090   5.263  14.269  0.00  0.00    +0.000 A 
ENDBRANCH  22  24
ENDBRANCH   2  19
TORSDOF 5
ENDMDL
MODEL 7
REMARK VINA RESULT:      -8.3      1.387      1.594
REMARK  Name = 
REMARK  5 active torsions:
REMARK  status: ('A' for Active; 'I' for Inactive)
REMARK    1  A    between atoms: C_2  and  C_17
REMARK    2  A    between atoms: N_3  and  C_4
REMARK    3  A    between atoms: C_9  and  C_10
REMARK    4  A    between atoms: N_12  and  C_13
REMARK    5  A    between atoms: C_20  and  C_21
REMARK                            x       y       z     vdW  Elec       q    Type
REMARK                         _______ _______ _______ _____ _____    ______ ____
ROOT
ATOM      1  O   UNL     1       2.045   8.041  17.855  0.00  0.00    +0.000 OA
ATOM      2  C   UNL     1       1.872   8.297  19.044  0.00  0.00    +0.000 C 
ATOM      3  N   UNL     1       2.122   7.405  20.091  0.00  0.00    +0.000 N 
ATOM      4  H   UNL     1       1.822   7.708  21.015  0.00  0.00    +0.000 HD
ENDROOT
BRANCH   3   5
ATOM      5  C   UNL     1       2.581   6.073  19.933  0.00  0.00    +0.000 A 
ATOM      6  C   UNL     1       2.019   5.003  20.627  0.00  0.00    +0.000 A 
ATOM      7  C   UNL     1       2.563   3.722  20.542  0.00  0.00    +0.000 A 
ATOM      8  C   UNL     1       3.676   3.472  19.738  0.00  0.00    +0.000 A 
ATOM      9 CL   UNL     1       4.254   1.843  19.753  0.00  0.00    +0.000 Cl
ATOM     10  C   UNL     1       4.231   4.513  18.981  0.00  0.00    +0.000 A 
ATOM     11  C   UNL     1       3.658   5.810  19.074  0.00  0.00    +0.000 A 
BRANCH  10  12
ATOM     12  C   UNL     1       5.410   4.378  18.068  0.00  0.00    +0.000 C 
ATOM     13  O   UNL     1       6.542   4.439  18.542  0.00  0.00    +0.000 OA
ATOM     14  N   UNL     1       5.174   4.130  16.729  0.00  0.00    +0.000 N 
ATOM     15  H   UNL     1       4.217   4.075  16.397  0.00  0.00    +0.000 HD
BRANCH  14  16
ATOM     16  C   UNL     1       6.219   3.877  15.789  0.00  0.00    +0.000 C 
ATOM     17  C   UNL     1       6.936   4.994  15.081  0.00  0.00    +0.000 C 
ATOM     18  C   UNL     1       5.990   4.115  14.318  0.00  0.00    +0.000 C 
ENDBRANCH  14  16
ENDBRANCH  10  12
ENDBRANCH   3   5
BRANCH   2  19
ATOM     19  C   UNL     1       1.315   9.594  19.458  0.00  0.00    +0.000 A 
ATOM     20  N   UNL     1       1.226  10.624  18.599  0.00  0.00    +0.000 NA
ATOM     21  O   UNL     1       0.605  11.619  19.337  0.00  0.00    +0.000 OA
ATOM     22  C   UNL     1       0.376  11.105  20.579  0.00  0.00    +0.000 A 
ATOM     23  N   UNL     1       0.806   9.866  20.717  0.00  0.00    +0.000 NA
BRANCH  22  24
ATOM     24  C   UNL     1      -0.320  11.972  21.519  0.00  0.00    +0.000 A 
ATOM     25  C   UNL     1       0.135  13.290  21.697  0.00  0.00    +0.000 A 
ATOM     26  C   UNL     1      -0.480  14.142  22.619  0.00  0.00    +0.000 A 
ATOM     27  C   UNL     1      -1.560  13.685  23.373  0.00  0.00    +0.000 A 
ATOM     28  C   UNL     1      -2.017  12.387  23.195  0.00  0.00    +0.000 A 
ATOM     29  F   UNL     1      -3.055  11.947  23.920  0.00  0.00    +0.000 F 
ATOM     30  C   UNL     1      -1.416  11.528  22.279  0.00  0.00    +0.000 A 
ENDBRANCH  22  24
ENDBRANCH   2  19
TORSDOF 5
ENDMDL
MODEL 8
REMARK VINA RESULT:      -8.3      1.147      1.243
REMARK  Name = 
REMARK  5 active torsions:
REMARK  status: ('A' for Active; 'I' for Inactive)
REMARK    1  A    between atoms: C_2  and  C_17
REMARK    2  A    between atoms: N_3  and  C_4
REMARK    3  A    between atoms: C_9  and  C_10
REMARK    4  A    between atoms: N_12  and  C_13
REMARK    5  A    between atoms: C_20  and  C_21
REMARK                            x       y       z     vdW  Elec       q    Type
REMARK                         _______ _______ _______ _____ _____    ______ ____
ROOT
ATOM      1  O   UNL     1       1.200   8.868  19.368  0.00  0.00    +0.000 OA
ATOM      2  C   UNL     1       1.121   8.512  20.541  0.00  0.00    +0.000 C 
ATOM      3  N   UNL     1       1.503   7.253  21.014  0.00  0.00    +0.000 N 
ATOM      4  H   UNL     1       1.272   7.054  21.985  0.00  0.00    +0.000 HD
ENDROOT
BRANCH   3   5
ATOM      5  C   UNL     1       2.007   6.200  20.211  0.00  0.00    +0.000 A 
ATOM      6  C   UNL     1       1.698   4.862  20.453  0.00  0.00    +0.000 A 
ATOM      7  C   UNL     1       2.297   3.838  19.721  0.00  0.00    +0.000 A 
ATOM      8  C   UNL     1       3.209   4.128  18.705  0.00  0.00    +0.000 A 
ATOM      9 CL   UNL     1       3.890   2.757  17.902  0.00  0.00    +0.000 Cl
ATOM     10  C   UNL     1       3.499   5.465  18.395  0.00  0.00    +0.000 A 
ATOM     11  C   UNL     1       2.873   6.495  19.147  0.00  0.00    +0.000 A 
BRANCH  10  12
ATOM     12  C   UNL     1       4.442   5.913  17.322  0.00  0.00    +0.000 C 
ATOM     13  O   UNL     1       4.984   7.011  17.423  0.00  0.00    +0.000 OA
ATOM     14  N   UNL     1       4.710   5.041  16.283  0.00  0.00    +0.000 N 
ATOM     15  H   UNL     1       4.245   4.140  16.260  0.00  0.00    +0.000 HD
BRANCH  14  16
ATOM     16  C   UNL     1       5.672   5.317  15.265  0.00  0.00    +0.000 C 
ATOM     17  C   UNL     1       6.074   4.280  14.251  0.00  0.00    +0.000 C 
ATOM     18  C   UNL     1       7.041   4.688  15.324  0.00  0.00    +0.000 C 
ENDBRANCH  14  16
ENDBRANCH  10  12
ENDBRANCH   3   5
BRANCH   2  19
ATOM     19  C   UNL     1       0.544   9.404  21.558  0.00  0.00    +0.000 A 
ATOM     20  N   UNL     1       0.969   9.379  22.834  0.00  0.00    +0.000 NA
ATOM     21  O   UNL     1       0.242  10.386  23.447  0.00  0.00    +0.000 OA
ATOM     22  C   UNL     1      -0.562  10.930  22.489  0.00  0.00    +0.000 A 
ATOM     23  N   UNL     1      -0.430  10.356  21.309  0.00  0.00    +0.000 NA
BRANCH  22  24
ATOM     24  C   UNL     1      -1.392  12.053  22.904  0.00  0.00    +0.000 A 
ATOM     25  C   UNL     1      -0.865  13.354  22.837  0.00  0.00    +0.000 A 
ATOM     26  C   UNL     1      -1.614  14.454  23.263  0.00  0.00    +0.000 A 
ATOM     27  C   UNL     1      -2.902  14.265  23.761  0.00  0.00    +0.000 A 
ATOM     28  C   UNL     1      -3.430  12.982  23.823  0.00  0.00    +0.000 A 
ATOM     29  F   UNL     1      -4.668  12.800  24.303  0.00  0.00    +0.000 F 
ATOM     30  C   UNL     1      -2.696  11.878  23.399  0.00  0.00    +0.000 A 
ENDBRANCH  22  24
ENDBRANCH   2  19
TORSDOF 5
ENDMDL
MODEL 9
REMARK VINA RESULT:      -8.1      5.282      9.860
REMARK  Name = 
REMARK  5 active torsions:
REMARK  status: ('A' for Active; 'I' for Inactive)
REMARK    1  A    between atoms: C_2  and  C_17
REMARK    2  A    between atoms: N_3  and  C_4
REMARK    3  A    between atoms: C_9  and  C_10
REMARK    4  A    between atoms: N_12  and  C_13
REMARK    5  A    between atoms: C_20  and  C_21
REMARK                            x       y       z     vdW  Elec       q    Type
REMARK                         _______ _______ _______ _____ _____    ______ ____
ROOT
ATOM      1  O   UNL     1       1.159   7.281  21.163  0.00  0.00    +0.000 OA
ATOM      2  C   UNL     1       1.795   7.513  20.138  0.00  0.00    +0.000 C 
ATOM      3  N   UNL     1       1.660   8.671  19.367  0.00  0.00    +0.000 N 
ATOM      4  H   UNL     1       2.161   8.678  18.482  0.00  0.00    +0.000 HD
ENDROOT
BRANCH   3   5
ATOM      5  C   UNL     1       0.754   9.728  19.637  0.00  0.00    +0.000 A 
ATOM      6  C   UNL     1       0.800  10.466  20.820  0.00  0.00    +0.000 A 
ATOM      7  C   UNL     1      -0.172  11.421  21.112  0.00  0.00    +0.000 A 
ATOM      8  C   UNL     1      -1.209  11.682  20.214  0.00  0.00    +0.000 A 
ATOM      9 CL   UNL     1      -2.353  12.874  20.724  0.00  0.00    +0.000 Cl
ATOM     10  C   UNL     1      -1.252  11.000  18.990  0.00  0.00    +0.000 A 
ATOM     11  C   UNL     1      -0.248  10.035  18.706  0.00  0.00    +0.000 A 
BRANCH  10  12
ATOM     12  C   UNL     1      -2.295  11.196  17.934  0.00  0.00    +0.000 C 
ATOM     13  O   UNL     1      -3.344  11.763  18.229  0.00  0.00    +0.000 OA
ATOM     14  N   UNL     1      -2.008  10.778  16.648  0.00  0.00    +0.000 N 
ATOM     15  H   UNL     1      -1.119  10.329  16.459  0.00  0.00    +0.000 HD
BRANCH  14  16
ATOM     16  C   UNL     1      -2.882  11.010  15.542  0.00  0.00    +0.000 C 
ATOM     17  C   UNL     1      -4.076  10.134  15.277  0.00  0.00    +0.000 C 
ATOM     18  C   UNL     1      -2.885  10.065  14.367  0.00  0.00    +0.000 C 
ENDBRANCH  14  16
ENDBRANCH  10  12
ENDBRANCH   3   5
BRANCH   2  19
ATOM     19  C   UNL     1       2.741   6.522  19.601  0.00  0.00    +0.000 A 
ATOM     20  N   UNL     1       2.839   5.290  20.131  0.00  0.00    +0.000 NA
ATOM     21  O   UNL     1       3.770   4.655  19.325  0.00  0.00    +0.000 OA
ATOM     22  C   UNL     1       4.156   5.560  18.381  0.00  0.00    +0.000 A 
ATOM     23  N   UNL     1       3.566   6.732  18.510  0.00  0.00    +0.000 NA
BRANCH  22  24
ATOM     24  C   UNL     1       5.108   5.088  17.385  0.00  0.00    +0.000 A 
ATOM     25  C   UNL     1       6.467   4.988  17.731  0.00  0.00    +0.000 A 
ATOM     26  C   UNL     1       7.417   4.578  16.793  0.00  0.00    +0.000 A 
ATOM     27  C   UNL     1       7.019   4.259  15.496  0.00  0.00    +0.000 A 
ATOM     28  C   UNL     1       5.678   4.348  15.151  0.00  0.00    +0.000 A 
ATOM     29  F   UNL     1       5.295   4.043  13.904  0.00  0.00    +0.000 F 
ATOM     30  C   UNL     1       4.720   4.753  16.076  0.00  0.00    +0.000 A 
ENDBRANCH  22  24
ENDBRANCH   2  19
TORSDOF 5
ENDMDL
