MODEL 1
REMARK VINA RESULT:      -9.6      0.000      0.000
REMARK  Name = 
REMARK  6 active torsions:
REMARK  status: ('A' for Active; 'I' for Inactive)
REMARK    1  A    between atoms: C_1  and  C_2
REMARK    2  A    between atoms: C_2  and  C_3
REMARK    3  A    between atoms: C_12  and  C_13
REMARK    4  A    between atoms: N_15  and  C_16
REMARK    5  A    between atoms: C_16  and  C_17
REMARK    6  A    between atoms: C_16  and  C_24
REMARK                            x       y       z     vdW  Elec       q    Type
REMARK                         _______ _______ _______ _____ _____    ______ ____
ROOT
ATOM      1  C   UNL     1       5.205   5.844  18.282  0.00  0.00    +0.000 C 
ATOM      2  O   UNL     1       5.526   5.501  19.418  0.00  0.00    +0.000 OA
ATOM      3  N   UNL     1       3.981   6.378  17.976  0.00  0.00    +0.000 N 
ATOM      4  H   UNL     1       3.755   6.661  17.032  0.00  0.00    +0.000 HD
ENDROOT
BRANCH   1   8
ATOM      5  C   UNL     1       5.186   3.314  16.655  0.00  0.00    +0.000 C 
ATOM      6  C   UNL     1       6.154   4.430  16.295  0.00  0.00    +0.000 C 
ATOM      7  C   UNL     1       7.300   4.716  17.245  0.00  0.00    +0.000 C 
ATOM      8  C   UNL     1       6.158   5.703  17.142  0.00  0.00    +0.000 C 
BRANCH   6   9
ATOM      9  C   UNL     1       6.376   4.523  14.796  0.00  0.00    +0.000 A 
ATOM     10  C   UNL     1       7.464   5.249  14.271  0.00  0.00    +0.000 A 
ATOM     11  C   UNL     1       7.849   5.118  12.935  0.00  0.00    +0.000 A 
ATOM     12  C   UNL     1       7.133   4.270  12.101  0.00  0.00    +0.000 A 
ATOM     13  F   UNL     1       7.546   4.082  10.841  0.00  0.00    +0.000 F 
ATOM     14  C   UNL     1       6.016   3.597  12.578  0.00  0.00    +0.000 A 
ATOM     15  F   UNL     1       5.331   2.771  11.777  0.00  0.00    +0.000 F 
ATOM     16  C   UNL     1       5.630   3.727  13.910  0.00  0.00    +0.000 A 
ENDBRANCH   6   9
ENDBRANCH   1   8
BRANCH   3  17
ATOM     17  C   UNL     1       2.978   6.622  19.011  0.00  0.00    +0.000 C 
BRANCH  17  18
ATOM     18  C   UNL     1       2.154   7.898  18.650  0.00  0.00    +0.000 C 
ATOM     19  O   UNL     1       2.063   8.345  17.505  0.00  0.00    +0.000 OA
ATOM     20  N   UNL     1       1.516   8.560  19.694  0.00  0.00    +0.000 N 
ATOM     21  C   UNL     1       1.462   8.182  21.095  0.00  0.00    +0.000 C 
ATOM     22  C   UNL     1       0.115   8.712  21.545  0.00  0.00    +0.000 C 
ATOM     23  C   UNL     1      -0.013  10.017  20.771  0.00  0.00    +0.000 C 
ATOM     24  C   UNL     1       0.724   9.754  19.460  0.00  0.00    +0.000 C 
ENDBRANCH  17  18
BRANCH  17  25
ATOM     25  C   UNL     1       2.208   5.338  19.315  0.00  0.00    +0.000 A 
ATOM     26  C   UNL     1       1.795   4.537  18.229  0.00  0.00    +0.000 A 
ATOM     27  C   UNL     1       1.104   3.341  18.429  0.00  0.00    +0.000 A 
ATOM     28  C   UNL     1       0.800   2.923  19.721  0.00  0.00    +0.000 A 
ATOM     29  C   UNL     1       1.170   3.713  20.806  0.00  0.00    +0.000 A 
ATOM     30  C   UNL     1       1.853   4.918  20.604  0.00  0.00    +0.000 A 
ENDBRANCH  17  25
ENDBRANCH   3  17
TORSDOF 5
ENDMDL
MODEL 2
REMARK VINA RESULT:      -9.0      0.736      1.372
REMARK  Name = 
REMARK  6 active torsions:
REMARK  status: ('A' for Active; 'I' for Inactive)
REMARK    1  A    between atoms: C_1  and  C_2
REMARK    2  A    between atoms: C_2  and  C_3
REMARK    3  A    between atoms: C_12  and  C_13
REMARK    4  A    between atoms: N_15  and  C_16
REMARK    5  A    between atoms: C_16  and  C_17
REMARK    6  A    between atoms: C_16  and  C_24
REMARK                            x       y       z     vdW  Elec       q    Type
REMARK                         _______ _______ _______ _____ _____    ______ ____
ROOT
ATOM      1  C   UNL     1       5.336   5.798  18.296  0.00  0.00    +0.000 C 
ATOM      2  O   UNL     1       5.515   5.432  19.456  0.00  0.00    +0.000 OA
ATOM      3  N   UNL     1       4.189   6.415  17.871  0.00  0.00    +0.000 N 
ATOM      4  H   UNL     1       4.082   6.714  16.911  0.00  0.00    +0.000 HD
ENDROOT
BRANCH   1   8
ATOM      5  C   UNL     1       5.417   3.203  16.777  0.00  0.00    +0.000 C 
ATOM      6  C   UNL     1       6.438   4.286  16.466  0.00  0.00    +0.000 C 
ATOM      7  C   UNL     1       7.495   4.591  17.508  0.00  0.00    +0.000 C 
ATOM      8  C   UNL     1       6.389   5.593  17.258  0.00  0.00    +0.000 C 
BRANCH   6   9
ATOM      9  C   UNL     1       6.802   4.312  14.992  0.00  0.00    +0.000 A 
ATOM     10  C   UNL     1       5.993   3.664  14.038  0.00  0.00    +0.000 A 
ATOM     11  C   UNL     1       6.145   3.907  12.670  0.00  0.00    +0.000 A 
ATOM     12  C   UNL     1       7.126   4.791  12.241  0.00  0.00    +0.000 A 
ATOM     13  F   UNL     1       7.222   5.087  10.939  0.00  0.00    +0.000 F 
ATOM     14  C   UNL     1       7.978   5.390  13.160  0.00  0.00    +0.000 A 
ATOM     15  F   UNL     1       8.918   6.251  12.747  0.00  0.00    +0.000 F 
ATOM     16  C   UNL     1       7.829   5.148  14.523  0.00  0.00    +0.000 A 
ENDBRANCH   6   9
ENDBRANCH   1   8
BRANCH   3  17
ATOM     17  C   UNL     1       3.105   6.727  18.800  0.00  0.00    +0.000 C 
BRANCH  17  18
ATOM     18  C   UNL     1       2.338   7.992  18.304  0.00  0.00    +0.000 C 
ATOM     19  O   UNL     1       2.340   8.370  17.130  0.00  0.00    +0.000 OA
ATOM     20  N   UNL     1       1.642   8.729  19.256  0.00  0.00    +0.000 N 
ATOM     21  C   UNL     1       1.477   8.439  20.669  0.00  0.00    +0.000 C 
ATOM     22  C   UNL     1       0.114   9.021  20.986  0.00  0.00    +0.000 C 
ATOM     23  C   UNL     1       0.072  10.278  20.128  0.00  0.00    +0.000 C 
ATOM     24  C   UNL     1       0.896   9.921  18.892  0.00  0.00    +0.000 C 
ENDBRANCH  17  18
BRANCH  17  25
ATOM     25  C   UNL     1       2.288   5.471  19.100  0.00  0.00    +0.000 A 
ATOM     26  C   UNL     1       1.931   4.636  18.020  0.00  0.00    +0.000 A 
ATOM     27  C   UNL     1       1.202   3.461  18.219  0.00  0.00    +0.000 A 
ATOM     28  C   UNL     1       0.804   3.101  19.502  0.00  0.00    +0.000 A 
ATOM     29  C   UNL     1       1.117   3.926  20.578  0.00  0.00    +0.000 A 
ATOM     30  C   UNL     1       1.839   5.109  20.377  0.00  0.00    +0.000 A 
ENDBRANCH  17  25
ENDBRANCH   3  17
TORSDOF 5
ENDMDL
MODEL 3
REMARK VINA RESULT:      -8.5      4.312      8.683
REMARK  Name = 
REMARK  6 active torsions:
REMARK  status: ('A' for Active; 'I' for Inactive)
REMARK    1  A    between atoms: C_1  and  C_2
REMARK    2  A    between atoms: C_2  and  C_3
REMARK    3  A    between atoms: C_12  and  C_13
REMARK    4  A    between atoms: N_15  and  C_16
REMARK    5  A    between atoms: C_16  and  C_17
REMARK    6  A    between atoms: C_16  and  C_24
REMARK                            x       y       z     vdW  Elec       q    Type
REMARK                         _______ _______ _______ _____ _____    ______ ____
ROOT
ATOM      1  C   UNL     1       2.564   8.260  18.150  0.00  0.00    +0.000 C 
ATOM      2  O   UNL     1       2.625   8.292  16.922  0.00  0.00    +0.000 OA
ATOM      3  N   UNL     1       2.793   7.127  18.885  0.00  0.00    +0.000 N 
ATOM      4  H   UNL     1       2.746   7.141  19.895  0.00  0.00    +0.000 HD
ENDROOT
BRANCH   1   8
ATOM      5  C   UNL     1      -0.229   9.370  18.039  0.00  0.00    +0.000 C 
ATOM      6  C   UNL     1       0.818  10.060  18.898  0.00  0.00    +0.000 C 
ATOM      7  C   UNL     1       1.953  10.783  18.200  0.00  0.00    +0.000 C 
ATOM      8  C   UNL     1       2.236   9.489  18.932  0.00  0.00    +0.000 C 
BRANCH   6   9
ATOM      9  C   UNL     1       0.214  10.648  20.161  0.00  0.00    +0.000 A 
ATOM     10  C   UNL     1      -0.685  11.731  20.094  0.00  0.00    +0.000 A 
ATOM     11  C   UNL     1      -1.461  12.102  21.196  0.00  0.00    +0.000 A 
ATOM     12  C   UNL     1      -1.330  11.400  22.386  0.00  0.00    +0.000 A 
ATOM     13  F   UNL     1      -2.127  11.702  23.419  0.00  0.00    +0.000 F 
ATOM     14  C   UNL     1      -0.401  10.374  22.495  0.00  0.00    +0.000 A 
ATOM     15  F   UNL     1      -0.282   9.690  23.641  0.00  0.00    +0.000 F 
ATOM     16  C   UNL     1       0.374  10.004  21.399  0.00  0.00    +0.000 A 
ENDBRANCH   6   9
ENDBRANCH   1   8
BRANCH   3  17
ATOM     17  C   UNL     1       3.180   5.871  18.245  0.00  0.00    +0.000 C 
BRANCH  17  18
ATOM     18  C   UNL     1       4.727   5.689  18.342  0.00  0.00    +0.000 C 
ATOM     19  O   UNL     1       5.351   5.747  19.403  0.00  0.00    +0.000 OA
ATOM     20  N   UNL     1       5.419   5.474  17.154  0.00  0.00    +0.000 N 
ATOM     21  C   UNL     1       4.877   5.332  15.815  0.00  0.00    +0.000 C 
ATOM     22  C   UNL     1       5.857   4.393  15.141  0.00  0.00    +0.000 C 
ATOM     23  C   UNL     1       7.196   4.822  15.727  0.00  0.00    +0.000 C 
ATOM     24  C   UNL     1       6.859   5.291  17.141  0.00  0.00    +0.000 C 
ENDBRANCH  17  18
BRANCH  17  25
ATOM     25  C   UNL     1       2.295   4.729  18.743  0.00  0.00    +0.000 A 
ATOM     26  C   UNL     1       1.900   4.737  20.097  0.00  0.00    +0.000 A 
ATOM     27  C   UNL     1       1.076   3.738  20.620  0.00  0.00    +0.000 A 
ATOM     28  C   UNL     1       0.638   2.701  19.802  0.00  0.00    +0.000 A 
ATOM     29  C   UNL     1       1.042   2.657  18.471  0.00  0.00    +0.000 A 
ATOM     30  C   UNL     1       1.876   3.653  17.950  0.00  0.00    +0.000 A 
ENDBRANCH  17  25
ENDBRANCH   3  17
TORSDOF 5
ENDMDL
MODEL 4
REMARK VINA RESULT:      -8.1      3.749      6.973
REMARK  Name = 
REMARK  6 active torsions:
REMARK  status: ('A' for Active; 'I' for Inactive)
REMARK    1  A    between atoms: C_1  and  C_2
REMARK    2  A    between atoms: C_2  and  C_3
REMARK    3  A    between atoms: C_12  and  C_13
REMARK    4  A    between atoms: N_15  and  C_16
REMARK    5  A    between atoms: C_16  and  C_17
REMARK    6  A    between atoms: C_16  and  C_24
REMARK                            x       y       z     vdW  Elec       q    Type
REMARK                         _______ _______ _______ _____ _____    ______ ____
ROOT
ATOM      1  C   UNL     1       0.882   9.530  18.111  0.00  0.00    +0.000 C 
ATOM      2  O   UNL     1      -0.338   9.454  17.978  0.00  0.00    +0.000 OA
ATOM      3  N   UNL     1       1.503  10.563  18.762  0.00  0.00    +0.000 N 
ATOM      4  H   UNL     1       2.510  10.587  18.864  0.00  0.00    +0.000 HD
ENDROOT
BRANCH   1   8
ATOM      5  C   UNL     1       2.030   7.472  19.979  0.00  0.00    +0.000 C 
ATOM      6  C   UNL     1       2.362   7.407  18.498  0.00  0.00    +0.000 C 
ATOM      7  C   UNL     1       3.251   8.488  17.916  0.00  0.00    +0.000 C 
ATOM      8  C   UNL     1       1.780   8.470  17.565  0.00  0.00    +0.000 C 
BRANCH   6   9
ATOM      9  C   UNL     1       2.500   5.975  18.012  0.00  0.00    +0.000 A 
ATOM     10  C   UNL     1       3.728   5.498  17.513  0.00  0.00    +0.000 A 
ATOM     11  C   UNL     1       3.956   4.132  17.328  0.00  0.00    +0.000 A 
ATOM     12  C   UNL     1       2.946   3.227  17.625  0.00  0.00    +0.000 A 
ATOM     13  F   UNL     1       3.188   1.914  17.524  0.00  0.00    +0.000 F 
ATOM     14  C   UNL     1       1.705   3.679  18.053  0.00  0.00    +0.000 A 
ATOM     15  F   UNL     1       0.733   2.806  18.349  0.00  0.00    +0.000 F 
ATOM     16  C   UNL     1       1.475   5.040  18.237  0.00  0.00    +0.000 A 
ENDBRANCH   6   9
ENDBRANCH   1   8
BRANCH   3  17
ATOM     17  C   UNL     1       0.737  11.636  19.393  0.00  0.00    +0.000 C 
BRANCH  17  18
ATOM     18  C   UNL     1       0.510  11.301  20.900  0.00  0.00    +0.000 C 
ATOM     19  O   UNL     1       1.375  10.800  21.621  0.00  0.00    +0.000 OA
ATOM     20  N   UNL     1      -0.748  11.569  21.430  0.00  0.00    +0.000 N 
ATOM     21  C   UNL     1      -1.884  12.189  20.771  0.00  0.00    +0.000 C 
ATOM     22  C   UNL     1      -2.589  12.911  21.903  0.00  0.00    +0.000 C 
ATOM     23  C   UNL     1      -2.407  11.960  23.079  0.00  0.00    +0.000 C 
ATOM     24  C   UNL     1      -1.056  11.295  22.822  0.00  0.00    +0.000 C 
ENDBRANCH  17  18
BRANCH  17  25
ATOM     25  C   UNL     1       1.345  12.994  19.048  0.00  0.00    +0.000 A 
ATOM     26  C   UNL     1       2.629  13.018  18.463  0.00  0.00    +0.000 A 
ATOM     27  C   UNL     1       3.241  14.221  18.103  0.00  0.00    +0.000 A 
ATOM     28  C   UNL     1       2.588  15.427  18.330  0.00  0.00    +0.000 A 
ATOM     29  C   UNL     1       1.334  15.429  18.935  0.00  0.00    +0.000 A 
ATOM     30  C   UNL     1       0.725  14.224  19.306  0.00  0.00    +0.000 A 
ENDBRANCH  17  25
ENDBRANCH   3  17
TORSDOF 5
ENDMDL
MODEL 5
REMARK VINA RESULT:      -8.1      4.606      8.840
REMARK  Name = 
REMARK  6 active torsions:
REMARK  status: ('A' for Active; 'I' for Inactive)
REMARK    1  A    between atoms: C_1  and  C_2
REMARK    2  A    between atoms: C_2  and  C_3
REMARK    3  A    between atoms: C_12  and  C_13
REMARK    4  A    between atoms: N_15  and  C_16
REMARK    5  A    between atoms: C_16  and  C_17
REMARK    6  A    between atoms: C_16  and  C_24
REMARK                            x       y       z     vdW  Elec       q    Type
REMARK                         _______ _______ _______ _____ _____    ______ ____
ROOT
ATOM      1  C   UNL     1       2.303   8.289  18.382  0.00  0.00    +0.000 C 
ATOM      2  O   UNL     1       2.471   8.404  17.170  0.00  0.00    +0.000 OA
ATOM      3  N   UNL     1       2.521   7.122  19.064  0.00  0.00    +0.000 N 
ATOM      4  H   UNL     1       2.385   7.068  20.065  0.00  0.00    +0.000 HD
ENDROOT
BRANCH   1   8
ATOM      5  C   UNL     1      -0.419   9.467  17.881  0.00  0.00    +0.000 C 
ATOM      6  C   UNL     1       0.462  10.053  18.972  0.00  0.00    +0.000 C 
ATOM      7  C   UNL     1       1.708  10.810  18.557  0.00  0.00    +0.000 C 
ATOM      8  C   UNL     1       1.848   9.449  19.204  0.00  0.00    +0.000 C 
BRANCH   6   9
ATOM      9  C   UNL     1      -0.354  10.538  20.157  0.00  0.00    +0.000 A 
ATOM     10  C   UNL     1      -0.162   9.987  21.440  0.00  0.00    +0.000 A 
ATOM     11  C   UNL     1      -0.687  10.599  22.581  0.00  0.00    +0.000 A 
ATOM     12  C   UNL     1      -1.429  11.764  22.447  0.00  0.00    +0.000 A 
ATOM     13  F   UNL     1      -1.867  12.396  23.544  0.00  0.00    +0.000 F 
ATOM     14  C   UNL     1      -1.689  12.288  21.188  0.00  0.00    +0.000 A 
ATOM     15  F   UNL     1      -2.397  13.417  21.059  0.00  0.00    +0.000 F 
ATOM     16  C   UNL     1      -1.168  11.679  20.049  0.00  0.00    +0.000 A 
ENDBRANCH   6   9
ENDBRANCH   1   8
BRANCH   3  17
ATOM     17  C   UNL     1       3.024   5.928  18.387  0.00  0.00    +0.000 C 
BRANCH  17  18
ATOM     18  C   UNL     1       4.572   5.838  18.564  0.00  0.00    +0.000 C 
ATOM     19  O   UNL     1       5.128   5.813  19.664  0.00  0.00    +0.000 OA
ATOM     20  N   UNL     1       5.344   5.809  17.408  0.00  0.00    +0.000 N 
ATOM     21  C   UNL     1       4.892   5.787  16.028  0.00  0.00    +0.000 C 
ATOM     22  C   UNL     1       5.976   4.999  15.320  0.00  0.00    +0.000 C 
ATOM     23  C   UNL     1       7.244   5.445  16.036  0.00  0.00    +0.000 C 
ATOM     24  C   UNL     1       6.793   5.723  17.468  0.00  0.00    +0.000 C 
ENDBRANCH  17  18
BRANCH  17  25
ATOM     25  C   UNL     1       2.190   4.708  18.777  0.00  0.00    +0.000 A 
ATOM     26  C   UNL     1       1.699   4.633  20.098  0.00  0.00    +0.000 A 
ATOM     27  C   UNL     1       0.914   3.559  20.522  0.00  0.00    +0.000 A 
ATOM     28  C   UNL     1       0.611   2.529  19.637  0.00  0.00    +0.000 A 
ATOM     29  C   UNL     1       1.111   2.567  18.338  0.00  0.00    +0.000 A 
ATOM     30  C   UNL     1       1.906   3.639  17.916  0.00  0.00    +0.000 A 
ENDBRANCH  17  25
ENDBRANCH   3  17
TORSDOF 5
ENDMDL
MODEL 6
REMARK VINA RESULT:      -8.0      4.309      8.090
REMARK  Name = 
REMARK  6 active torsions:
REMARK  status: ('A' for Active; 'I' for Inactive)
REMARK    1  A    between atoms: C_1  and  C_2
REMARK    2  A    between atoms: C_2  and  C_3
REMARK    3  A    between atoms: C_12  and  C_13
REMARK    4  A    between atoms: N_15  and  C_16
REMARK    5  A    between atoms: C_16  and  C_17
REMARK    6  A    between atoms: C_16  and  C_24
REMARK                            x       y       z     vdW  Elec       q    Type
REMARK                         _______ _______ _______ _____ _____    ______ ____
ROOT
ATOM      1  C   UNL     1       2.207   8.013  18.616  0.00  0.00    +0.000 C 
ATOM      2  O   UNL     1       2.124   7.814  19.827  0.00  0.00    +0.000 OA
ATOM      3  N   UNL     1       2.780   7.123  17.747  0.00  0.00    +0.000 N 
ATOM      4  H   UNL     1       2.820   7.314  16.754  0.00  0.00    +0.000 HD
ENDROOT
BRANCH   1   8
ATOM      5  C   UNL     1       0.808  10.014  20.371  0.00  0.00    +0.000 C 
ATOM      6  C   UNL     1       0.963  10.298  18.886  0.00  0.00    +0.000 C 
ATOM      7  C   UNL     1       0.168   9.455  17.909  0.00  0.00    +0.000 C 
ATOM      8  C   UNL     1       1.666   9.263  18.008  0.00  0.00    +0.000 C 
BRANCH   6   9
ATOM      9  C   UNL     1       1.165  11.778  18.613  0.00  0.00    +0.000 A 
ATOM     10  C   UNL     1       0.144  12.709  18.888  0.00  0.00    +0.000 A 
ATOM     11  C   UNL     1       0.399  14.083  18.913  0.00  0.00    +0.000 A 
ATOM     12  C   UNL     1       1.681  14.542  18.642  0.00  0.00    +0.000 A 
ATOM     13  F   UNL     1       1.947  15.850  18.742  0.00  0.00    +0.000 F 
ATOM     14  C   UNL     1       2.687  13.647  18.302  0.00  0.00    +0.000 A 
ATOM     15  F   UNL     1       3.926  14.089  18.050  0.00  0.00    +0.000 F 
ATOM     16  C   UNL     1       2.435  12.278  18.275  0.00  0.00    +0.000 A 
ENDBRANCH   6   9
ENDBRANCH   1   8
BRANCH   3  17
ATOM     17  C   UNL     1       3.297   5.835  18.206  0.00  0.00    +0.000 C 
BRANCH  17  18
ATOM     18  C   UNL     1       2.123   4.814  18.331  0.00  0.00    +0.000 C 
ATOM     19  O   UNL     1       1.385   4.512  17.391  0.00  0.00    +0.000 OA
ATOM     20  N   UNL     1       1.902   4.247  19.581  0.00  0.00    +0.000 N 
ATOM     21  C   UNL     1       2.672   4.433  20.799  0.00  0.00    +0.000 C 
ATOM     22  C   UNL     1       2.520   3.105  21.512  0.00  0.00    +0.000 C 
ATOM     23  C   UNL     1       1.085   2.707  21.189  0.00  0.00    +0.000 C 
ATOM     24  C   UNL     1       0.836   3.285  19.797  0.00  0.00    +0.000 C 
ENDBRANCH  17  18
BRANCH  17  25
ATOM     25  C   UNL     1       4.512   5.426  17.376  0.00  0.00    +0.000 A 
ATOM     26  C   UNL     1       5.620   6.299  17.344  0.00  0.00    +0.000 A 
ATOM     27  C   UNL     1       6.774   5.985  16.622  0.00  0.00    +0.000 A 
ATOM     28  C   UNL     1       6.841   4.793  15.908  0.00  0.00    +0.000 A 
ATOM     29  C   UNL     1       5.748   3.931  15.899  0.00  0.00    +0.000 A 
ATOM     30  C   UNL     1       4.588   4.252  16.614  0.00  0.00    +0.000 A 
ENDBRANCH  17  25
ENDBRANCH   3  17
TORSDOF 5
ENDMDL
MODEL 7
REMARK VINA RESULT:      -8.0      4.648      8.529
REMARK  Name = 
REMARK  6 active torsions:
REMARK  status: ('A' for Active; 'I' for Inactive)
REMARK    1  A    between atoms: C_1  and  C_2
REMARK    2  A    between atoms: C_2  and  C_3
REMARK    3  A    between atoms: C_12  and  C_13
REMARK    4  A    between atoms: N_15  and  C_16
REMARK    5  A    between atoms: C_16  and  C_17
REMARK    6  A    between atoms: C_16  and  C_24
REMARK                            x       y       z     vdW  Elec       q    Type
REMARK                         _______ _______ _______ _____ _____    ______ ____
ROOT
ATOM      1  C   UNL     1       2.241   8.001  18.773  0.00  0.00    +0.000 C 
ATOM      2  O   UNL     1       2.354   7.734  19.968  0.00  0.00    +0.000 OA
ATOM      3  N   UNL     1       2.626   7.148  17.773  0.00  0.00    +0.000 N 
ATOM      4  H   UNL     1       2.506   7.396  16.800  0.00  0.00    +0.000 HD
ENDROOT
BRANCH   1   8
ATOM      5  C   UNL     1       0.194   9.353  20.513  0.00  0.00    +0.000 C 
ATOM      6  C   UNL     1       0.620  10.008  19.210  0.00  0.00    +0.000 C 
ATOM      7  C   UNL     1       0.201   9.354  17.909  0.00  0.00    +0.000 C 
ATOM      8  C   UNL     1       1.652   9.300  18.332  0.00  0.00    +0.000 C 
BRANCH   6   9
ATOM      9  C   UNL     1       0.640  11.523  19.320  0.00  0.00    +0.000 A 
ATOM     10  C   UNL     1      -0.185  12.316  18.498  0.00  0.00    +0.000 A 
ATOM     11  C   UNL     1      -0.394  13.671  18.768  0.00  0.00    +0.000 A 
ATOM     12  C   UNL     1       0.240  14.253  19.858  0.00  0.00    +0.000 A 
ATOM     13  F   UNL     1      -0.019  15.530  20.166  0.00  0.00    +0.000 F 
ATOM     14  C   UNL     1       1.111  13.507  20.641  0.00  0.00    +0.000 A 
ATOM     15  F   UNL     1       1.715  14.065  21.698  0.00  0.00    +0.000 F 
ATOM     16  C   UNL     1       1.321  12.157  20.373  0.00  0.00    +0.000 A 
ENDBRANCH   6   9
ENDBRANCH   1   8
BRANCH   3  17
ATOM     17  C   UNL     1       3.163   5.821  18.069  0.00  0.00    +0.000 C 
BRANCH  17  18
ATOM     18  C   UNL     1       1.988   4.815  18.278  0.00  0.00    +0.000 C 
ATOM     19  O   UNL     1       1.182   4.521  17.392  0.00  0.00    +0.000 OA
ATOM     20  N   UNL     1       1.848   4.252  19.542  0.00  0.00    +0.000 N 
ATOM     21  C   UNL     1       2.703   4.430  20.702  0.00  0.00    +0.000 C 
ATOM     22  C   UNL     1       2.585   3.104  21.426  0.00  0.00    +0.000 C 
ATOM     23  C   UNL     1       1.127   2.724  21.206  0.00  0.00    +0.000 C 
ATOM     24  C   UNL     1       0.788   3.304  19.834  0.00  0.00    +0.000 C 
ENDBRANCH  17  18
BRANCH  17  25
ATOM     25  C   UNL     1       4.247   5.451  17.058  0.00  0.00    +0.000 A 
ATOM     26  C   UNL     1       4.601   4.091  16.931  0.00  0.00    +0.000 A 
ATOM     27  C   UNL     1       5.570   3.674  16.016  0.00  0.00    +0.000 A 
ATOM     28  C   UNL     1       6.213   4.610  15.213  0.00  0.00    +0.000 A 
ATOM     29  C   UNL     1       5.902   5.961  15.343  0.00  0.00    +0.000 A 
ATOM     30  C   UNL     1       4.939   6.380  16.269  0.00  0.00    +0.000 A 
ENDBRANCH  17  25
ENDBRANCH   3  17
TORSDOF 5
ENDMDL
MODEL 8
REMARK VINA RESULT:      -7.8      4.568      8.279
REMARK  Name = 
REMARK  6 active torsions:
REMARK  status: ('A' for Active; 'I' for Inactive)
REMARK    1  A    between atoms: C_1  and  C_2
REMARK    2  A    between atoms: C_2  and  C_3
REMARK    3  A    between atoms: C_12  and  C_13
REMARK    4  A    between atoms: N_15  and  C_16
REMARK    5  A    between atoms: C_16  and  C_17
REMARK    6  A    between atoms: C_16  and  C_24
REMARK                            x       y       z     vdW  Elec       q    Type
REMARK                         _______ _______ _______ _____ _____    ______ ____
ROOT
ATOM      1  C   UNL     1       2.342   7.937  18.673  0.00  0.00    +0.000 C 
ATOM      2  O   UNL     1       2.436   7.685  19.872  0.00  0.00    +0.000 OA
ATOM      3  N   UNL     1       2.712   7.059  17.689  0.00  0.00    +0.000 N 
ATOM      4  H   UNL     1       2.609   7.296  16.711  0.00  0.00    +0.000 HD
ENDROOT
BRANCH   1   8
ATOM      5  C   UNL     1       0.379   9.411  20.410  0.00  0.00    +0.000 C 
ATOM      6  C   UNL     1       0.807  10.016  19.083  0.00  0.00    +0.000 C 
ATOM      7  C   UNL     1       0.340   9.344  17.807  0.00  0.00    +0.000 C 
ATOM      8  C   UNL     1       1.796   9.246  18.207  0.00  0.00    +0.000 C 
BRANCH   6   9
ATOM      9  C   UNL     1       0.885  11.531  19.152  0.00  0.00    +0.000 A 
ATOM     10  C   UNL     1       1.975  12.223  18.588  0.00  0.00    +0.000 A 
ATOM     11  C   UNL     1       1.935  13.606  18.389  0.00  0.00    +0.000 A 
ATOM     12  C   UNL     1       0.805  14.315  18.773  0.00  0.00    +0.000 A 
ATOM     13  F   UNL     1       0.731  15.627  18.513  0.00  0.00    +0.000 F 
ATOM     14  C   UNL     1      -0.253  13.664  19.393  0.00  0.00    +0.000 A 
ATOM     15  F   UNL     1      -1.348  14.347  19.754  0.00  0.00    +0.000 F 
ATOM     16  C   UNL     1      -0.214  12.286  19.592  0.00  0.00    +0.000 A 
ENDBRANCH   6   9
ENDBRANCH   1   8
BRANCH   3  17
ATOM     17  C   UNL     1       3.208   5.722  18.010  0.00  0.00    +0.000 C 
BRANCH  17  18
ATOM     18  C   UNL     1       2.003   4.758  18.239  0.00  0.00    +0.000 C 
ATOM     19  O   UNL     1       1.171   4.493  17.368  0.00  0.00    +0.000 OA
ATOM     20  N   UNL     1       1.867   4.199  19.505  0.00  0.00    +0.000 N 
ATOM     21  C   UNL     1       2.749   4.345  20.650  0.00  0.00    +0.000 C 
ATOM     22  C   UNL     1       2.598   3.024  21.376  0.00  0.00    +0.000 C 
ATOM     23  C   UNL     1       1.123   2.695  21.182  0.00  0.00    +0.000 C 
ATOM     24  C   UNL     1       0.779   3.287  19.817  0.00  0.00    +0.000 C 
ENDBRANCH  17  18
BRANCH  17  25
ATOM     25  C   UNL     1       4.278   5.299  17.004  0.00  0.00    +0.000 A 
ATOM     26  C   UNL     1       4.924   6.308  16.257  0.00  0.00    +0.000 A 
ATOM     27  C   UNL     1       5.925   6.000  15.333  0.00  0.00    +0.000 A 
ATOM     28  C   UNL     1       6.296   4.675  15.128  0.00  0.00    +0.000 A 
ATOM     29  C   UNL     1       5.650   3.662  15.831  0.00  0.00    +0.000 A 
ATOM     30  C   UNL     1       4.639   3.970  16.749  0.00  0.00    +0.000 A 
ENDBRANCH  17  25
ENDBRANCH   3  17
TORSDOF 5
ENDMDL
MODEL 9
REMARK VINA RESULT:      -7.8      4.452      8.358
REMARK  Name = 
REMARK  6 active torsions:
REMARK  status: ('A' for Active; 'I' for Inactive)
REMARK    1  A    between atoms: C_1  and  C_2
REMARK    2  A    between atoms: C_2  and  C_3
REMARK    3  A    between atoms: C_12  and  C_13
REMARK    4  A    between atoms: N_15  and  C_16
REMARK    5  A    between atoms: C_16  and  C_17
REMARK    6  A    between atoms: C_16  and  C_24
REMARK                            x       y       z     vdW  Elec       q    Type
REMARK                         _______ _______ _______ _____ _____    ______ ____
ROOT
ATOM      1  C   UNL     1       2.233   7.969  18.938  0.00  0.00    +0.000 C 
ATOM      2  O   UNL     1       2.316   7.629  20.117  0.00  0.00    +0.000 OA
ATOM      3  N   UNL     1       2.638   7.177  17.897  0.00  0.00    +0.000 N 
ATOM      4  H   UNL     1       2.543   7.485  16.938  0.00  0.00    +0.000 HD
ENDROOT
BRANCH   1   8
ATOM      5  C   UNL     1      -0.009   9.119  20.580  0.00  0.00    +0.000 C 
ATOM      6  C   UNL     1       0.530   9.903  19.395  0.00  0.00    +0.000 C 
ATOM      7  C   UNL     1       0.259   9.370  18.002  0.00  0.00    +0.000 C 
ATOM      8  C   UNL     1       1.661   9.296  18.564  0.00  0.00    +0.000 C 
BRANCH   6   9
ATOM      9  C   UNL     1       0.502  11.400  19.648  0.00  0.00    +0.000 A 
ATOM     10  C   UNL     1       1.286  11.973  20.669  0.00  0.00    +0.000 A 
ATOM     11  C   UNL     1       1.494  13.353  20.739  0.00  0.00    +0.000 A 
ATOM     12  C   UNL     1       0.901  14.178  19.793  0.00  0.00    +0.000 A 
ATOM     13  F   UNL     1       1.162  15.492  19.810  0.00  0.00    +0.000 F 
ATOM     14  C   UNL     1       0.070  13.642  18.819  0.00  0.00    +0.000 A 
ATOM     15  F   UNL     1      -0.494  14.438  17.900  0.00  0.00    +0.000 F 
ATOM     16  C   UNL     1      -0.139  12.267  18.749  0.00  0.00    +0.000 A 
ENDBRANCH   6   9
ENDBRANCH   1   8
BRANCH   3  17
ATOM     17  C   UNL     1       3.162   5.832  18.124  0.00  0.00    +0.000 C 
BRANCH  17  18
ATOM     18  C   UNL     1       1.977   4.833  18.309  0.00  0.00    +0.000 C 
ATOM     19  O   UNL     1       1.166   4.572  17.418  0.00  0.00    +0.000 OA
ATOM     20  N   UNL     1       1.836   4.236  19.557  0.00  0.00    +0.000 N 
ATOM     21  C   UNL     1       2.697   4.373  20.719  0.00  0.00    +0.000 C 
ATOM     22  C   UNL     1       2.568   3.029  21.407  0.00  0.00    +0.000 C 
ATOM     23  C   UNL     1       1.105   2.670  21.181  0.00  0.00    +0.000 C 
ATOM     24  C   UNL     1       0.767   3.291  19.827  0.00  0.00    +0.000 C 
ENDBRANCH  17  18
BRANCH  17  25
ATOM     25  C   UNL     1       4.223   5.494  17.078  0.00  0.00    +0.000 A 
ATOM     26  C   UNL     1       4.577   4.139  16.904  0.00  0.00    +0.000 A 
ATOM     27  C   UNL     1       5.524   3.750  15.954  0.00  0.00    +0.000 A 
ATOM     28  C   UNL     1       6.148   4.710  15.164  0.00  0.00    +0.000 A 
ATOM     29  C   UNL     1       5.837   6.056  15.340  0.00  0.00    +0.000 A 
ATOM     30  C   UNL     1       4.895   6.445  16.299  0.00  0.00    +0.000 A 
ENDBRANCH  17  25
ENDBRANCH   3  17
TORSDOF 5
ENDMDL
