MODEL 1
REMARK VINA RESULT:      -7.7      0.000      0.000
REMARK  Name = 
REMARK  5 active torsions:
REMARK  status: ('A' for Active; 'I' for Inactive)
REMARK    1  A    between atoms: C_2  and  C_3
REMARK    2  A    between atoms: N_12  and  C_13
REMARK    3  A    between atoms: C_13  and  C_14
REMARK    4  A    between atoms: C_27  and  C_28
REMARK    5  A    between atoms: C_28  and  C_29
REMARK                            x       y       z     vdW  Elec       q    Type
REMARK                         _______ _______ _______ _____ _____    ______ ____
ROOT
ATOM      1  C   UNL     1      -6.310  11.174  19.373  0.00  0.00    +0.000 C 
ATOM      2  C   UNL     1      -7.154  12.442  19.563  0.00  0.00    +0.000 C 
ATOM      3  C   UNL     1      -6.500  13.803  19.984  0.00  0.00    +0.000 C 
ATOM      4  C   UNL     1      -7.635  14.367  20.866  0.00  0.00    +0.000 C 
ATOM      5  C   UNL     1      -7.912  13.577  21.926  0.00  0.00    +0.000 C 
ATOM      6  C   UNL     1      -7.056  12.275  21.999  0.00  0.00    +0.000 C 
ATOM      7  C   UNL     1      -5.586  12.606  22.001  0.00  0.00    +0.000 C 
ATOM      8  C   UNL     1      -4.705  13.008  23.129  0.00  0.00    +0.000 C 
ATOM      9  O   UNL     1      -4.896  12.866  24.322  0.00  0.00    +0.000 OA
ATOM     10  N   UNL     1      -3.562  13.437  22.455  0.00  0.00    +0.000 N 
ATOM     11  C   UNL     1      -3.818  13.730  21.097  0.00  0.00    +0.000 C 
ATOM     12  O   UNL     1      -3.012  14.020  20.234  0.00  0.00    +0.000 OA
ATOM     13  C   UNL     1      -5.332  13.762  21.037  0.00  0.00    +0.000 C 
ATOM     14  C   UNL     1      -7.246  11.496  20.656  0.00  0.00    +0.000 C 
ENDROOT
BRANCH   1  16
ATOM     15  O   UNL     1      -5.962  12.770  17.653  0.00  0.00    +0.000 OA
ATOM     16  C   UNL     1      -5.620  11.686  18.112  0.00  0.00    +0.000 C 
ATOM     17  N   UNL     1      -4.732  10.834  17.444  0.00  0.00    +0.000 N 
ATOM     18  C   UNL     1      -4.192  11.204  16.145  0.00  0.00    +0.000 C 
ATOM     19  C   UNL     1      -2.784  10.608  16.095  0.00  0.00    +0.000 C 
ATOM     20  C   UNL     1      -2.503  10.160  17.536  0.00  0.00    +0.000 C 
ATOM     21  C   UNL     1      -3.916   9.762  18.000  0.00  0.00    +0.000 C 
BRANCH  20  22
ATOM     22  C   UNL     1      -1.975  11.251  18.493  0.00  0.00    +0.000 C 
BRANCH  22  23
ATOM     23  C   UNL     1      -0.509  11.571  18.405  0.00  0.00    +0.000 A 
ATOM     24  C   UNL     1      -0.084  12.908  18.439  0.00  0.00    +0.000 A 
ATOM     25  C   UNL     1       1.272  13.226  18.383  0.00  0.00    +0.000 A 
ATOM     26  C   UNL     1       2.219  12.208  18.305  0.00  0.00    +0.000 A 
ATOM     27  C   UNL     1       1.810  10.874  18.289  0.00  0.00    +0.000 A 
ATOM     28  C   UNL     1       0.452  10.556  18.333  0.00  0.00    +0.000 A 
ENDBRANCH  22  23
ENDBRANCH  20  22
ENDBRANCH   1  16
BRANCH  10  29
ATOM     29  C   UNL     1      -2.273  13.496  23.101  0.00  0.00    +0.000 C 
BRANCH  29  30
ATOM     30  C   UNL     1      -1.409  12.298  22.788  0.00  0.00    +0.000 A 
ATOM     31  C   UNL     1      -1.723  11.025  23.290  0.00  0.00    +0.000 A 
ATOM     32  C   UNL     1      -0.894   9.934  23.018  0.00  0.00    +0.000 A 
ATOM     33  C   UNL     1       0.254  10.107  22.246  0.00  0.00    +0.000 A 
ATOM     34  C   UNL     1       0.573  11.367  21.741  0.00  0.00    +0.000 A 
ATOM     35  C   UNL     1      -0.255  12.457  22.010  0.00  0.00    +0.000 A 
ENDBRANCH  29  30
ENDBRANCH  10  29
TORSDOF 5
ENDMDL
MODEL 2
REMARK VINA RESULT:      -6.9      2.119      5.770
REMARK  Name = 
REMARK  5 active torsions:
REMARK  status: ('A' for Active; 'I' for Inactive)
REMARK    1  A    between atoms: C_2  and  C_3
REMARK    2  A    between atoms: N_12  and  C_13
REMARK    3  A    between atoms: C_13  and  C_14
REMARK    4  A    between atoms: C_27  and  C_28
REMARK    5  A    between atoms: C_28  and  C_29
REMARK                            x       y       z     vdW  Elec       q    Type
REMARK                         _______ _______ _______ _____ _____    ______ ____
ROOT
ATOM      1  C   UNL     1      -0.635  13.989  21.146  0.00  0.00    +0.000 C 
ATOM      2  C   UNL     1      -0.327  14.603  22.519  0.00  0.00    +0.000 C 
ATOM      3  C   UNL     1      -1.232  14.312  23.766  0.00  0.00    +0.000 C 
ATOM      4  C   UNL     1      -1.137  15.683  24.472  0.00  0.00    +0.000 C 
ATOM      5  C   UNL     1      -1.611  16.694  23.713  0.00  0.00    +0.000 C 
ATOM      6  C   UNL     1      -2.111  16.259  22.301  0.00  0.00    +0.000 C 
ATOM      7  C   UNL     1      -3.168  15.191  22.418  0.00  0.00    +0.000 C 
ATOM      8  C   UNL     1      -4.627  15.323  22.673  0.00  0.00    +0.000 C 
ATOM      9  O   UNL     1      -5.328  16.308  22.540  0.00  0.00    +0.000 OA
ATOM     10  N   UNL     1      -4.987  14.004  22.944  0.00  0.00    +0.000 N 
ATOM     11  C   UNL     1      -3.875  13.205  23.291  0.00  0.00    +0.000 C 
ATOM     12  O   UNL     1      -3.851  12.004  23.477  0.00  0.00    +0.000 OA
ATOM     13  C   UNL     1      -2.787  14.230  23.541  0.00  0.00    +0.000 C 
ATOM     14  C   UNL     1      -0.936  15.521  21.578  0.00  0.00    +0.000 C 
ENDROOT
BRANCH   1  16
ATOM     15  O   UNL     1      -0.480  12.233  22.734  0.00  0.00    +0.000 OA
ATOM     16  C   UNL     1      -0.272  12.570  21.574  0.00  0.00    +0.000 C 
ATOM     17  N   UNL     1       0.421  11.757  20.668  0.00  0.00    +0.000 N 
ATOM     18  C   UNL     1       0.949  10.468  21.090  0.00  0.00    +0.000 C 
ATOM     19  C   UNL     1       0.864   9.562  19.860  0.00  0.00    +0.000 C 
ATOM     20  C   UNL     1       0.002  10.346  18.862  0.00  0.00    +0.000 C 
ATOM     21  C   UNL     1       0.390  11.794  19.211  0.00  0.00    +0.000 C 
BRANCH  20  22
ATOM     22  C   UNL     1      -1.527  10.206  19.032  0.00  0.00    +0.000 C 
BRANCH  22  23
ATOM     23  C   UNL     1      -2.365  10.446  17.808  0.00  0.00    +0.000 A 
ATOM     24  C   UNL     1      -2.058   9.781  16.612  0.00  0.00    +0.000 A 
ATOM     25  C   UNL     1      -2.835   9.970  15.471  0.00  0.00    +0.000 A 
ATOM     26  C   UNL     1      -3.938  10.819  15.517  0.00  0.00    +0.000 A 
ATOM     27  C   UNL     1      -4.265  11.472  16.706  0.00  0.00    +0.000 A 
ATOM     28  C   UNL     1      -3.480  11.292  17.846  0.00  0.00    +0.000 A 
ENDBRANCH  22  23
ENDBRANCH  20  22
ENDBRANCH   1  16
BRANCH  10  29
ATOM     29  C   UNL     1      -6.347  13.541  22.808  0.00  0.00    +0.000 C 
BRANCH  29  30
ATOM     30  C   UNL     1      -6.694  13.162  21.388  0.00  0.00    +0.000 A 
ATOM     31  C   UNL     1      -6.365  11.898  20.872  0.00  0.00    +0.000 A 
ATOM     32  C   UNL     1      -6.664  11.577  19.545  0.00  0.00    +0.000 A 
ATOM     33  C   UNL     1      -7.289  12.516  18.725  0.00  0.00    +0.000 A 
ATOM     34  C   UNL     1      -7.621  13.772  19.229  0.00  0.00    +0.000 A 
ATOM     35  C   UNL     1      -7.326  14.093  20.554  0.00  0.00    +0.000 A 
ENDBRANCH  29  30
ENDBRANCH  10  29
TORSDOF 5
ENDMDL
MODEL 3
REMARK VINA RESULT:      -6.9      1.399      2.659
REMARK  Name = 
REMARK  5 active torsions:
REMARK  status: ('A' for Active; 'I' for Inactive)
REMARK    1  A    between atoms: C_2  and  C_3
REMARK    2  A    between atoms: N_12  and  C_13
REMARK    3  A    between atoms: C_13  and  C_14
REMARK    4  A    between atoms: C_27  and  C_28
REMARK    5  A    between atoms: C_28  and  C_29
REMARK                            x       y       z     vdW  Elec       q    Type
REMARK                         _______ _______ _______ _____ _____    ______ ____
ROOT
ATOM      1  C   UNL     1      -6.189  11.123  18.959  0.00  0.00    +0.000 C 
ATOM      2  C   UNL     1      -6.982  12.427  19.126  0.00  0.00    +0.000 C 
ATOM      3  C   UNL     1      -6.304  13.731  19.673  0.00  0.00    +0.000 C 
ATOM      4  C   UNL     1      -7.492  14.319  20.466  0.00  0.00    +0.000 C 
ATOM      5  C   UNL     1      -7.915  13.501  21.454  0.00  0.00    +0.000 C 
ATOM      6  C   UNL     1      -7.138  12.151  21.549  0.00  0.00    +0.000 C 
ATOM      7  C   UNL     1      -5.660  12.400  21.711  0.00  0.00    +0.000 C 
ATOM      8  C   UNL     1      -4.878  12.704  22.937  0.00  0.00    +0.000 C 
ATOM      9  O   UNL     1      -5.195  12.522  24.097  0.00  0.00    +0.000 OA
ATOM     10  N   UNL     1      -3.653  13.097  22.400  0.00  0.00    +0.000 N 
ATOM     11  C   UNL     1      -3.755  13.461  21.039  0.00  0.00    +0.000 C 
ATOM     12  O   UNL     1      -2.853  13.743  20.274  0.00  0.00    +0.000 OA
ATOM     13  C   UNL     1      -5.252  13.580  20.833  0.00  0.00    +0.000 C 
ATOM     14  C   UNL     1      -7.232  11.442  20.158  0.00  0.00    +0.000 C 
ENDROOT
BRANCH   1  16
ATOM     15  O   UNL     1      -5.592  12.767  17.355  0.00  0.00    +0.000 OA
ATOM     16  C   UNL     1      -5.351  11.649  17.797  0.00  0.00    +0.000 C 
ATOM     17  N   UNL     1      -4.440  10.780  17.184  0.00  0.00    +0.000 N 
ATOM     18  C   UNL     1      -3.754  11.174  15.963  0.00  0.00    +0.000 C 
ATOM     19  C   UNL     1      -2.377  10.509  16.028  0.00  0.00    +0.000 C 
ATOM     20  C   UNL     1      -2.266   9.990  17.468  0.00  0.00    +0.000 C 
ATOM     21  C   UNL     1      -3.736   9.646  17.771  0.00  0.00    +0.000 C 
BRANCH  20  22
ATOM     22  C   UNL     1      -1.788  11.014  18.522  0.00  0.00    +0.000 C 
BRANCH  22  23
ATOM     23  C   UNL     1      -0.828  10.509  19.562  0.00  0.00    +0.000 A 
ATOM     24  C   UNL     1       0.199   9.626  19.194  0.00  0.00    +0.000 A 
ATOM     25  C   UNL     1       1.114   9.165  20.138  0.00  0.00    +0.000 A 
ATOM     26  C   UNL     1       1.020   9.591  21.460  0.00  0.00    +0.000 A 
ATOM     27  C   UNL     1       0.014  10.483  21.835  0.00  0.00    +0.000 A 
ATOM     28  C   UNL     1      -0.910  10.936  20.893  0.00  0.00    +0.000 A 
ENDBRANCH  22  23
ENDBRANCH  20  22
ENDBRANCH   1  16
BRANCH  10  29
ATOM     29  C   UNL     1      -2.433  13.057  23.171  0.00  0.00    +0.000 C 
BRANCH  29  30
ATOM     30  C   UNL     1      -2.066  14.402  23.751  0.00  0.00    +0.000 A 
ATOM     31  C   UNL     1      -2.632  14.854  24.954  0.00  0.00    +0.000 A 
ATOM     32  C   UNL     1      -2.306  16.115  25.458  0.00  0.00    +0.000 A 
ATOM     33  C   UNL     1      -1.417  16.935  24.764  0.00  0.00    +0.000 A 
ATOM     34  C   UNL     1      -0.848  16.493  23.570  0.00  0.00    +0.000 A 
ATOM     35  C   UNL     1      -1.171  15.233  23.067  0.00  0.00    +0.000 A 
ENDBRANCH  29  30
ENDBRANCH  10  29
TORSDOF 5
ENDMDL
MODEL 4
REMARK VINA RESULT:      -6.6      3.925      7.431
REMARK  Name = 
REMARK  5 active torsions:
REMARK  status: ('A' for Active; 'I' for Inactive)
REMARK    1  A    between atoms: C_2  and  C_3
REMARK    2  A    between atoms: N_12  and  C_13
REMARK    3  A    between atoms: C_13  and  C_14
REMARK    4  A    between atoms: C_27  and  C_28
REMARK    5  A    between atoms: C_28  and  C_29
REMARK                            x       y       z     vdW  Elec       q    Type
REMARK                         _______ _______ _______ _____ _____    ______ ____
ROOT
ATOM      1  C   UNL     1      -0.283  12.645  21.094  0.00  0.00    +0.000 C 
ATOM      2  C   UNL     1      -1.410  12.186  20.159  0.00  0.00    +0.000 C 
ATOM      3  C   UNL     1      -1.678  10.665  19.888  0.00  0.00    +0.000 C 
ATOM      4  C   UNL     1      -2.117  10.746  18.409  0.00  0.00    +0.000 C 
ATOM      5  C   UNL     1      -1.156  11.253  17.608  0.00  0.00    +0.000 C 
ATOM      6  C   UNL     1       0.151  11.667  18.352  0.00  0.00    +0.000 C 
ATOM      7  C   UNL     1       0.714  10.501  19.123  0.00  0.00    +0.000 C 
ATOM      8  C   UNL     1       1.574   9.381  18.657  0.00  0.00    +0.000 C 
ATOM      9  O   UNL     1       2.251   9.321  17.648  0.00  0.00    +0.000 OA
ATOM     10  N   UNL     1       1.515   8.509  19.743  0.00  0.00    +0.000 N 
ATOM     11  C   UNL     1       0.414   8.777  20.587  0.00  0.00    +0.000 C 
ATOM     12  O   UNL     1       0.157   8.263  21.658  0.00  0.00    +0.000 OA
ATOM     13  C   UNL     1      -0.433   9.714  19.750  0.00  0.00    +0.000 C 
ATOM     14  C   UNL     1      -0.235  12.685  19.475  0.00  0.00    +0.000 C 
ENDROOT
BRANCH   1  16
ATOM     15  O   UNL     1      -0.439  11.233  22.994  0.00  0.00    +0.000 OA
ATOM     16  C   UNL     1      -0.970  12.136  22.357  0.00  0.00    +0.000 C 
ATOM     17  N   UNL     1      -2.252  12.614  22.659  0.00  0.00    +0.000 N 
ATOM     18  C   UNL     1      -3.020  12.026  23.745  0.00  0.00    +0.000 C 
ATOM     19  C   UNL     1      -3.856  13.167  24.327  0.00  0.00    +0.000 C 
ATOM     20  C   UNL     1      -3.275  14.436  23.689  0.00  0.00    +0.000 C 
ATOM     21  C   UNL     1      -2.842  13.901  22.312  0.00  0.00    +0.000 C 
BRANCH  20  22
ATOM     22  C   UNL     1      -2.030  15.034  24.382  0.00  0.00    +0.000 C 
BRANCH  22  23
ATOM     23  C   UNL     1      -1.275  16.085  23.618  0.00  0.00    +0.000 A 
ATOM     24  C   UNL     1       0.009  15.801  23.127  0.00  0.00    +0.000 A 
ATOM     25  C   UNL     1       0.717  16.753  22.396  0.00  0.00    +0.000 A 
ATOM     26  C   UNL     1       0.145  17.995  22.137  0.00  0.00    +0.000 A 
ATOM     27  C   UNL     1      -1.138  18.283  22.604  0.00  0.00    +0.000 A 
ATOM     28  C   UNL     1      -1.844  17.334  23.347  0.00  0.00    +0.000 A 
ENDBRANCH  22  23
ENDBRANCH  20  22
ENDBRANCH   1  16
BRANCH  10  29
ATOM     29  C   UNL     1       2.526   7.504  19.970  0.00  0.00    +0.000 C 
BRANCH  29  30
ATOM     30  C   UNL     1       2.082   6.125  19.545  0.00  0.00    +0.000 A 
ATOM     31  C   UNL     1       2.187   5.708  18.208  0.00  0.00    +0.000 A 
ATOM     32  C   UNL     1       1.740   4.440  17.827  0.00  0.00    +0.000 A 
ATOM     33  C   UNL     1       1.183   3.583  18.775  0.00  0.00    +0.000 A 
ATOM     34  C   UNL     1       1.078   3.987  20.105  0.00  0.00    +0.000 A 
ATOM     35  C   UNL     1       1.526   5.252  20.488  0.00  0.00    +0.000 A 
ENDBRANCH  29  30
ENDBRANCH  10  29
TORSDOF 5
ENDMDL
MODEL 5
REMARK VINA RESULT:      -6.6      5.439      9.126
REMARK  Name = 
REMARK  5 active torsions:
REMARK  status: ('A' for Active; 'I' for Inactive)
REMARK    1  A    between atoms: C_2  and  C_3
REMARK    2  A    between atoms: N_12  and  C_13
REMARK    3  A    between atoms: C_13  and  C_14
REMARK    4  A    between atoms: C_27  and  C_28
REMARK    5  A    between atoms: C_28  and  C_29
REMARK                            x       y       z     vdW  Elec       q    Type
REMARK                         _______ _______ _______ _____ _____    ______ ____
ROOT
ATOM      1  C   UNL     1       4.444  14.505  20.436  0.00  0.00    +0.000 C 
ATOM      2  C   UNL     1       3.974  15.919  20.066  0.00  0.00    +0.000 C 
ATOM      3  C   UNL     1       2.576  16.461  20.523  0.00  0.00    +0.000 C 
ATOM      4  C   UNL     1       2.223  17.323  19.291  0.00  0.00    +0.000 C 
ATOM      5  C   UNL     1       2.151  16.599  18.153  0.00  0.00    +0.000 C 
ATOM      6  C   UNL     1       2.468  15.082  18.333  0.00  0.00    +0.000 C 
ATOM      7  C   UNL     1       1.557  14.470  19.366  0.00  0.00    +0.000 C 
ATOM      8  C   UNL     1       0.169  13.958  19.224  0.00  0.00    +0.000 C 
ATOM      9  O   UNL     1      -0.417  13.642  18.206  0.00  0.00    +0.000 OA
ATOM     10  N   UNL     1      -0.208  13.793  20.556  0.00  0.00    +0.000 N 
ATOM     11  C   UNL     1       0.610  14.530  21.441  0.00  0.00    +0.000 C 
ATOM     12  O   UNL     1       0.599  14.508  22.657  0.00  0.00    +0.000 OA
ATOM     13  C   UNL     1       1.361  15.461  20.511  0.00  0.00    +0.000 C 
ATOM     14  C   UNL     1       3.884  14.959  18.985  0.00  0.00    +0.000 C 
ENDROOT
BRANCH   1  16
ATOM     15  O   UNL     1       3.735  14.480  22.700  0.00  0.00    +0.000 OA
ATOM     16  C   UNL     1       4.612  14.828  21.918  0.00  0.00    +0.000 C 
ATOM     17  N   UNL     1       5.687  15.638  22.307  0.00  0.00    +0.000 N 
ATOM     18  C   UNL     1       5.786  16.123  23.675  0.00  0.00    +0.000 C 
ATOM     19  C   UNL     1       7.283  16.204  23.979  0.00  0.00    +0.000 C 
ATOM     20  C   UNL     1       7.954  15.465  22.814  0.00  0.00    +0.000 C 
ATOM     21  C   UNL     1       6.985  15.790  21.663  0.00  0.00    +0.000 C 
BRANCH  20  22
ATOM     22  C   UNL     1       8.041  13.929  22.946  0.00  0.00    +0.000 C 
BRANCH  22  23
ATOM     23  C   UNL     1       8.958  13.222  21.988  0.00  0.00    +0.000 A 
ATOM     24  C   UNL     1       8.729  11.874  21.671  0.00  0.00    +0.000 A 
ATOM     25  C   UNL     1       9.552  11.206  20.766  0.00  0.00    +0.000 A 
ATOM     26  C   UNL     1      10.607  11.882  20.159  0.00  0.00    +0.000 A 
ATOM     27  C   UNL     1      10.833  13.227  20.452  0.00  0.00    +0.000 A 
ATOM     28  C   UNL     1      10.017  13.894  21.367  0.00  0.00    +0.000 A 
ENDBRANCH  22  23
ENDBRANCH  20  22
ENDBRANCH   1  16
BRANCH  10  29
ATOM     29  C   UNL     1      -1.281  12.907  20.941  0.00  0.00    +0.000 C 
BRANCH  29  30
ATOM     30  C   UNL     1      -0.788  11.543  21.360  0.00  0.00    +0.000 A 
ATOM     31  C   UNL     1      -0.855  11.126  22.700  0.00  0.00    +0.000 A 
ATOM     32  C   UNL     1      -0.363   9.873  23.075  0.00  0.00    +0.000 A 
ATOM     33  C   UNL     1       0.202   9.031  22.118  0.00  0.00    +0.000 A 
ATOM     34  C   UNL     1       0.271   9.436  20.786  0.00  0.00    +0.000 A 
ATOM     35  C   UNL     1      -0.221  10.685  20.409  0.00  0.00    +0.000 A 
ENDBRANCH  29  30
ENDBRANCH  10  29
TORSDOF 5
ENDMDL
MODEL 6
REMARK VINA RESULT:      -6.6      2.037      5.658
REMARK  Name = 
REMARK  5 active torsions:
REMARK  status: ('A' for Active; 'I' for Inactive)
REMARK    1  A    between atoms: C_2  and  C_3
REMARK    2  A    between atoms: N_12  and  C_13
REMARK    3  A    between atoms: C_13  and  C_14
REMARK    4  A    between atoms: C_27  and  C_28
REMARK    5  A    between atoms: C_28  and  C_29
REMARK                            x       y       z     vdW  Elec       q    Type
REMARK                         _______ _______ _______ _____ _____    ______ ____
ROOT
ATOM      1  C   UNL     1      -0.814  14.236  20.575  0.00  0.00    +0.000 C 
ATOM      2  C   UNL     1      -0.633  15.016  21.885  0.00  0.00    +0.000 C 
ATOM      3  C   UNL     1      -1.597  14.802  23.103  0.00  0.00    +0.000 C 
ATOM      4  C   UNL     1      -1.632  16.245  23.653  0.00  0.00    +0.000 C 
ATOM      5  C   UNL     1      -2.118  17.132  22.758  0.00  0.00    +0.000 C 
ATOM      6  C   UNL     1      -2.498  16.512  21.378  0.00  0.00    +0.000 C 
ATOM      7  C   UNL     1      -3.493  15.394  21.556  0.00  0.00    +0.000 C 
ATOM      8  C   UNL     1      -4.970  15.453  21.709  0.00  0.00    +0.000 C 
ATOM      9  O   UNL     1      -5.721  16.367  21.426  0.00  0.00    +0.000 OA
ATOM     10  N   UNL     1      -5.265  14.150  22.108  0.00  0.00    +0.000 N 
ATOM     11  C   UNL     1      -4.130  13.472  22.606  0.00  0.00    +0.000 C 
ATOM     12  O   UNL     1      -4.045  12.302  22.928  0.00  0.00    +0.000 OA
ATOM     13  C   UNL     1      -3.126  14.590  22.800  0.00  0.00    +0.000 C 
ATOM     14  C   UNL     1      -1.235  15.782  20.813  0.00  0.00    +0.000 C 
ENDROOT
BRANCH   1  16
ATOM     15  O   UNL     1      -0.603  12.701  22.372  0.00  0.00    +0.000 OA
ATOM     16  C   UNL     1      -0.392  12.901  21.181  0.00  0.00    +0.000 C 
ATOM     17  N   UNL     1       0.353  12.015  20.392  0.00  0.00    +0.000 N 
ATOM     18  C   UNL     1       0.933  10.816  20.978  0.00  0.00    +0.000 C 
ATOM     19  C   UNL     1       0.912   9.761  19.870  0.00  0.00    +0.000 C 
ATOM     20  C   UNL     1       0.031  10.372  18.772  0.00  0.00    +0.000 C 
ATOM     21  C   UNL     1       0.345  11.869  18.942  0.00  0.00    +0.000 C 
BRANCH  20  22
ATOM     22  C   UNL     1      -1.493  10.181  18.942  0.00  0.00    +0.000 C 
BRANCH  22  23
ATOM     23  C   UNL     1      -2.337  10.384  17.715  0.00  0.00    +0.000 A 
ATOM     24  C   UNL     1      -3.381  11.321  17.735  0.00  0.00    +0.000 A 
ATOM     25  C   UNL     1      -4.161  11.543  16.602  0.00  0.00    +0.000 A 
ATOM     26  C   UNL     1      -3.897  10.838  15.431  0.00  0.00    +0.000 A 
ATOM     27  C   UNL     1      -2.850   9.917  15.392  0.00  0.00    +0.000 A 
ATOM     28  C   UNL     1      -2.076   9.686  16.531  0.00  0.00    +0.000 A 
ENDBRANCH  22  23
ENDBRANCH  20  22
ENDBRANCH   1  16
BRANCH  10  29
ATOM     29  C   UNL     1      -6.582  13.583  21.947  0.00  0.00    +0.000 C 
BRANCH  29  30
ATOM     30  C   UNL     1      -6.762  12.895  20.615  0.00  0.00    +0.000 A 
ATOM     31  C   UNL     1      -7.167  13.611  19.477  0.00  0.00    +0.000 A 
ATOM     32  C   UNL     1      -7.360  12.952  18.260  0.00  0.00    +0.000 A 
ATOM     33  C   UNL     1      -7.155  11.575  18.173  0.00  0.00    +0.000 A 
ATOM     34  C   UNL     1      -6.751  10.857  19.297  0.00  0.00    +0.000 A 
ATOM     35  C   UNL     1      -6.554  11.514  20.512  0.00  0.00    +0.000 A 
ENDBRANCH  29  30
ENDBRANCH  10  29
TORSDOF 5
ENDMDL
MODEL 7
REMARK VINA RESULT:      -6.5      4.071      7.409
REMARK  Name = 
REMARK  5 active torsions:
REMARK  status: ('A' for Active; 'I' for Inactive)
REMARK    1  A    between atoms: C_2  and  C_3
REMARK    2  A    between atoms: N_12  and  C_13
REMARK    3  A    between atoms: C_13  and  C_14
REMARK    4  A    between atoms: C_27  and  C_28
REMARK    5  A    between atoms: C_28  and  C_29
REMARK                            x       y       z     vdW  Elec       q    Type
REMARK                         _______ _______ _______ _____ _____    ______ ____
ROOT
ATOM      1  C   UNL     1      -0.039  12.480  20.819  0.00  0.00    +0.000 C 
ATOM      2  C   UNL     1      -1.218  12.009  19.957  0.00  0.00    +0.000 C 
ATOM      3  C   UNL     1      -1.543  10.486  19.777  0.00  0.00    +0.000 C 
ATOM      4  C   UNL     1      -2.042  10.505  18.315  0.00  0.00    +0.000 C 
ATOM      5  C   UNL     1      -1.101  10.940  17.449  0.00  0.00    +0.000 C 
ATOM      6  C   UNL     1       0.248  11.350  18.117  0.00  0.00    +0.000 C 
ATOM      7  C   UNL     1       0.809  10.207  18.923  0.00  0.00    +0.000 C 
ATOM      8  C   UNL     1       1.615   9.039  18.481  0.00  0.00    +0.000 C 
ATOM      9  O   UNL     1       2.246   8.906  17.450  0.00  0.00    +0.000 OA
ATOM     10  N   UNL     1       1.577   8.225  19.612  0.00  0.00    +0.000 N 
ATOM     11  C   UNL     1       0.521   8.570  20.486  0.00  0.00    +0.000 C 
ATOM     12  O   UNL     1       0.295   8.120  21.593  0.00  0.00    +0.000 OA
ATOM     13  C   UNL     1      -0.333   9.490  19.637  0.00  0.00    +0.000 C 
ATOM     14  C   UNL     1      -0.059  12.436  19.200  0.00  0.00    +0.000 C 
ENDROOT
BRANCH   1  16
ATOM     15  O   UNL     1      -0.146  11.183  22.803  0.00  0.00    +0.000 OA
ATOM     16  C   UNL     1      -0.687  12.057  22.135  0.00  0.00    +0.000 C 
ATOM     17  N   UNL     1      -1.948  12.575  22.455  0.00  0.00    +0.000 N 
ATOM     18  C   UNL     1      -2.685  12.065  23.601  0.00  0.00    +0.000 C 
ATOM     19  C   UNL     1      -3.480  13.253  24.145  0.00  0.00    +0.000 C 
ATOM     20  C   UNL     1      -2.903  14.472  23.412  0.00  0.00    +0.000 C 
ATOM     21  C   UNL     1      -2.531  13.850  22.054  0.00  0.00    +0.000 C 
BRANCH  20  22
ATOM     22  C   UNL     1      -1.624  15.086  24.023  0.00  0.00    +0.000 C 
BRANCH  22  23
ATOM     23  C   UNL     1      -0.838  16.016  23.142  0.00  0.00    +0.000 A 
ATOM     24  C   UNL     1      -1.376  17.263  22.789  0.00  0.00    +0.000 A 
ATOM     25  C   UNL     1      -0.654  18.150  21.993  0.00  0.00    +0.000 A 
ATOM     26  C   UNL     1       0.620  17.806  21.551  0.00  0.00    +0.000 A 
ATOM     27  C   UNL     1       1.174  16.576  21.910  0.00  0.00    +0.000 A 
ATOM     28  C   UNL     1       0.447  15.682  22.698  0.00  0.00    +0.000 A 
ENDBRANCH  22  23
ENDBRANCH  20  22
ENDBRANCH   1  16
BRANCH  10  29
ATOM     29  C   UNL     1       2.566   7.202  19.850  0.00  0.00    +0.000 C 
BRANCH  29  30
ATOM     30  C   UNL     1       2.075   5.821  19.487  0.00  0.00    +0.000 A 
ATOM     31  C   UNL     1       1.499   4.978  20.452  0.00  0.00    +0.000 A 
ATOM     32  C   UNL     1       1.081   3.691  20.105  0.00  0.00    +0.000 A 
ATOM     33  C   UNL     1       1.236   3.236  18.796  0.00  0.00    +0.000 A 
ATOM     34  C   UNL     1       1.804   4.067  17.831  0.00  0.00    +0.000 A 
ATOM     35  C   UNL     1       2.220   5.353  18.175  0.00  0.00    +0.000 A 
ENDBRANCH  29  30
ENDBRANCH  10  29
TORSDOF 5
ENDMDL
MODEL 8
REMARK VINA RESULT:      -6.5      4.338      8.109
REMARK  Name = 
REMARK  5 active torsions:
REMARK  status: ('A' for Active; 'I' for Inactive)
REMARK    1  A    between atoms: C_2  and  C_3
REMARK    2  A    between atoms: N_12  and  C_13
REMARK    3  A    between atoms: C_13  and  C_14
REMARK    4  A    between atoms: C_27  and  C_28
REMARK    5  A    between atoms: C_28  and  C_29
REMARK                            x       y       z     vdW  Elec       q    Type
REMARK                         _______ _______ _______ _____ _____    ______ ____
ROOT
ATOM      1  C   UNL     1       0.241  12.335  21.004  0.00  0.00    +0.000 C 
ATOM      2  C   UNL     1      -0.901  11.960  20.049  0.00  0.00    +0.000 C 
ATOM      3  C   UNL     1      -1.312  10.466  19.813  0.00  0.00    +0.000 C 
ATOM      4  C   UNL     1      -1.699  10.543  18.320  0.00  0.00    +0.000 C 
ATOM      5  C   UNL     1      -0.671  10.927  17.534  0.00  0.00    +0.000 C 
ATOM      6  C   UNL     1       0.650  11.233  18.306  0.00  0.00    +0.000 C 
ATOM      7  C   UNL     1       1.073  10.042  19.126  0.00  0.00    +0.000 C 
ATOM      8  C   UNL     1       1.830   8.829  18.718  0.00  0.00    +0.000 C 
ATOM      9  O   UNL     1       2.525   8.671  17.733  0.00  0.00    +0.000 OA
ATOM     10  N   UNL     1       1.654   8.001  19.826  0.00  0.00    +0.000 N 
ATOM     11  C   UNL     1       0.563   8.402  20.629  0.00  0.00    +0.000 C 
ATOM     12  O   UNL     1       0.226   7.950  21.706  0.00  0.00    +0.000 OA
ATOM     13  C   UNL     1      -0.164   9.392  19.740  0.00  0.00    +0.000 C 
ATOM     14  C   UNL     1       0.337  12.319  19.387  0.00  0.00    +0.000 C 
ENDROOT
BRANCH   1  16
ATOM     15  O   UNL     1      -0.162  10.948  22.886  0.00  0.00    +0.000 OA
ATOM     16  C   UNL     1      -0.529  11.935  22.260  0.00  0.00    +0.000 C 
ATOM     17  N   UNL     1      -1.711  12.621  22.565  0.00  0.00    +0.000 N 
ATOM     18  C   UNL     1      -2.573  12.160  23.643  0.00  0.00    +0.000 C 
ATOM     19  C   UNL     1      -3.204  13.421  24.237  0.00  0.00    +0.000 C 
ATOM     20  C   UNL     1      -2.412  14.579  23.616  0.00  0.00    +0.000 C 
ATOM     21  C   UNL     1      -2.072  13.994  22.233  0.00  0.00    +0.000 C 
BRANCH  20  22
ATOM     22  C   UNL     1      -1.087  14.948  24.318  0.00  0.00    +0.000 C 
BRANCH  22  23
ATOM     23  C   UNL     1      -1.091  16.202  25.146  0.00  0.00    +0.000 A 
ATOM     24  C   UNL     1      -1.610  17.390  24.608  0.00  0.00    +0.000 A 
ATOM     25  C   UNL     1      -1.645  18.559  25.366  0.00  0.00    +0.000 A 
ATOM     26  C   UNL     1      -1.173  18.550  26.676  0.00  0.00    +0.000 A 
ATOM     27  C   UNL     1      -0.671  17.371  27.228  0.00  0.00    +0.000 A 
ATOM     28  C   UNL     1      -0.624  16.203  26.465  0.00  0.00    +0.000 A 
ENDBRANCH  22  23
ENDBRANCH  20  22
ENDBRANCH   1  16
BRANCH  10  29
ATOM     29  C   UNL     1       2.554   6.909  20.113  0.00  0.00    +0.000 C 
BRANCH  29  30
ATOM     30  C   UNL     1       2.003   5.572  19.679  0.00  0.00    +0.000 A 
ATOM     31  C   UNL     1       1.380   4.710  20.597  0.00  0.00    +0.000 A 
ATOM     32  C   UNL     1       0.906   3.462  20.184  0.00  0.00    +0.000 A 
ATOM     33  C   UNL     1       1.053   3.065  18.856  0.00  0.00    +0.000 A 
ATOM     34  C   UNL     1       1.667   3.915  17.937  0.00  0.00    +0.000 A 
ATOM     35  C   UNL     1       2.139   5.162  18.346  0.00  0.00    +0.000 A 
ENDBRANCH  29  30
ENDBRANCH  10  29
TORSDOF 5
ENDMDL
MODEL 9
REMARK VINA RESULT:      -6.5      1.532      2.849
REMARK  Name = 
REMARK  5 active torsions:
REMARK  status: ('A' for Active; 'I' for Inactive)
REMARK    1  A    between atoms: C_2  and  C_3
REMARK    2  A    between atoms: N_12  and  C_13
REMARK    3  A    between atoms: C_13  and  C_14
REMARK    4  A    between atoms: C_27  and  C_28
REMARK    5  A    between atoms: C_28  and  C_29
REMARK                            x       y       z     vdW  Elec       q    Type
REMARK                         _______ _______ _______ _____ _____    ______ ____
ROOT
ATOM      1  C   UNL     1      -6.109  11.133  19.210  0.00  0.00    +0.000 C 
ATOM      2  C   UNL     1      -7.023  12.356  19.361  0.00  0.00    +0.000 C 
ATOM      3  C   UNL     1      -6.455  13.753  19.790  0.00  0.00    +0.000 C 
ATOM      4  C   UNL     1      -7.647  14.262  20.631  0.00  0.00    +0.000 C 
ATOM      5  C   UNL     1      -7.916  13.466  21.688  0.00  0.00    +0.000 C 
ATOM      6  C   UNL     1      -6.996  12.211  21.800  0.00  0.00    +0.000 C 
ATOM      7  C   UNL     1      -5.547  12.619  21.847  0.00  0.00    +0.000 C 
ATOM      8  C   UNL     1      -4.725  13.076  22.999  0.00  0.00    +0.000 C 
ATOM      9  O   UNL     1      -4.947  12.932  24.186  0.00  0.00    +0.000 OA
ATOM     10  N   UNL     1      -3.585  13.559  22.358  0.00  0.00    +0.000 N 
ATOM     11  C   UNL     1      -3.811  13.828  20.990  0.00  0.00    +0.000 C 
ATOM     12  O   UNL     1      -2.994  14.154  20.151  0.00  0.00    +0.000 OA
ATOM     13  C   UNL     1      -5.322  13.780  20.881  0.00  0.00    +0.000 C 
ATOM     14  C   UNL     1      -7.102  11.414  20.459  0.00  0.00    +0.000 C 
ENDROOT
BRANCH   1  16
ATOM     15  O   UNL     1      -5.752  12.759  17.519  0.00  0.00    +0.000 OA
ATOM     16  C   UNL     1      -5.406  11.671  17.967  0.00  0.00    +0.000 C 
ATOM     17  N   UNL     1      -4.499  10.838  17.299  0.00  0.00    +0.000 N 
ATOM     18  C   UNL     1      -3.944  11.234  16.014  0.00  0.00    +0.000 C 
ATOM     19  C   UNL     1      -2.530  10.653  15.976  0.00  0.00    +0.000 C 
ATOM     20  C   UNL     1      -2.265  10.186  17.414  0.00  0.00    +0.000 C 
ATOM     21  C   UNL     1      -3.680   9.766  17.851  0.00  0.00    +0.000 C 
BRANCH  20  22
ATOM     22  C   UNL     1      -1.762  11.267  18.395  0.00  0.00    +0.000 C 
BRANCH  22  23
ATOM     23  C   UNL     1      -0.842  10.806  19.490  0.00  0.00    +0.000 A 
ATOM     24  C   UNL     1      -1.015  11.289  20.796  0.00  0.00    +0.000 A 
ATOM     25  C   UNL     1      -0.189  10.856  21.831  0.00  0.00    +0.000 A 
ATOM     26  C   UNL     1       0.814   9.925  21.574  0.00  0.00    +0.000 A 
ATOM     27  C   UNL     1       0.985   9.423  20.283  0.00  0.00    +0.000 A 
ATOM     28  C   UNL     1       0.165   9.865  19.244  0.00  0.00    +0.000 A 
ENDBRANCH  22  23
ENDBRANCH  20  22
ENDBRANCH   1  16
BRANCH  10  29
ATOM     29  C   UNL     1      -2.322  13.690  23.045  0.00  0.00    +0.000 C 
BRANCH  29  30
ATOM     30  C   UNL     1      -2.195  15.000  23.785  0.00  0.00    +0.000 A 
ATOM     31  C   UNL     1      -2.290  16.228  23.109  0.00  0.00    +0.000 A 
ATOM     32  C   UNL     1      -2.137  17.430  23.805  0.00  0.00    +0.000 A 
ATOM     33  C   UNL     1      -1.884  17.414  25.176  0.00  0.00    +0.000 A 
ATOM     34  C   UNL     1      -1.790  16.200  25.855  0.00  0.00    +0.000 A 
ATOM     35  C   UNL     1      -1.945  15.000  25.163  0.00  0.00    +0.000 A 
ENDBRANCH  29  30
ENDBRANCH  10  29
TORSDOF 5
ENDMDL
