MODEL 1
REMARK VINA RESULT:      -8.6      0.000      0.000
REMARK  Name = 
REMARK  6 active torsions:
REMARK  status: ('A' for Active; 'I' for Inactive)
REMARK    1  A    between atoms: C_1  and  N_2
REMARK    2  A    between atoms: C_4  and  C_5
REMARK    3  A    between atoms: C_5  and  C_6
REMARK    4  A    between atoms: N_8  and  C_9
REMARK    5  A    between atoms: C_12  and  O_13
REMARK    6  A    between atoms: O_13  and  C_14
REMARK                            x       y       z     vdW  Elec       q    Type
REMARK                         _______ _______ _______ _____ _____    ______ ____
ROOT
ATOM      1  C   UNL     1       8.064   8.077  18.216  0.00  0.00    +0.000 C 
ATOM      2  O   UNL     1       7.362   8.678  17.405  0.00  0.00    +0.000 OA
ATOM      3  N   UNL     1       8.962   8.676  19.077  0.00  0.00    +0.000 N 
ATOM      4  H   UNL     1       9.736   8.090  19.390  0.00  0.00    +0.000 HD
ENDROOT
BRANCH   3   5
ATOM      5  C   UNL     1       9.148  10.073  19.146  0.00  0.00    +0.000 A 
ATOM      6  C   UNL     1       9.355  10.760  17.951  0.00  0.00    +0.000 A 
ATOM      7  C   UNL     1       9.620  12.128  17.965  0.00  0.00    +0.000 A 
ATOM      8  C   UNL     1       9.670  12.834  19.182  0.00  0.00    +0.000 A 
ATOM      9  C   UNL     1       9.505  12.125  20.378  0.00  0.00    +0.000 A 
ATOM     10 CL   UNL     1       9.683  12.906  21.910  0.00  0.00    +0.000 Cl
ATOM     11  C   UNL     1       9.214  10.751  20.363  0.00  0.00    +0.000 A 
BRANCH   8  12
ATOM     12  O   UNL     1       9.952  14.189  19.258  0.00  0.00    +0.000 OA
BRANCH  12  13
ATOM     13  C   UNL     1       8.951  15.105  19.030  0.00  0.00    +0.000 A 
ATOM     14  C   UNL     1       9.147  16.322  18.375  0.00  0.00    +0.000 A 
ATOM     15  C   UNL     1       8.074  17.187  18.281  0.00  0.00    +0.000 A 
ATOM     16  N   UNL     1       6.835  16.898  18.714  0.00  0.00    +0.000 NA
ATOM     17  C   UNL     1       6.649  15.674  19.266  0.00  0.00    +0.000 A 
ATOM     18  C   UNL     1       7.666  14.756  19.449  0.00  0.00    +0.000 A 
ENDBRANCH  12  13
ENDBRANCH   8  12
ENDBRANCH   3   5
BRANCH   1  19
ATOM     19  C   UNL     1       7.977   6.575  18.349  0.00  0.00    +0.000 C 
BRANCH  19  23
ATOM     20  C   UNL     1       7.401   5.116  13.825  0.00  0.00    +0.000 C 
ATOM     21  N   UNL     1       6.829   5.164  15.158  0.00  0.00    +0.000 N 
ATOM     22  N   UNL     1       7.556   5.819  16.118  0.00  0.00    +0.000 NA
ATOM     23  C   UNL     1       7.089   5.891  17.328  0.00  0.00    +0.000 A 
ATOM     24  C   UNL     1       5.762   5.358  17.715  0.00  0.00    +0.000 A 
ATOM     25  C   UNL     1       5.197   5.541  18.983  0.00  0.00    +0.000 A 
ATOM     26  C   UNL     1       3.918   5.039  19.256  0.00  0.00    +0.000 A 
ATOM     27  C   UNL     1       3.206   4.351  18.276  0.00  0.00    +0.000 A 
ATOM     28  C   UNL     1       3.768   4.161  17.015  0.00  0.00    +0.000 A 
ATOM     29  C   UNL     1       5.041   4.678  16.735  0.00  0.00    +0.000 A 
ATOM     30  C   UNL     1       5.604   4.541  15.382  0.00  0.00    +0.000 A 
ATOM     31  O   UNL     1       4.984   3.919  14.521  0.00  0.00    +0.000 OA
ENDBRANCH  19  23
ENDBRANCH   1  19
TORSDOF 5
ENDMDL
MODEL 2
REMARK VINA RESULT:      -8.6      7.681     10.418
REMARK  Name = 
REMARK  6 active torsions:
REMARK  status: ('A' for Active; 'I' for Inactive)
REMARK    1  A    between atoms: C_1  and  N_2
REMARK    2  A    between atoms: C_4  and  C_5
REMARK    3  A    between atoms: C_5  and  C_6
REMARK    4  A    between atoms: N_8  and  C_9
REMARK    5  A    between atoms: C_12  and  O_13
REMARK    6  A    between atoms: O_13  and  C_14
REMARK                            x       y       z     vdW  Elec       q    Type
REMARK                         _______ _______ _______ _____ _____    ______ ____
ROOT
ATOM      1  C   UNL     1       0.925  11.050  19.193  0.00  0.00    +0.000 C 
ATOM      2  O   UNL     1       1.897  11.407  18.530  0.00  0.00    +0.000 OA
ATOM      3  N   UNL     1       0.656   9.745  19.558  0.00  0.00    +0.000 N 
ATOM      4  H   UNL     1      -0.324   9.527  19.737  0.00  0.00    +0.000 HD
ENDROOT
BRANCH   3   5
ATOM      5  C   UNL     1       1.503   8.664  19.233  0.00  0.00    +0.000 A 
ATOM      6  C   UNL     1       2.083   8.652  17.965  0.00  0.00    +0.000 A 
ATOM      7  C   UNL     1       2.867   7.573  17.563  0.00  0.00    +0.000 A 
ATOM      8  C   UNL     1       3.093   6.490  18.433  0.00  0.00    +0.000 A 
ATOM      9  C   UNL     1       2.470   6.493  19.687  0.00  0.00    +0.000 A 
ATOM     10 CL   UNL     1       2.600   5.137  20.752  0.00  0.00    +0.000 Cl
ATOM     11  C   UNL     1       1.700   7.591  20.102  0.00  0.00    +0.000 A 
BRANCH   8  12
ATOM     12  O   UNL     1       3.845   5.380  18.079  0.00  0.00    +0.000 OA
BRANCH  12  13
ATOM     13  C   UNL     1       5.045   5.551  17.430  0.00  0.00    +0.000 A 
ATOM     14  C   UNL     1       6.149   6.191  17.997  0.00  0.00    +0.000 A 
ATOM     15  C   UNL     1       7.271   6.367  17.208  0.00  0.00    +0.000 A 
ATOM     16  N   UNL     1       7.391   5.895  15.956  0.00  0.00    +0.000 NA
ATOM     17  C   UNL     1       6.339   5.199  15.460  0.00  0.00    +0.000 A 
ATOM     18  C   UNL     1       5.156   5.008  16.149  0.00  0.00    +0.000 A 
ENDBRANCH  12  13
ENDBRANCH   8  12
ENDBRANCH   3   5
BRANCH   1  19
ATOM     19  C   UNL     1      -0.079  12.059  19.696  0.00  0.00    +0.000 C 
BRANCH  19  23
ATOM     20  C   UNL     1      -2.729  10.948  15.867  0.00  0.00    +0.000 C 
ATOM     21  N   UNL     1      -2.735  11.383  17.252  0.00  0.00    +0.000 N 
ATOM     22  N   UNL     1      -1.514  11.559  17.848  0.00  0.00    +0.000 NA
ATOM     23  C   UNL     1      -1.463  11.948  19.086  0.00  0.00    +0.000 A 
ATOM     24  C   UNL     1      -2.669  12.285  19.878  0.00  0.00    +0.000 A 
ATOM     25  C   UNL     1      -2.618  12.825  21.169  0.00  0.00    +0.000 A 
ATOM     26  C   UNL     1      -3.806  13.154  21.834  0.00  0.00    +0.000 A 
ATOM     27  C   UNL     1      -5.039  12.941  21.223  0.00  0.00    +0.000 A 
ATOM     28  C   UNL     1      -5.094  12.399  19.940  0.00  0.00    +0.000 A 
ATOM     29  C   UNL     1      -3.905  12.084  19.266  0.00  0.00    +0.000 A 
ATOM     30  C   UNL     1      -3.959  11.579  17.885  0.00  0.00    +0.000 A 
ATOM     31  O   UNL     1      -5.049  11.376  17.350  0.00  0.00    +0.000 OA
ENDBRANCH  19  23
ENDBRANCH   1  19
TORSDOF 5
ENDMDL
MODEL 3
REMARK VINA RESULT:      -8.6      8.764     12.219
REMARK  Name = 
REMARK  6 active torsions:
REMARK  status: ('A' for Active; 'I' for Inactive)
REMARK    1  A    between atoms: C_1  and  N_2
REMARK    2  A    between atoms: C_4  and  C_5
REMARK    3  A    between atoms: C_5  and  C_6
REMARK    4  A    between atoms: N_8  and  C_9
REMARK    5  A    between atoms: C_12  and  O_13
REMARK    6  A    between atoms: O_13  and  C_14
REMARK                            x       y       z     vdW  Elec       q    Type
REMARK                         _______ _______ _______ _____ _____    ______ ____
ROOT
ATOM      1  C   UNL     1      -1.188  10.852  18.658  0.00  0.00    +0.000 C 
ATOM      2  O   UNL     1      -1.534  10.039  17.803  0.00  0.00    +0.000 OA
ATOM      3  N   UNL     1      -0.180  10.647  19.579  0.00  0.00    +0.000 N 
ATOM      4  H   UNL     1      -0.254  11.183  20.444  0.00  0.00    +0.000 HD
ENDROOT
BRANCH   3   5
ATOM      5  C   UNL     1       0.600   9.472  19.618  0.00  0.00    +0.000 A 
ATOM      6  C   UNL     1       0.594   8.727  20.797  0.00  0.00    +0.000 A 
ATOM      7  C   UNL     1       1.403   7.600  20.918  0.00  0.00    +0.000 A 
ATOM      8  C   UNL     1       2.226   7.192  19.851  0.00  0.00    +0.000 A 
ATOM      9  C   UNL     1       2.257   7.972  18.689  0.00  0.00    +0.000 A 
ATOM     10 CL   UNL     1       3.340   7.602  17.393  0.00  0.00    +0.000 Cl
ATOM     11  C   UNL     1       1.423   9.095  18.557  0.00  0.00    +0.000 A 
BRANCH   8  12
ATOM     12  O   UNL     1       3.068   6.093  19.924  0.00  0.00    +0.000 OA
BRANCH  12  13
ATOM     13  C   UNL     1       2.573   4.838  19.656  0.00  0.00    +0.000 A 
ATOM     14  C   UNL     1       1.427   4.312  20.255  0.00  0.00    +0.000 A 
ATOM     15  C   UNL     1       1.081   3.008  19.956  0.00  0.00    +0.000 A 
ATOM     16  N   UNL     1       1.736   2.241  19.068  0.00  0.00    +0.000 NA
ATOM     17  C   UNL     1       2.792   2.805  18.433  0.00  0.00    +0.000 A 
ATOM     18  C   UNL     1       3.247   4.084  18.694  0.00  0.00    +0.000 A 
ENDBRANCH  12  13
ENDBRANCH   8  12
ENDBRANCH   3   5
BRANCH   1  19
ATOM     19  C   UNL     1      -1.855  12.204  18.751  0.00  0.00    +0.000 C 
BRANCH  19  23
ATOM     20  C   UNL     1      -3.121  12.803  23.330  0.00  0.00    +0.000 C 
ATOM     21  N   UNL     1      -3.582  12.616  21.967  0.00  0.00    +0.000 N 
ATOM     22  N   UNL     1      -2.617  12.468  21.004  0.00  0.00    +0.000 NA
ATOM     23  C   UNL     1      -2.977  12.298  19.767  0.00  0.00    +0.000 A 
ATOM     24  C   UNL     1      -4.392  12.183  19.346  0.00  0.00    +0.000 A 
ATOM     25  C   UNL     1      -4.784  11.874  18.038  0.00  0.00    +0.000 A 
ATOM     26  C   UNL     1      -6.144  11.744  17.730  0.00  0.00    +0.000 A 
ATOM     27  C   UNL     1      -7.112  11.927  18.715  0.00  0.00    +0.000 A 
ATOM     28  C   UNL     1      -6.725  12.240  20.017  0.00  0.00    +0.000 A 
ATOM     29  C   UNL     1      -5.363  12.355  20.331  0.00  0.00    +0.000 A 
ATOM     30  C   UNL     1      -4.952  12.614  21.719  0.00  0.00    +0.000 A 
ATOM     31  O   UNL     1      -5.806  12.792  22.587  0.00  0.00    +0.000 OA
ENDBRANCH  19  23
ENDBRANCH   1  19
TORSDOF 5
ENDMDL
MODEL 4
REMARK VINA RESULT:      -8.6      5.889      7.298
REMARK  Name = 
REMARK  6 active torsions:
REMARK  status: ('A' for Active; 'I' for Inactive)
REMARK    1  A    between atoms: C_1  and  N_2
REMARK    2  A    between atoms: C_4  and  C_5
REMARK    3  A    between atoms: C_5  and  C_6
REMARK    4  A    between atoms: N_8  and  C_9
REMARK    5  A    between atoms: C_12  and  O_13
REMARK    6  A    between atoms: O_13  and  C_14
REMARK                            x       y       z     vdW  Elec       q    Type
REMARK                         _______ _______ _______ _____ _____    ______ ____
ROOT
ATOM      1  C   UNL     1       2.565   4.727  18.263  0.00  0.00    +0.000 C 
ATOM      2  O   UNL     1       1.491   4.461  18.799  0.00  0.00    +0.000 OA
ATOM      3  N   UNL     1       3.057   6.003  18.073  0.00  0.00    +0.000 N 
ATOM      4  H   UNL     1       3.714   6.115  17.301  0.00  0.00    +0.000 HD
ENDROOT
BRANCH   3   5
ATOM      5  C   UNL     1       2.382   7.162  18.512  0.00  0.00    +0.000 A 
ATOM      6  C   UNL     1       2.188   8.189  17.591  0.00  0.00    +0.000 A 
ATOM      7  C   UNL     1       1.596   9.386  17.988  0.00  0.00    +0.000 A 
ATOM      8  C   UNL     1       1.176   9.568  19.319  0.00  0.00    +0.000 A 
ATOM      9  C   UNL     1       1.416   8.547  20.246  0.00  0.00    +0.000 A 
ATOM     10 CL   UNL     1       1.043   8.756  21.921  0.00  0.00    +0.000 Cl
ATOM     11  C   UNL     1       1.991   7.331  19.840  0.00  0.00    +0.000 A 
BRANCH   8  12
ATOM     12  O   UNL     1       0.602  10.745  19.776  0.00  0.00    +0.000 OA
BRANCH  12  13
ATOM     13  C   UNL     1      -0.698  11.042  19.440  0.00  0.00    +0.000 A 
ATOM     14  C   UNL     1      -1.412  10.380  18.438  0.00  0.00    +0.000 A 
ATOM     15  C   UNL     1      -2.686  10.829  18.147  0.00  0.00    +0.000 A 
ATOM     16  N   UNL     1      -3.308  11.813  18.818  0.00  0.00    +0.000 NA
ATOM     17  C   UNL     1      -2.628  12.379  19.845  0.00  0.00    +0.000 A 
ATOM     18  C   UNL     1      -1.334  12.035  20.186  0.00  0.00    +0.000 A 
ENDBRANCH  12  13
ENDBRANCH   8  12
ENDBRANCH   3   5
BRANCH   1  19
ATOM     19  C   UNL     1       3.476   3.626  17.773  0.00  0.00    +0.000 C 
BRANCH  19  23
ATOM     20  C   UNL     1       5.773   3.990  13.588  0.00  0.00    +0.000 C 
ATOM     21  N   UNL     1       5.796   4.297  15.006  0.00  0.00    +0.000 N 
ATOM     22  N   UNL     1       4.737   3.849  15.752  0.00  0.00    +0.000 NA
ATOM     23  C   UNL     1       4.708   4.097  17.026  0.00  0.00    +0.000 A 
ATOM     24  C   UNL     1       5.808   4.786  17.740  0.00  0.00    +0.000 A 
ATOM     25  C   UNL     1       5.844   4.946  19.131  0.00  0.00    +0.000 A 
ATOM     26  C   UNL     1       6.942   5.575  19.732  0.00  0.00    +0.000 A 
ATOM     27  C   UNL     1       7.996   6.050  18.955  0.00  0.00    +0.000 A 
ATOM     28  C   UNL     1       7.961   5.898  17.570  0.00  0.00    +0.000 A 
ATOM     29  C   UNL     1       6.870   5.253  16.968  0.00  0.00    +0.000 A 
ATOM     30  C   UNL     1       6.866   5.029  15.514  0.00  0.00    +0.000 A 
ATOM     31  O   UNL     1       7.789   5.462  14.825  0.00  0.00    +0.000 OA
ENDBRANCH  19  23
ENDBRANCH   1  19
TORSDOF 5
ENDMDL
MODEL 5
REMARK VINA RESULT:      -8.6      7.927     11.253
REMARK  Name = 
REMARK  6 active torsions:
REMARK  status: ('A' for Active; 'I' for Inactive)
REMARK    1  A    between atoms: C_1  and  N_2
REMARK    2  A    between atoms: C_4  and  C_5
REMARK    3  A    between atoms: C_5  and  C_6
REMARK    4  A    between atoms: N_8  and  C_9
REMARK    5  A    between atoms: C_12  and  O_13
REMARK    6  A    between atoms: O_13  and  C_14
REMARK                            x       y       z     vdW  Elec       q    Type
REMARK                         _______ _______ _______ _____ _____    ______ ____
ROOT
ATOM      1  C   UNL     1       0.531  11.293  19.811  0.00  0.00    +0.000 C 
ATOM      2  O   UNL     1       1.030  11.172  20.928  0.00  0.00    +0.000 OA
ATOM      3  N   UNL     1       0.647  10.367  18.793  0.00  0.00    +0.000 N 
ATOM      4  H   UNL     1       0.552  10.735  17.846  0.00  0.00    +0.000 HD
ENDROOT
BRANCH   3   5
ATOM      5  C   UNL     1       1.335   9.144  18.938  0.00  0.00    +0.000 A 
ATOM      6  C   UNL     1       1.168   8.442  20.130  0.00  0.00    +0.000 A 
ATOM      7  C   UNL     1       1.881   7.267  20.359  0.00  0.00    +0.000 A 
ATOM      8  C   UNL     1       2.769   6.770  19.387  0.00  0.00    +0.000 A 
ATOM      9  C   UNL     1       2.963   7.506  18.213  0.00  0.00    +0.000 A 
ATOM     10 CL   UNL     1       4.133   7.020  17.036  0.00  0.00    +0.000 Cl
ATOM     11  C   UNL     1       2.226   8.677  17.971  0.00  0.00    +0.000 A 
BRANCH   8  12
ATOM     12  O   UNL     1       3.521   5.619  19.570  0.00  0.00    +0.000 OA
BRANCH  12  13
ATOM     13  C   UNL     1       3.093   4.433  19.022  0.00  0.00    +0.000 A 
ATOM     14  C   UNL     1       1.756   4.030  18.991  0.00  0.00    +0.000 A 
ATOM     15  C   UNL     1       1.469   2.778  18.482  0.00  0.00    +0.000 A 
ATOM     16  N   UNL     1       2.387   1.956  17.946  0.00  0.00    +0.000 NA
ATOM     17  C   UNL     1       3.665   2.406  17.907  0.00  0.00    +0.000 A 
ATOM     18  C   UNL     1       4.063   3.621  18.431  0.00  0.00    +0.000 A 
ENDBRANCH  12  13
ENDBRANCH   8  12
ENDBRANCH   3   5
BRANCH   1  19
ATOM     19  C   UNL     1      -0.300  12.505  19.463  0.00  0.00    +0.000 C 
BRANCH  19  23
ATOM     20  C   UNL     1      -2.868  10.940  15.738  0.00  0.00    +0.000 C 
ATOM     21  N   UNL     1      -2.900  11.418  17.108  0.00  0.00    +0.000 N 
ATOM     22  N   UNL     1      -1.698  11.766  17.668  0.00  0.00    +0.000 NA
ATOM     23  C   UNL     1      -1.671  12.200  18.892  0.00  0.00    +0.000 A 
ATOM     24  C   UNL     1      -2.893  12.410  19.702  0.00  0.00    +0.000 A 
ATOM     25  C   UNL     1      -2.884  12.995  20.974  0.00  0.00    +0.000 A 
ATOM     26  C   UNL     1      -4.090  13.195  21.658  0.00  0.00    +0.000 A 
ATOM     27  C   UNL     1      -5.299  12.809  21.085  0.00  0.00    +0.000 A 
ATOM     28  C   UNL     1      -5.312  12.221  19.821  0.00  0.00    +0.000 A 
ATOM     29  C   UNL     1      -4.106  12.035  19.128  0.00  0.00    +0.000 A 
ATOM     30  C   UNL     1      -4.126  11.480  17.765  0.00  0.00    +0.000 A 
ATOM     31  O   UNL     1      -5.191  11.123  17.264  0.00  0.00    +0.000 OA
ENDBRANCH  19  23
ENDBRANCH   1  19
TORSDOF 5
ENDMDL
MODEL 6
REMARK VINA RESULT:      -8.6      7.329     10.900
REMARK  Name = 
REMARK  6 active torsions:
REMARK  status: ('A' for Active; 'I' for Inactive)
REMARK    1  A    between atoms: C_1  and  N_2
REMARK    2  A    between atoms: C_4  and  C_5
REMARK    3  A    between atoms: C_5  and  C_6
REMARK    4  A    between atoms: N_8  and  C_9
REMARK    5  A    between atoms: C_12  and  O_13
REMARK    6  A    between atoms: O_13  and  C_14
REMARK                            x       y       z     vdW  Elec       q    Type
REMARK                         _______ _______ _______ _____ _____    ______ ____
ROOT
ATOM      1  C   UNL     1       0.471   9.567  22.357  0.00  0.00    +0.000 C 
ATOM      2  O   UNL     1       1.535   9.423  22.957  0.00  0.00    +0.000 OA
ATOM      3  N   UNL     1       0.193   9.044  21.110  0.00  0.00    +0.000 N 
ATOM      4  H   UNL     1      -0.515   9.540  20.568  0.00  0.00    +0.000 HD
ENDROOT
BRANCH   3   5
ATOM      5  C   UNL     1       1.105   8.243  20.390  0.00  0.00    +0.000 A 
ATOM      6  C   UNL     1       1.619   8.753  19.199  0.00  0.00    +0.000 A 
ATOM      7  C   UNL     1       2.464   7.977  18.409  0.00  0.00    +0.000 A 
ATOM      8  C   UNL     1       2.818   6.674  18.808  0.00  0.00    +0.000 A 
ATOM      9  C   UNL     1       2.260   6.155  19.983  0.00  0.00    +0.000 A 
ATOM     10 CL   UNL     1       2.550   4.520  20.462  0.00  0.00    +0.000 Cl
ATOM     11  C   UNL     1       1.428   6.947  20.791  0.00  0.00    +0.000 A 
BRANCH   8  12
ATOM     12  O   UNL     1       3.635   5.848  18.051  0.00  0.00    +0.000 OA
BRANCH  12  13
ATOM     13  C   UNL     1       5.002   5.961  18.160  0.00  0.00    +0.000 A 
ATOM     14  C   UNL     1       5.757   5.322  19.145  0.00  0.00    +0.000 A 
ATOM     15  C   UNL     1       7.114   5.582  19.191  0.00  0.00    +0.000 A 
ATOM     16  N   UNL     1       7.762   6.351  18.300  0.00  0.00    +0.000 NA
ATOM     17  C   UNL     1       7.021   6.888  17.299  0.00  0.00    +0.000 A 
ATOM     18  C   UNL     1       5.653   6.728  17.192  0.00  0.00    +0.000 A 
ENDBRANCH  12  13
ENDBRANCH   8  12
ENDBRANCH   3   5
BRANCH   1  19
ATOM     19  C   UNL     1      -0.667  10.343  22.977  0.00  0.00    +0.000 C 
BRANCH  19  23
ATOM     20  C   UNL     1       1.290  14.017  20.613  0.00  0.00    +0.000 C 
ATOM     21  N   UNL     1       0.130  13.530  21.335  0.00  0.00    +0.000 N 
ATOM     22  N   UNL     1       0.209  12.260  21.844  0.00  0.00    +0.000 NA
ATOM     23  C   UNL     1      -0.803  11.775  22.499  0.00  0.00    +0.000 A 
ATOM     24  C   UNL     1      -2.026  12.558  22.792  0.00  0.00    +0.000 A 
ATOM     25  C   UNL     1      -3.066  12.089  23.603  0.00  0.00    +0.000 A 
ATOM     26  C   UNL     1      -4.172  12.908  23.863  0.00  0.00    +0.000 A 
ATOM     27  C   UNL     1      -4.248  14.186  23.312  0.00  0.00    +0.000 A 
ATOM     28  C   UNL     1      -3.217  14.654  22.500  0.00  0.00    +0.000 A 
ATOM     29  C   UNL     1      -2.101  13.841  22.252  0.00  0.00    +0.000 A 
ATOM     30  C   UNL     1      -0.981  14.361  21.454  0.00  0.00    +0.000 A 
ATOM     31  O   UNL     1      -1.054  15.483  20.954  0.00  0.00    +0.000 OA
ENDBRANCH  19  23
ENDBRANCH   1  19
TORSDOF 5
ENDMDL
MODEL 7
REMARK VINA RESULT:      -8.5      7.158      8.360
REMARK  Name = 
REMARK  6 active torsions:
REMARK  status: ('A' for Active; 'I' for Inactive)
REMARK    1  A    between atoms: C_1  and  N_2
REMARK    2  A    between atoms: C_4  and  C_5
REMARK    3  A    between atoms: C_5  and  C_6
REMARK    4  A    between atoms: N_8  and  C_9
REMARK    5  A    between atoms: C_12  and  O_13
REMARK    6  A    between atoms: O_13  and  C_14
REMARK                            x       y       z     vdW  Elec       q    Type
REMARK                         _______ _______ _______ _____ _____    ______ ____
ROOT
ATOM      1  C   UNL     1       1.987   8.382  18.573  0.00  0.00    +0.000 C 
ATOM      2  O   UNL     1       2.252   7.963  19.699  0.00  0.00    +0.000 OA
ATOM      3  N   UNL     1       1.139   9.438  18.306  0.00  0.00    +0.000 N 
ATOM      4  H   UNL     1       0.698   9.432  17.386  0.00  0.00    +0.000 HD
ENDROOT
BRANCH   3   5
ATOM      5  C   UNL     1       0.500  10.188  19.316  0.00  0.00    +0.000 A 
ATOM      6  C   UNL     1       0.272  11.542  19.075  0.00  0.00    +0.000 A 
ATOM      7  C   UNL     1      -0.286  12.347  20.066  0.00  0.00    +0.000 A 
ATOM      8  C   UNL     1      -0.637  11.802  21.315  0.00  0.00    +0.000 A 
ATOM      9  C   UNL     1      -0.363  10.452  21.562  0.00  0.00    +0.000 A 
ATOM     10 CL   UNL     1      -0.651   9.752  23.116  0.00  0.00    +0.000 Cl
ATOM     11  C   UNL     1       0.177   9.635  20.555  0.00  0.00    +0.000 A 
BRANCH   8  12
ATOM     12  O   UNL     1      -1.174  12.560  22.345  0.00  0.00    +0.000 OA
BRANCH  12  13
ATOM     13  C   UNL     1      -2.537  12.583  22.533  0.00  0.00    +0.000 A 
ATOM     14  C   UNL     1      -3.461  12.692  21.492  0.00  0.00    +0.000 A 
ATOM     15  C   UNL     1      -4.800  12.783  21.823  0.00  0.00    +0.000 A 
ATOM     16  N   UNL     1      -5.271  12.698  23.079  0.00  0.00    +0.000 NA
ATOM     17  C   UNL     1      -4.361  12.503  24.064  0.00  0.00    +0.000 A 
ATOM     18  C   UNL     1      -2.998  12.445  23.843  0.00  0.00    +0.000 A 
ENDBRANCH  12  13
ENDBRANCH   8  12
ENDBRANCH   3   5
BRANCH   1  19
ATOM     19  C   UNL     1       2.614   7.757  17.349  0.00  0.00    +0.000 C 
BRANCH  19  23
ATOM     20  C   UNL     1       7.261   6.707  17.817  0.00  0.00    +0.000 C 
ATOM     21  N   UNL     1       5.900   6.209  17.887  0.00  0.00    +0.000 N 
ATOM     22  N   UNL     1       4.902   7.098  17.585  0.00  0.00    +0.000 NA
ATOM     23  C   UNL     1       3.665   6.703  17.634  0.00  0.00    +0.000 A 
ATOM     24  C   UNL     1       3.274   5.305  17.932  0.00  0.00    +0.000 A 
ATOM     25  C   UNL     1       1.955   4.842  17.862  0.00  0.00    +0.000 A 
ATOM     26  C   UNL     1       1.675   3.494  18.120  0.00  0.00    +0.000 A 
ATOM     27  C   UNL     1       2.699   2.612  18.454  0.00  0.00    +0.000 A 
ATOM     28  C   UNL     1       4.013   3.070  18.530  0.00  0.00    +0.000 A 
ATOM     29  C   UNL     1       4.298   4.416  18.255  0.00  0.00    +0.000 A 
ATOM     30  C   UNL     1       5.692   4.885  18.265  0.00  0.00    +0.000 A 
ATOM     31  O   UNL     1       6.597   4.110  18.576  0.00  0.00    +0.000 OA
ENDBRANCH  19  23
ENDBRANCH   1  19
TORSDOF 5
ENDMDL
MODEL 8
REMARK VINA RESULT:      -8.5      7.844      9.620
REMARK  Name = 
REMARK  6 active torsions:
REMARK  status: ('A' for Active; 'I' for Inactive)
REMARK    1  A    between atoms: C_1  and  N_2
REMARK    2  A    between atoms: C_4  and  C_5
REMARK    3  A    between atoms: C_5  and  C_6
REMARK    4  A    between atoms: N_8  and  C_9
REMARK    5  A    between atoms: C_12  and  O_13
REMARK    6  A    between atoms: O_13  and  C_14
REMARK                            x       y       z     vdW  Elec       q    Type
REMARK                         _______ _______ _______ _____ _____    ______ ____
ROOT
ATOM      1  C   UNL     1       0.946   8.199  20.487  0.00  0.00    +0.000 C 
ATOM      2  O   UNL     1      -0.033   8.000  21.204  0.00  0.00    +0.000 OA
ATOM      3  N   UNL     1       0.989   9.105  19.446  0.00  0.00    +0.000 N 
ATOM      4  H   UNL     1       1.665   8.902  18.709  0.00  0.00    +0.000 HD
ENDROOT
BRANCH   3   5
ATOM      5  C   UNL     1      -0.096   9.941  19.106  0.00  0.00    +0.000 A 
ATOM      6  C   UNL     1      -0.592  10.794  20.091  0.00  0.00    +0.000 A 
ATOM      7  C   UNL     1      -1.709  11.586  19.835  0.00  0.00    +0.000 A 
ATOM      8  C   UNL     1      -2.343  11.544  18.579  0.00  0.00    +0.000 A 
ATOM      9  C   UNL     1      -1.864  10.651  17.613  0.00  0.00    +0.000 A 
ATOM     10 CL   UNL     1      -2.673  10.455  16.098  0.00  0.00    +0.000 Cl
ATOM     11  C   UNL     1      -0.723   9.870  17.862  0.00  0.00    +0.000 A 
BRANCH   8  12
ATOM     12  O   UNL     1      -3.470  12.292  18.277  0.00  0.00    +0.000 OA
BRANCH  12  13
ATOM     13  C   UNL     1      -4.697  11.898  18.758  0.00  0.00    +0.000 A 
ATOM     14  C   UNL     1      -5.509  10.951  18.131  0.00  0.00    +0.000 A 
ATOM     15  C   UNL     1      -6.754  10.703  18.677  0.00  0.00    +0.000 A 
ATOM     16  N   UNL     1      -7.200  11.259  19.815  0.00  0.00    +0.000 NA
ATOM     17  C   UNL     1      -6.358  12.108  20.454  0.00  0.00    +0.000 A 
ATOM     18  C   UNL     1      -5.112  12.458  19.968  0.00  0.00    +0.000 A 
ENDBRANCH  12  13
ENDBRANCH   8  12
ENDBRANCH   3   5
BRANCH   1  19
ATOM     19  C   UNL     1       2.237   7.450  20.719  0.00  0.00    +0.000 C 
BRANCH  19  23
ATOM     20  C   UNL     1       4.659   6.781  16.644  0.00  0.00    +0.000 C 
ATOM     21  N   UNL     1       3.826   6.172  17.664  0.00  0.00    +0.000 N 
ATOM     22  N   UNL     1       3.384   6.992  18.669  0.00  0.00    +0.000 NA
ATOM     23  C   UNL     1       2.634   6.498  19.608  0.00  0.00    +0.000 A 
ATOM     24  C   UNL     1       2.166   5.093  19.612  0.00  0.00    +0.000 A 
ATOM     25  C   UNL     1       1.258   4.585  20.549  0.00  0.00    +0.000 A 
ATOM     26  C   UNL     1       0.834   3.253  20.458  0.00  0.00    +0.000 A 
ATOM     27  C   UNL     1       1.317   2.426  19.447  0.00  0.00    +0.000 A 
ATOM     28  C   UNL     1       2.226   2.926  18.516  0.00  0.00    +0.000 A 
ATOM     29  C   UNL     1       2.638   4.265  18.595  0.00  0.00    +0.000 A 
ATOM     30  C   UNL     1       3.541   4.812  17.571  0.00  0.00    +0.000 A 
ATOM     31  O   UNL     1       3.981   4.079  16.686  0.00  0.00    +0.000 OA
ENDBRANCH  19  23
ENDBRANCH   1  19
TORSDOF 5
ENDMDL
MODEL 9
REMARK VINA RESULT:      -8.5      7.483     10.432
REMARK  Name = 
REMARK  6 active torsions:
REMARK  status: ('A' for Active; 'I' for Inactive)
REMARK    1  A    between atoms: C_1  and  N_2
REMARK    2  A    between atoms: C_4  and  C_5
REMARK    3  A    between atoms: C_5  and  C_6
REMARK    4  A    between atoms: N_8  and  C_9
REMARK    5  A    between atoms: C_12  and  O_13
REMARK    6  A    between atoms: O_13  and  C_14
REMARK                            x       y       z     vdW  Elec       q    Type
REMARK                         _______ _______ _______ _____ _____    ______ ____
ROOT
ATOM      1  C   UNL     1       1.197  10.779  18.991  0.00  0.00    +0.000 C 
ATOM      2  O   UNL     1       2.155  10.979  18.246  0.00  0.00    +0.000 OA
ATOM      3  N   UNL     1       0.869   9.557  19.542  0.00  0.00    +0.000 N 
ATOM      4  H   UNL     1      -0.112   9.430  19.789  0.00  0.00    +0.000 HD
ENDROOT
BRANCH   3   5
ATOM      5  C   UNL     1       1.633   8.388  19.334  0.00  0.00    +0.000 A 
ATOM      6  C   UNL     1       2.290   8.250  18.112  0.00  0.00    +0.000 A 
ATOM      7  C   UNL     1       2.995   7.085  17.822  0.00  0.00    +0.000 A 
ATOM      8  C   UNL     1       3.064   6.039  18.762  0.00  0.00    +0.000 A 
ATOM      9  C   UNL     1       2.364   6.170  19.967  0.00  0.00    +0.000 A 
ATOM     10 CL   UNL     1       2.300   4.872  21.108  0.00  0.00    +0.000 Cl
ATOM     11  C   UNL     1       1.673   7.354  20.269  0.00  0.00    +0.000 A 
BRANCH   8  12
ATOM     12  O   UNL     1       3.732   4.848  18.518  0.00  0.00    +0.000 OA
BRANCH  12  13
ATOM     13  C   UNL     1       5.024   4.878  18.049  0.00  0.00    +0.000 A 
ATOM     14  C   UNL     1       5.384   4.526  16.746  0.00  0.00    +0.000 A 
ATOM     15  C   UNL     1       6.729   4.524  16.425  0.00  0.00    +0.000 A 
ATOM     16  N   UNL     1       7.703   4.911  17.265  0.00  0.00    +0.000 NA
ATOM     17  C   UNL     1       7.320   5.333  18.495  0.00  0.00    +0.000 A 
ATOM     18  C   UNL     1       6.008   5.329  18.930  0.00  0.00    +0.000 A 
ENDBRANCH  12  13
ENDBRANCH   8  12
ENDBRANCH   3   5
BRANCH   1  19
ATOM     19  C   UNL     1       0.282  11.912  19.392  0.00  0.00    +0.000 C 
BRANCH  19  23
ATOM     20  C   UNL     1      -2.626  10.620  15.815  0.00  0.00    +0.000 C 
ATOM     21  N   UNL     1      -2.536  11.153  17.162  0.00  0.00    +0.000 N 
ATOM     22  N   UNL     1      -1.276  11.330  17.672  0.00  0.00    +0.000 NA
ATOM     23  C   UNL     1      -1.139  11.804  18.873  0.00  0.00    +0.000 A 
ATOM     24  C   UNL     1      -2.284  12.237  19.706  0.00  0.00    +0.000 A 
ATOM     25  C   UNL     1      -2.140  12.866  20.949  0.00  0.00    +0.000 A 
ATOM     26  C   UNL     1      -3.275  13.281  21.657  0.00  0.00    +0.000 A 
ATOM     27  C   UNL     1      -4.549  13.067  21.136  0.00  0.00    +0.000 A 
ATOM     28  C   UNL     1      -4.697  12.437  19.901  0.00  0.00    +0.000 A 
ATOM     29  C   UNL     1      -3.560  12.035  19.184  0.00  0.00    +0.000 A 
ATOM     30  C   UNL     1      -3.713  11.435  17.849  0.00  0.00    +0.000 A 
ATOM     31  O   UNL     1      -4.838  11.230  17.395  0.00  0.00    +0.000 OA
ENDBRANCH  19  23
ENDBRANCH   1  19
TORSDOF 5
ENDMDL
