MODEL 1
REMARK VINA RESULT:      -8.8      0.000      0.000
REMARK  Name = 
REMARK  4 active torsions:
REMARK  status: ('A' for Active; 'I' for Inactive)
REMARK    1  A    between atoms: C_1  and  C_2
REMARK    2  A    between atoms: C_3  and  N_4
REMARK    3  A    between atoms: C_5  and  C_7
REMARK    4  A    between atoms: C_20  and  C_21
REMARK                            x       y       z     vdW  Elec       q    Type
REMARK                         _______ _______ _______ _____ _____    ______ ____
ROOT
ATOM      1  C   UNL     1       0.764  10.197  21.743  0.00  0.00    +0.000 C 
ATOM      2  C   UNL     1       0.175  10.641  20.426  0.00  0.00    +0.000 A 
ATOM      3  C   UNL     1       0.274   9.856  19.250  0.00  0.00    +0.000 A 
ATOM      4  C   UNL     1      -0.511  10.202  18.135  0.00  0.00    +0.000 A 
ATOM      5  C   UNL     1      -1.280  11.359  18.122  0.00  0.00    +0.000 A 
ATOM      6  C   UNL     1      -1.248  12.211  19.217  0.00  0.00    +0.000 A 
ATOM      7  C   UNL     1      -0.548  11.869  20.386  0.00  0.00    +0.000 A 
ENDROOT
BRANCH   7   8
ATOM      8  C   UNL     1      -0.518  12.816  21.522  0.00  0.00    +0.000 A 
ATOM      9  N   UNL     1       0.516  13.576  21.843  0.00  0.00    +0.000 NA
ATOM     10  N   UNL     1       0.182  14.368  22.903  0.00  0.00    +0.000 NA
ATOM     11  C   UNL     1      -1.065  14.110  23.227  0.00  0.00    +0.000 A 
ATOM     12  N   UNL     1      -1.528  13.089  22.427  0.00  0.00    +0.000 N 
ATOM     13  C   UNL     1      -2.817  12.434  22.509  0.00  0.00    +0.000 C 
ATOM     14  C   UNL     1      -3.377  12.290  23.918  0.00  0.00    +0.000 C 
ATOM     15  C   UNL     1      -4.027  13.565  24.450  0.00  0.00    +0.000 C 
ATOM     16  C   UNL     1      -3.326  14.869  24.073  0.00  0.00    +0.000 C 
ATOM     17  C   UNL     1      -1.819  14.826  24.295  0.00  0.00    +0.000 C 
ENDBRANCH   7   8
BRANCH   3  18
ATOM     18  N   UNL     1       1.113   8.734  19.053  0.00  0.00    +0.000 N 
ATOM     19  C   UNL     1       2.169   8.602  18.172  0.00  0.00    +0.000 C 
ATOM     20  O   UNL     1       2.623   9.439  17.407  0.00  0.00    +0.000 OA
ATOM     21  H   UNL     1       0.774   7.836  19.394  0.00  0.00    +0.000 HD
BRANCH  19  22
ATOM     22  C   UNL     1       2.743   7.228  18.101  0.00  0.00    +0.000 A 
ATOM     23  C   UNL     1       3.951   7.048  17.440  0.00  0.00    +0.000 A 
ATOM     24  C   UNL     1       4.368   5.753  17.189  0.00  0.00    +0.000 A 
ATOM     25  C   UNL     1       3.560   4.685  17.592  0.00  0.00    +0.000 A 
ATOM     26  C   UNL     1       3.897   3.364  17.265  0.00  0.00    +0.000 A 
ATOM     27  C   UNL     1       3.061   2.315  17.637  0.00  0.00    +0.000 A 
ATOM     28  C   UNL     1       1.905   2.581  18.363  0.00  0.00    +0.000 A 
ATOM     29  C   UNL     1       1.578   3.898  18.700  0.00  0.00    +0.000 A 
ATOM     30  C   UNL     1       2.372   4.966  18.310  0.00  0.00    +0.000 A 
ATOM     31  N   UNL     1       1.968   6.219  18.586  0.00  0.00    +0.000 NA
ENDBRANCH  19  22
ENDBRANCH   3  18
TORSDOF 3
ENDMDL
MODEL 2
REMARK VINA RESULT:      -8.8      2.991      3.927
REMARK  Name = 
REMARK  4 active torsions:
REMARK  status: ('A' for Active; 'I' for Inactive)
REMARK    1  A    between atoms: C_1  and  C_2
REMARK    2  A    between atoms: C_3  and  N_4
REMARK    3  A    between atoms: C_5  and  C_7
REMARK    4  A    between atoms: C_20  and  C_21
REMARK                            x       y       z     vdW  Elec       q    Type
REMARK                         _______ _______ _______ _____ _____    ______ ____
ROOT
ATOM      1  C   UNL     1      -1.511   9.624  17.530  0.00  0.00    +0.000 C 
ATOM      2  C   UNL     1      -1.113  10.622  18.591  0.00  0.00    +0.000 A 
ATOM      3  C   UNL     1       0.107  10.521  19.305  0.00  0.00    +0.000 A 
ATOM      4  C   UNL     1       0.530  11.613  20.084  0.00  0.00    +0.000 A 
ATOM      5  C   UNL     1      -0.278  12.729  20.267  0.00  0.00    +0.000 A 
ATOM      6  C   UNL     1      -1.543  12.755  19.696  0.00  0.00    +0.000 A 
ATOM      7  C   UNL     1      -1.978  11.728  18.841  0.00  0.00    +0.000 A 
ENDROOT
BRANCH   7   8
ATOM      8  C   UNL     1      -3.343  11.780  18.274  0.00  0.00    +0.000 A 
ATOM      9  N   UNL     1      -3.636  11.593  16.998  0.00  0.00    +0.000 NA
ATOM     10  N   UNL     1      -4.990  11.652  16.833  0.00  0.00    +0.000 NA
ATOM     11  C   UNL     1      -5.535  11.857  18.011  0.00  0.00    +0.000 A 
ATOM     12  N   UNL     1      -4.532  12.011  18.942  0.00  0.00    +0.000 N 
ATOM     13  C   UNL     1      -4.688  12.343  20.343  0.00  0.00    +0.000 C 
ATOM     14  C   UNL     1      -5.843  13.284  20.657  0.00  0.00    +0.000 C 
ATOM     15  C   UNL     1      -7.202  12.589  20.704  0.00  0.00    +0.000 C 
ATOM     16  C   UNL     1      -7.417  11.491  19.663  0.00  0.00    +0.000 C 
ATOM     17  C   UNL     1      -7.004  11.909  18.257  0.00  0.00    +0.000 C 
ENDBRANCH   7   8
BRANCH   3  18
ATOM     18  N   UNL     1       0.974   9.404  19.339  0.00  0.00    +0.000 N 
ATOM     19  C   UNL     1       1.875   8.994  18.375  0.00  0.00    +0.000 C 
ATOM     20  O   UNL     1       2.138   9.530  17.309  0.00  0.00    +0.000 OA
ATOM     21  H   UNL     1       0.759   8.668  20.010  0.00  0.00    +0.000 HD
BRANCH  19  22
ATOM     22  C   UNL     1       2.521   7.679  18.655  0.00  0.00    +0.000 A 
ATOM     23  C   UNL     1       3.430   7.178  17.733  0.00  0.00    +0.000 A 
ATOM     24  C   UNL     1       3.858   5.871  17.887  0.00  0.00    +0.000 A 
ATOM     25  C   UNL     1       3.354   5.108  18.945  0.00  0.00    +0.000 A 
ATOM     26  C   UNL     1       3.684   3.751  19.074  0.00  0.00    +0.000 A 
ATOM     27  C   UNL     1       3.140   2.994  20.108  0.00  0.00    +0.000 A 
ATOM     28  C   UNL     1       2.294   3.597  21.032  0.00  0.00    +0.000 A 
ATOM     29  C   UNL     1       1.978   4.954  20.909  0.00  0.00    +0.000 A 
ATOM     30  C   UNL     1       2.473   5.724  19.868  0.00  0.00    +0.000 A 
ATOM     31  N   UNL     1       2.071   7.001  19.746  0.00  0.00    +0.000 NA
ENDBRANCH  19  22
ENDBRANCH   3  18
TORSDOF 3
ENDMDL
MODEL 3
REMARK VINA RESULT:      -8.4      1.329      1.398
REMARK  Name = 
REMARK  4 active torsions:
REMARK  status: ('A' for Active; 'I' for Inactive)
REMARK    1  A    between atoms: C_1  and  C_2
REMARK    2  A    between atoms: C_3  and  N_4
REMARK    3  A    between atoms: C_5  and  C_7
REMARK    4  A    between atoms: C_20  and  C_21
REMARK                            x       y       z     vdW  Elec       q    Type
REMARK                         _______ _______ _______ _____ _____    ______ ____
ROOT
ATOM      1  C   UNL     1       0.075  11.077  21.423  0.00  0.00    +0.000 C 
ATOM      2  C   UNL     1      -0.515  11.125  20.034  0.00  0.00    +0.000 A 
ATOM      3  C   UNL     1      -0.272  10.111  19.075  0.00  0.00    +0.000 A 
ATOM      4  C   UNL     1      -1.051  10.084  17.903  0.00  0.00    +0.000 A 
ATOM      5  C   UNL     1      -1.957  11.097  17.613  0.00  0.00    +0.000 A 
ATOM      6  C   UNL     1      -2.075  12.174  18.479  0.00  0.00    +0.000 A 
ATOM      7  C   UNL     1      -1.383  12.206  19.702  0.00  0.00    +0.000 A 
ENDROOT
BRANCH   7   8
ATOM      8  C   UNL     1      -1.516  13.384  20.586  0.00  0.00    +0.000 A 
ATOM      9  N   UNL     1      -0.810  14.496  20.471  0.00  0.00    +0.000 NA
ATOM     10  N   UNL     1      -1.227  15.395  21.409  0.00  0.00    +0.000 NA
ATOM     11  C   UNL     1      -2.205  14.845  22.093  0.00  0.00    +0.000 A 
ATOM     12  N   UNL     1      -2.378  13.551  21.654  0.00  0.00    +0.000 N 
ATOM     13  C   UNL     1      -3.286  12.562  22.198  0.00  0.00    +0.000 C 
ATOM     14  C   UNL     1      -3.493  12.636  23.705  0.00  0.00    +0.000 C 
ATOM     15  C   UNL     1      -4.474  13.725  24.133  0.00  0.00    +0.000 C 
ATOM     16  C   UNL     1      -4.398  15.030  23.341  0.00  0.00    +0.000 C 
ATOM     17  C   UNL     1      -2.974  15.541  23.163  0.00  0.00    +0.000 C 
ENDBRANCH   7   8
BRANCH   3  18
ATOM     18  N   UNL     1       0.708   9.093  19.152  0.00  0.00    +0.000 N 
ATOM     19  C   UNL     1       1.817   8.913  18.348  0.00  0.00    +0.000 C 
ATOM     20  O   UNL     1       2.204   9.616  17.427  0.00  0.00    +0.000 OA
ATOM     21  H   UNL     1       0.465   8.253  19.676  0.00  0.00    +0.000 HD
BRANCH  19  22
ATOM     22  C   UNL     1       2.559   7.644  18.597  0.00  0.00    +0.000 A 
ATOM     23  C   UNL     1       3.509   7.239  17.670  0.00  0.00    +0.000 A 
ATOM     24  C   UNL     1       4.035   5.965  17.792  0.00  0.00    +0.000 A 
ATOM     25  C   UNL     1       3.584   5.136  18.824  0.00  0.00    +0.000 A 
ATOM     26  C   UNL     1       4.016   3.805  18.919  0.00  0.00    +0.000 A 
ATOM     27  C   UNL     1       3.525   2.981  19.928  0.00  0.00    +0.000 A 
ATOM     28  C   UNL     1       2.630   3.492  20.860  0.00  0.00    +0.000 A 
ATOM     29  C   UNL     1       2.212   4.823  20.772  0.00  0.00    +0.000 A 
ATOM     30  C   UNL     1       2.653   5.658  19.756  0.00  0.00    +0.000 A 
ATOM     31  N   UNL     1       2.156   6.903  19.667  0.00  0.00    +0.000 NA
ENDBRANCH  19  22
ENDBRANCH   3  18
TORSDOF 3
ENDMDL
MODEL 4
REMARK VINA RESULT:      -8.3      3.896     11.225
REMARK  Name = 
REMARK  4 active torsions:
REMARK  status: ('A' for Active; 'I' for Inactive)
REMARK    1  A    between atoms: C_1  and  C_2
REMARK    2  A    between atoms: C_3  and  N_4
REMARK    3  A    between atoms: C_5  and  C_7
REMARK    4  A    between atoms: C_20  and  C_21
REMARK                            x       y       z     vdW  Elec       q    Type
REMARK                         _______ _______ _______ _____ _____    ______ ____
ROOT
ATOM      1  C   UNL     1       4.517   6.541  15.506  0.00  0.00    +0.000 C 
ATOM      2  C   UNL     1       5.355   5.972  16.627  0.00  0.00    +0.000 A 
ATOM      3  C   UNL     1       4.993   6.117  17.989  0.00  0.00    +0.000 A 
ATOM      4  C   UNL     1       5.669   5.350  18.956  0.00  0.00    +0.000 A 
ATOM      5  C   UNL     1       6.758   4.556  18.618  0.00  0.00    +0.000 A 
ATOM      6  C   UNL     1       7.211   4.542  17.307  0.00  0.00    +0.000 A 
ATOM      7  C   UNL     1       6.520   5.222  16.290  0.00  0.00    +0.000 A 
ENDROOT
BRANCH   7   8
ATOM      8  C   UNL     1       7.049   5.204  14.909  0.00  0.00    +0.000 A 
ATOM      9  N   UNL     1       8.064   5.935  14.480  0.00  0.00    +0.000 NA
ATOM     10  N   UNL     1       8.323   5.628  13.176  0.00  0.00    +0.000 NA
ATOM     11  C   UNL     1       7.478   4.693  12.803  0.00  0.00    +0.000 A 
ATOM     12  N   UNL     1       6.611   4.440  13.842  0.00  0.00    +0.000 N 
ATOM     13  C   UNL     1       5.469   3.548  13.826  0.00  0.00    +0.000 C 
ATOM     14  C   UNL     1       4.731   3.471  12.497  0.00  0.00    +0.000 C 
ATOM     15  C   UNL     1       5.411   2.567  11.471  0.00  0.00    +0.000 C 
ATOM     16  C   UNL     1       6.939   2.619  11.457  0.00  0.00    +0.000 C 
ATOM     17  C   UNL     1       7.490   4.039  11.463  0.00  0.00    +0.000 C 
ENDBRANCH   7   8
BRANCH   3  18
ATOM     18  N   UNL     1       4.007   6.986  18.513  0.00  0.00    +0.000 N 
ATOM     19  C   UNL     1       2.863   6.654  19.214  0.00  0.00    +0.000 C 
ATOM     20  O   UNL     1       2.484   5.545  19.560  0.00  0.00    +0.000 OA
ATOM     21  H   UNL     1       3.973   7.932  18.136  0.00  0.00    +0.000 HD
BRANCH  19  22
ATOM     22  C   UNL     1       1.951   7.802  19.482  0.00  0.00    +0.000 A 
ATOM     23  C   UNL     1       1.845   8.802  18.525  0.00  0.00    +0.000 A 
ATOM     24  C   UNL     1       1.172   9.962  18.868  0.00  0.00    +0.000 A 
ATOM     25  C   UNL     1       0.643  10.088  20.156  0.00  0.00    +0.000 A 
ATOM     26  C   UNL     1       0.045  11.286  20.574  0.00  0.00    +0.000 A 
ATOM     27  C   UNL     1      -0.439  11.411  21.873  0.00  0.00    +0.000 A 
ATOM     28  C   UNL     1      -0.358  10.331  22.745  0.00  0.00    +0.000 A 
ATOM     29  C   UNL     1       0.225   9.132  22.321  0.00  0.00    +0.000 A 
ATOM     30  C   UNL     1       0.751   8.991  21.046  0.00  0.00    +0.000 A 
ATOM     31  N   UNL     1       1.377   7.848  20.717  0.00  0.00    +0.000 NA
ENDBRANCH  19  22
ENDBRANCH   3  18
TORSDOF 3
ENDMDL
MODEL 5
REMARK VINA RESULT:      -8.3      3.009      4.159
REMARK  Name = 
REMARK  4 active torsions:
REMARK  status: ('A' for Active; 'I' for Inactive)
REMARK    1  A    between atoms: C_1  and  C_2
REMARK    2  A    between atoms: C_3  and  N_4
REMARK    3  A    between atoms: C_5  and  C_7
REMARK    4  A    between atoms: C_20  and  C_21
REMARK                            x       y       z     vdW  Elec       q    Type
REMARK                         _______ _______ _______ _____ _____    ______ ____
ROOT
ATOM      1  C   UNL     1      -1.690   9.773  17.515  0.00  0.00    +0.000 C 
ATOM      2  C   UNL     1      -1.281  10.698  18.637  0.00  0.00    +0.000 A 
ATOM      3  C   UNL     1      -0.039  10.571  19.306  0.00  0.00    +0.000 A 
ATOM      4  C   UNL     1       0.385  11.612  20.153  0.00  0.00    +0.000 A 
ATOM      5  C   UNL     1      -0.440  12.692  20.442  0.00  0.00    +0.000 A 
ATOM      6  C   UNL     1      -1.721  12.732  19.910  0.00  0.00    +0.000 A 
ATOM      7  C   UNL     1      -2.161  11.762  18.993  0.00  0.00    +0.000 A 
ENDROOT
BRANCH   7   8
ATOM      8  C   UNL     1      -3.542  11.825  18.469  0.00  0.00    +0.000 A 
ATOM      9  N   UNL     1      -3.875  11.675  17.198  0.00  0.00    +0.000 NA
ATOM     10  N   UNL     1      -5.233  11.733  17.076  0.00  0.00    +0.000 NA
ATOM     11  C   UNL     1      -5.742  11.902  18.276  0.00  0.00    +0.000 A 
ATOM     12  N   UNL     1      -4.711  12.032  19.180  0.00  0.00    +0.000 N 
ATOM     13  C   UNL     1      -4.825  12.324  20.594  0.00  0.00    +0.000 C 
ATOM     14  C   UNL     1      -5.972  13.251  20.971  0.00  0.00    +0.000 C 
ATOM     15  C   UNL     1      -7.327  12.550  21.039  0.00  0.00    +0.000 C 
ATOM     16  C   UNL     1      -7.571  11.482  19.973  0.00  0.00    +0.000 C 
ATOM     17  C   UNL     1      -7.203  11.941  18.568  0.00  0.00    +0.000 C 
ENDBRANCH   7   8
BRANCH   3  18
ATOM     18  N   UNL     1       0.852   9.474  19.232  0.00  0.00    +0.000 N 
ATOM     19  C   UNL     1       1.829   9.231  18.286  0.00  0.00    +0.000 C 
ATOM     20  O   UNL     1       2.153   9.930  17.338  0.00  0.00    +0.000 OA
ATOM     21  H   UNL     1       0.608   8.641  19.764  0.00  0.00    +0.000 HD
BRANCH  19  22
ATOM     22  C   UNL     1       2.486   7.898  18.407  0.00  0.00    +0.000 A 
ATOM     23  C   UNL     1       2.226   7.132  19.536  0.00  0.00    +0.000 A 
ATOM     24  C   UNL     1       2.999   6.003  19.747  0.00  0.00    +0.000 A 
ATOM     25  C   UNL     1       4.010   5.688  18.835  0.00  0.00    +0.000 A 
ATOM     26  C   UNL     1       4.880   4.612  19.068  0.00  0.00    +0.000 A 
ATOM     27  C   UNL     1       5.908   4.337  18.172  0.00  0.00    +0.000 A 
ATOM     28  C   UNL     1       6.050   5.113  17.027  0.00  0.00    +0.000 A 
ATOM     29  C   UNL     1       5.173   6.175  16.789  0.00  0.00    +0.000 A 
ATOM     30  C   UNL     1       4.163   6.498  17.683  0.00  0.00    +0.000 A 
ATOM     31  N   UNL     1       3.401   7.581  17.450  0.00  0.00    +0.000 NA
ENDBRANCH  19  22
ENDBRANCH   3  18
TORSDOF 3
ENDMDL
MODEL 6
REMARK VINA RESULT:      -8.3      1.787      2.663
REMARK  Name = 
REMARK  4 active torsions:
REMARK  status: ('A' for Active; 'I' for Inactive)
REMARK    1  A    between atoms: C_1  and  C_2
REMARK    2  A    between atoms: C_3  and  N_4
REMARK    3  A    between atoms: C_5  and  C_7
REMARK    4  A    between atoms: C_20  and  C_21
REMARK                            x       y       z     vdW  Elec       q    Type
REMARK                         _______ _______ _______ _____ _____    ______ ____
ROOT
ATOM      1  C   UNL     1      -0.590   9.422  20.142  0.00  0.00    +0.000 C 
ATOM      2  C   UNL     1       0.379  10.502  19.725  0.00  0.00    +0.000 A 
ATOM      3  C   UNL     1       1.399  10.273  18.768  0.00  0.00    +0.000 A 
ATOM      4  C   UNL     1       2.093  11.377  18.238  0.00  0.00    +0.000 A 
ATOM      5  C   UNL     1       1.887  12.662  18.724  0.00  0.00    +0.000 A 
ATOM      6  C   UNL     1       1.003  12.860  19.775  0.00  0.00    +0.000 A 
ATOM      7  C   UNL     1       0.224  11.805  20.280  0.00  0.00    +0.000 A 
ENDROOT
BRANCH   7   8
ATOM      8  C   UNL     1      -0.688  12.051  21.418  0.00  0.00    +0.000 A 
ATOM      9  N   UNL     1      -0.388  11.830  22.687  0.00  0.00    +0.000 NA
ATOM     10  N   UNL     1      -1.434  12.220  23.473  0.00  0.00    +0.000 NA
ATOM     11  C   UNL     1      -2.374  12.700  22.691  0.00  0.00    +0.000 A 
ATOM     12  N   UNL     1      -1.977  12.554  21.380  0.00  0.00    +0.000 N 
ATOM     13  C   UNL     1      -2.750  12.867  20.196  0.00  0.00    +0.000 C 
ATOM     14  C   UNL     1      -4.247  12.620  20.320  0.00  0.00    +0.000 C 
ATOM     15  C   UNL     1      -4.990  13.731  21.060  0.00  0.00    +0.000 C 
ATOM     16  C   UNL     1      -4.249  14.341  22.249  0.00  0.00    +0.000 C 
ATOM     17  C   UNL     1      -3.648  13.297  23.181  0.00  0.00    +0.000 C 
ENDBRANCH   7   8
BRANCH   3  18
ATOM     18  N   UNL     1       1.828   9.018  18.275  0.00  0.00    +0.000 N 
ATOM     19  C   UNL     1       2.197   7.899  18.996  0.00  0.00    +0.000 C 
ATOM     20  O   UNL     1       2.194   7.747  20.208  0.00  0.00    +0.000 OA
ATOM     21  H   UNL     1       2.149   8.983  17.309  0.00  0.00    +0.000 HD
BRANCH  19  22
ATOM     22  C   UNL     1       2.753   6.790  18.170  0.00  0.00    +0.000 A 
ATOM     23  C   UNL     1       2.211   5.520  18.314  0.00  0.00    +0.000 A 
ATOM     24  C   UNL     1       2.868   4.460  17.712  0.00  0.00    +0.000 A 
ATOM     25  C   UNL     1       4.048   4.703  17.003  0.00  0.00    +0.000 A 
ATOM     26  C   UNL     1       4.797   3.645  16.467  0.00  0.00    +0.000 A 
ATOM     27  C   UNL     1       5.991   3.900  15.800  0.00  0.00    +0.000 A 
ATOM     28  C   UNL     1       6.423   5.211  15.638  0.00  0.00    +0.000 A 
ATOM     29  C   UNL     1       5.668   6.266  16.160  0.00  0.00    +0.000 A 
ATOM     30  C   UNL     1       4.494   6.041  16.863  0.00  0.00    +0.000 A 
ATOM     31  N   UNL     1       3.850   7.082  17.418  0.00  0.00    +0.000 NA
ENDBRANCH  19  22
ENDBRANCH   3  18
TORSDOF 3
ENDMDL
MODEL 7
REMARK VINA RESULT:      -8.2      2.990      3.886
REMARK  Name = 
REMARK  4 active torsions:
REMARK  status: ('A' for Active; 'I' for Inactive)
REMARK    1  A    between atoms: C_1  and  C_2
REMARK    2  A    between atoms: C_3  and  N_4
REMARK    3  A    between atoms: C_5  and  C_7
REMARK    4  A    between atoms: C_20  and  C_21
REMARK                            x       y       z     vdW  Elec       q    Type
REMARK                         _______ _______ _______ _____ _____    ______ ____
ROOT
ATOM      1  C   UNL     1      -2.148   9.716  17.352  0.00  0.00    +0.000 C 
ATOM      2  C   UNL     1      -1.516  10.783  18.213  0.00  0.00    +0.000 A 
ATOM      3  C   UNL     1      -0.158  10.723  18.615  0.00  0.00    +0.000 A 
ATOM      4  C   UNL     1       0.430  11.865  19.191  0.00  0.00    +0.000 A 
ATOM      5  C   UNL     1      -0.322  12.996  19.486  0.00  0.00    +0.000 A 
ATOM      6  C   UNL     1      -1.687  12.991  19.238  0.00  0.00    +0.000 A 
ATOM      7  C   UNL     1      -2.306  11.909  18.587  0.00  0.00    +0.000 A 
ENDROOT
BRANCH   7   8
ATOM      8  C   UNL     1      -3.767  11.931  18.364  0.00  0.00    +0.000 A 
ATOM      9  N   UNL     1      -4.353  11.804  17.185  0.00  0.00    +0.000 NA
ATOM     10  N   UNL     1      -5.707  11.810  17.350  0.00  0.00    +0.000 NA
ATOM     11  C   UNL     1      -5.960  11.923  18.635  0.00  0.00    +0.000 A 
ATOM     12  N   UNL     1      -4.768  12.069  19.309  0.00  0.00    +0.000 N 
ATOM     13  C   UNL     1      -4.594  12.314  20.726  0.00  0.00    +0.000 C 
ATOM     14  C   UNL     1      -5.668  13.182  21.367  0.00  0.00    +0.000 C 
ATOM     15  C   UNL     1      -6.954  12.425  21.688  0.00  0.00    +0.000 C 
ATOM     16  C   UNL     1      -7.379  11.379  20.658  0.00  0.00    +0.000 C 
ATOM     17  C   UNL     1      -7.328  11.893  19.225  0.00  0.00    +0.000 C 
ENDBRANCH   7   8
BRANCH   3  18
ATOM     18  N   UNL     1       0.703   9.605  18.516  0.00  0.00    +0.000 N 
ATOM     19  C   UNL     1       1.251   8.857  19.541  0.00  0.00    +0.000 C 
ATOM     20  O   UNL     1       1.076   8.981  20.744  0.00  0.00    +0.000 OA
ATOM     21  H   UNL     1       1.188   9.469  17.631  0.00  0.00    +0.000 HD
BRANCH  19  22
ATOM     22  C   UNL     1       2.249   7.842  19.096  0.00  0.00    +0.000 A 
ATOM     23  C   UNL     1       2.927   8.059  17.905  0.00  0.00    +0.000 A 
ATOM     24  C   UNL     1       3.685   7.021  17.391  0.00  0.00    +0.000 A 
ATOM     25  C   UNL     1       3.727   5.802  18.075  0.00  0.00    +0.000 A 
ATOM     26  C   UNL     1       4.399   4.696  17.534  0.00  0.00    +0.000 A 
ATOM     27  C   UNL     1       4.395   3.477  18.207  0.00  0.00    +0.000 A 
ATOM     28  C   UNL     1       3.750   3.370  19.434  0.00  0.00    +0.000 A 
ATOM     29  C   UNL     1       3.093   4.478  19.978  0.00  0.00    +0.000 A 
ATOM     30  C   UNL     1       3.046   5.694  19.313  0.00  0.00    +0.000 A 
ATOM     31  N   UNL     1       2.330   6.703  19.838  0.00  0.00    +0.000 NA
ENDBRANCH  19  22
ENDBRANCH   3  18
TORSDOF 3
ENDMDL
MODEL 8
REMARK VINA RESULT:      -8.2      2.529      3.537
REMARK  Name = 
REMARK  4 active torsions:
REMARK  status: ('A' for Active; 'I' for Inactive)
REMARK    1  A    between atoms: C_1  and  C_2
REMARK    2  A    between atoms: C_3  and  N_4
REMARK    3  A    between atoms: C_5  and  C_7
REMARK    4  A    between atoms: C_20  and  C_21
REMARK                            x       y       z     vdW  Elec       q    Type
REMARK                         _______ _______ _______ _____ _____    ______ ____
ROOT
ATOM      1  C   UNL     1       1.063  11.577  20.890  0.00  0.00    +0.000 C 
ATOM      2  C   UNL     1       0.211  11.390  19.658  0.00  0.00    +0.000 A 
ATOM      3  C   UNL     1       0.158  10.160  18.955  0.00  0.00    +0.000 A 
ATOM      4  C   UNL     1      -0.841   9.977  17.981  0.00  0.00    +0.000 A 
ATOM      5  C   UNL     1      -1.688  11.014  17.610  0.00  0.00    +0.000 A 
ATOM      6  C   UNL     1      -1.526  12.266  18.186  0.00  0.00    +0.000 A 
ATOM      7  C   UNL     1      -0.601  12.478  19.222  0.00  0.00    +0.000 A 
ENDROOT
BRANCH   7   8
ATOM      8  C   UNL     1      -0.440  13.833  19.792  0.00  0.00    +0.000 A 
ATOM      9  N   UNL     1      -1.316  14.426  20.586  0.00  0.00    +0.000 NA
ATOM     10  N   UNL     1      -0.826  15.640  20.972  0.00  0.00    +0.000 NA
ATOM     11  C   UNL     1       0.362  15.790  20.431  0.00  0.00    +0.000 A 
ATOM     12  N   UNL     1       0.621  14.705  19.623  0.00  0.00    +0.000 N 
ATOM     13  C   UNL     1       1.775  14.510  18.770  0.00  0.00    +0.000 C 
ATOM     14  C   UNL     1       2.329  15.778  18.135  0.00  0.00    +0.000 C 
ATOM     15  C   UNL     1       3.205  16.600  19.078  0.00  0.00    +0.000 C 
ATOM     16  C   UNL     1       2.738  16.655  20.532  0.00  0.00    +0.000 C 
ATOM     17  C   UNL     1       1.252  16.960  20.675  0.00  0.00    +0.000 C 
ENDBRANCH   7   8
BRANCH   3  18
ATOM     18  N   UNL     1       1.032   9.059  19.114  0.00  0.00    +0.000 N 
ATOM     19  C   UNL     1       2.019   8.622  18.250  0.00  0.00    +0.000 C 
ATOM     20  O   UNL     1       2.366   9.116  17.188  0.00  0.00    +0.000 OA
ATOM     21  H   UNL     1       0.768   8.351  19.796  0.00  0.00    +0.000 HD
BRANCH  19  22
ATOM     22  C   UNL     1       2.653   7.332  18.643  0.00  0.00    +0.000 A 
ATOM     23  C   UNL     1       3.620   6.788  17.809  0.00  0.00    +0.000 A 
ATOM     24  C   UNL     1       4.046   5.495  18.063  0.00  0.00    +0.000 A 
ATOM     25  C   UNL     1       3.481   4.788  19.129  0.00  0.00    +0.000 A 
ATOM     26  C   UNL     1       3.810   3.443  19.355  0.00  0.00    +0.000 A 
ATOM     27  C   UNL     1       3.208   2.741  20.395  0.00  0.00    +0.000 A 
ATOM     28  C   UNL     1       2.303   3.387  21.229  0.00  0.00    +0.000 A 
ATOM     29  C   UNL     1       1.987   4.731  21.011  0.00  0.00    +0.000 A 
ATOM     30  C   UNL     1       2.541   5.447  19.960  0.00  0.00    +0.000 A 
ATOM     31  N   UNL     1       2.140   6.711  19.742  0.00  0.00    +0.000 NA
ENDBRANCH  19  22
ENDBRANCH   3  18
TORSDOF 3
ENDMDL
MODEL 9
REMARK VINA RESULT:      -8.2      2.569     10.202
REMARK  Name = 
REMARK  4 active torsions:
REMARK  status: ('A' for Active; 'I' for Inactive)
REMARK    1  A    between atoms: C_1  and  C_2
REMARK    2  A    between atoms: C_3  and  N_4
REMARK    3  A    between atoms: C_5  and  C_7
REMARK    4  A    between atoms: C_20  and  C_21
REMARK                            x       y       z     vdW  Elec       q    Type
REMARK                         _______ _______ _______ _____ _____    ______ ____
ROOT
ATOM      1  C   UNL     1       3.518   7.626  18.342  0.00  0.00    +0.000 C 
ATOM      2  C   UNL     1       3.022   6.640  19.372  0.00  0.00    +0.000 A 
ATOM      3  C   UNL     1       1.830   6.853  20.109  0.00  0.00    +0.000 A 
ATOM      4  C   UNL     1       1.294   5.787  20.855  0.00  0.00    +0.000 A 
ATOM      5  C   UNL     1       1.971   4.581  20.984  0.00  0.00    +0.000 A 
ATOM      6  C   UNL     1       3.218   4.433  20.392  0.00  0.00    +0.000 A 
ATOM      7  C   UNL     1       3.757   5.435  19.568  0.00  0.00    +0.000 A 
ENDROOT
BRANCH   7   8
ATOM      8  C   UNL     1       5.100   5.250  18.977  0.00  0.00    +0.000 A 
ATOM      9  N   UNL     1       6.226   5.185  19.667  0.00  0.00    +0.000 NA
ATOM     10  N   UNL     1       7.266   4.952  18.815  0.00  0.00    +0.000 NA
ATOM     11  C   UNL     1       6.781   4.854  17.598  0.00  0.00    +0.000 A 
ATOM     12  N   UNL     1       5.426   5.101  17.640  0.00  0.00    +0.000 N 
ATOM     13  C   UNL     1       4.521   5.184  16.513  0.00  0.00    +0.000 C 
ATOM     14  C   UNL     1       5.121   5.778  15.246  0.00  0.00    +0.000 C 
ATOM     15  C   UNL     1       5.970   4.787  14.451  0.00  0.00    +0.000 C 
ATOM     16  C   UNL     1       6.821   3.830  15.284  0.00  0.00    +0.000 C 
ATOM     17  C   UNL     1       7.596   4.528  16.394  0.00  0.00    +0.000 C 
ENDBRANCH   7   8
BRANCH   3  18
ATOM     18  N   UNL     1       1.096   8.059  20.198  0.00  0.00    +0.000 N 
ATOM     19  C   UNL     1       1.061   8.962  21.244  0.00  0.00    +0.000 C 
ATOM     20  O   UNL     1       1.685   8.925  22.294  0.00  0.00    +0.000 OA
ATOM     21  H   UNL     1       0.315   8.177  19.555  0.00  0.00    +0.000 HD
BRANCH  19  22
ATOM     22  C   UNL     1       0.058  10.052  21.083  0.00  0.00    +0.000 A 
ATOM     23  C   UNL     1      -0.475  10.281  19.821  0.00  0.00    +0.000 A 
ATOM     24  C   UNL     1      -1.235  11.423  19.634  0.00  0.00    +0.000 A 
ATOM     25  C   UNL     1      -1.422  12.302  20.705  0.00  0.00    +0.000 A 
ATOM     26  C   UNL     1      -2.097  13.519  20.528  0.00  0.00    +0.000 A 
ATOM     27  C   UNL     1      -2.238  14.402  21.594  0.00  0.00    +0.000 A 
ATOM     28  C   UNL     1      -1.735  14.059  22.844  0.00  0.00    +0.000 A 
ATOM     29  C   UNL     1      -1.075  12.839  23.022  0.00  0.00    +0.000 A 
ATOM     30  C   UNL     1      -0.885  11.955  21.970  0.00  0.00    +0.000 A 
ATOM     31  N   UNL     1      -0.170  10.836  22.173  0.00  0.00    +0.000 NA
ENDBRANCH  19  22
ENDBRANCH   3  18
TORSDOF 3
ENDMDL
