MODEL 1
REMARK VINA RESULT:      -9.1      0.000      0.000
REMARK  Name = 
REMARK  4 active torsions:
REMARK  status: ('A' for Active; 'I' for Inactive)
REMARK    1  A    between atoms: C_1  and  C_2
REMARK    2  A    between atoms: C_5  and  N_6
REMARK    3  A    between atoms: C_7  and  C_9
REMARK    4  A    between atoms: C_19  and  N_20
REMARK                            x       y       z     vdW  Elec       q    Type
REMARK                         _______ _______ _______ _____ _____    ______ ____
ROOT
ATOM      1  C   UNL     1       4.047   2.402  19.582  0.00  0.00    +0.000 C 
ATOM      2  C   UNL     1       3.496   3.803  19.632  0.00  0.00    +0.000 A 
ATOM      3  C   UNL     1       2.307   4.012  20.336  0.00  0.00    +0.000 A 
ATOM      4  C   UNL     1       1.792   5.297  20.517  0.00  0.00    +0.000 A 
ATOM      5  C   UNL     1       2.453   6.416  20.014  0.00  0.00    +0.000 A 
ATOM      6  C   UNL     1       3.658   6.217  19.314  0.00  0.00    +0.000 A 
ATOM      7  C   UNL     1       4.166   4.915  19.086  0.00  0.00    +0.000 A 
ENDROOT
BRANCH   7   8
ATOM      8  N   UNL     1       5.351   4.741  18.337  0.00  0.00    +0.000 N 
ATOM      9  C   UNL     1       6.621   4.973  18.801  0.00  0.00    +0.000 C 
ATOM     10  O   UNL     1       6.959   5.404  19.896  0.00  0.00    +0.000 OA
ATOM     11  C   UNL     1       7.607   4.534  17.726  0.00  0.00    +0.000 C 
ATOM     12  N   UNL     1       6.718   4.157  16.670  0.00  0.00    +0.000 N 
ATOM     13  C   UNL     1       5.397   4.291  17.038  0.00  0.00    +0.000 C 
ATOM     14  O   UNL     1       4.480   4.079  16.259  0.00  0.00    +0.000 OA
ATOM     15  H   UNL     1       6.973   3.861  15.735  0.00  0.00    +0.000 HD
ENDBRANCH   7   8
BRANCH   5  16
ATOM     16  N   UNL     1       1.965   7.741  20.183  0.00  0.00    +0.000 N 
ATOM     17  C   UNL     1       1.604   8.635  19.175  0.00  0.00    +0.000 C 
ATOM     18  O   UNL     1       1.752   8.413  17.977  0.00  0.00    +0.000 OA
ATOM     19  H   UNL     1       1.919   8.075  21.136  0.00  0.00    +0.000 HD
BRANCH  17  20
ATOM     20  C   UNL     1       1.032   9.887  19.629  0.00  0.00    +0.000 A 
ATOM     21  C   UNL     1       1.069  11.149  19.060  0.00  0.00    +0.000 A 
ATOM     22  N   UNL     1       0.454  12.089  19.841  0.00  0.00    +0.000 NA
ATOM     23  C   UNL     1       0.049  11.439  20.908  0.00  0.00    +0.000 A 
ATOM     24  C   UNL     1      -0.624  11.903  22.077  0.00  0.00    +0.000 A 
ATOM     25  C   UNL     1      -0.956  11.036  23.053  0.00  0.00    +0.000 A 
ATOM     26  C   UNL     1      -0.646   9.623  22.940  0.00  0.00    +0.000 A 
ATOM     27  C   UNL     1      -0.002   9.180  21.846  0.00  0.00    +0.000 A 
ATOM     28  N   UNL     1       0.359  10.080  20.835  0.00  0.00    +0.000 N 
ENDBRANCH  17  20
ENDBRANCH   5  16
TORSDOF 3
ENDMDL
MODEL 2
REMARK VINA RESULT:      -9.0      1.721      2.127
REMARK  Name = 
REMARK  4 active torsions:
REMARK  status: ('A' for Active; 'I' for Inactive)
REMARK    1  A    between atoms: C_1  and  C_2
REMARK    2  A    between atoms: C_5  and  N_6
REMARK    3  A    between atoms: C_7  and  C_9
REMARK    4  A    between atoms: C_19  and  N_20
REMARK                            x       y       z     vdW  Elec       q    Type
REMARK                         _______ _______ _______ _____ _____    ______ ____
ROOT
ATOM      1  C   UNL     1       4.150   2.760  19.900  0.00  0.00    +0.000 C 
ATOM      2  C   UNL     1       3.545   4.128  19.718  0.00  0.00    +0.000 A 
ATOM      3  C   UNL     1       2.348   4.407  20.383  0.00  0.00    +0.000 A 
ATOM      4  C   UNL     1       1.785   5.683  20.349  0.00  0.00    +0.000 A 
ATOM      5  C   UNL     1       2.403   6.727  19.663  0.00  0.00    +0.000 A 
ATOM      6  C   UNL     1       3.616   6.459  19.001  0.00  0.00    +0.000 A 
ATOM      7  C   UNL     1       4.173   5.158  18.991  0.00  0.00    +0.000 A 
ENDROOT
BRANCH   7   8
ATOM      8  N   UNL     1       5.365   4.907  18.275  0.00  0.00    +0.000 N 
ATOM      9  C   UNL     1       6.634   5.085  18.765  0.00  0.00    +0.000 C 
ATOM     10  O   UNL     1       6.968   5.524  19.858  0.00  0.00    +0.000 OA
ATOM     11  C   UNL     1       7.621   4.571  17.725  0.00  0.00    +0.000 C 
ATOM     12  N   UNL     1       6.740   4.214  16.656  0.00  0.00    +0.000 N 
ATOM     13  C   UNL     1       5.418   4.424  16.988  0.00  0.00    +0.000 C 
ATOM     14  O   UNL     1       4.511   4.240  16.192  0.00  0.00    +0.000 OA
ATOM     15  H   UNL     1       7.001   3.884  15.735  0.00  0.00    +0.000 HD
ENDBRANCH   7   8
BRANCH   5  16
ATOM     16  N   UNL     1       1.864   8.042  19.611  0.00  0.00    +0.000 N 
ATOM     17  C   UNL     1       1.738   8.850  18.481  0.00  0.00    +0.000 C 
ATOM     18  O   UNL     1       2.171   8.551  17.373  0.00  0.00    +0.000 OA
ATOM     19  H   UNL     1       1.586   8.439  20.498  0.00  0.00    +0.000 HD
BRANCH  17  20
ATOM     20  C   UNL     1       1.051  10.109  18.691  0.00  0.00    +0.000 A 
ATOM     21  C   UNL     1       1.449  11.245  19.378  0.00  0.00    +0.000 A 
ATOM     22  N   UNL     1       0.478  12.207  19.396  0.00  0.00    +0.000 NA
ATOM     23  C   UNL     1      -0.539  11.684  18.750  0.00  0.00    +0.000 A 
ATOM     24  C   UNL     1      -1.837  12.210  18.480  0.00  0.00    +0.000 A 
ATOM     25  C   UNL     1      -2.726  11.484  17.775  0.00  0.00    +0.000 A 
ATOM     26  C   UNL     1      -2.388  10.166  17.271  0.00  0.00    +0.000 A 
ATOM     27  C   UNL     1      -1.170   9.658  17.531  0.00  0.00    +0.000 A 
ATOM     28  N   UNL     1      -0.247  10.403  18.277  0.00  0.00    +0.000 N 
ENDBRANCH  17  20
ENDBRANCH   5  16
TORSDOF 3
ENDMDL
MODEL 3
REMARK VINA RESULT:      -9.0      1.092      1.742
REMARK  Name = 
REMARK  4 active torsions:
REMARK  status: ('A' for Active; 'I' for Inactive)
REMARK    1  A    between atoms: C_1  and  C_2
REMARK    2  A    between atoms: C_5  and  N_6
REMARK    3  A    between atoms: C_7  and  C_9
REMARK    4  A    between atoms: C_19  and  N_20
REMARK                            x       y       z     vdW  Elec       q    Type
REMARK                         _______ _______ _______ _____ _____    ______ ____
ROOT
ATOM      1  C   UNL     1       4.091   1.976  19.283  0.00  0.00    +0.000 C 
ATOM      2  C   UNL     1       3.477   3.322  19.566  0.00  0.00    +0.000 A 
ATOM      3  C   UNL     1       2.310   3.358  20.336  0.00  0.00    +0.000 A 
ATOM      4  C   UNL     1       1.744   4.571  20.730  0.00  0.00    +0.000 A 
ATOM      5  C   UNL     1       2.328   5.788  20.382  0.00  0.00    +0.000 A 
ATOM      6  C   UNL     1       3.511   5.761  19.618  0.00  0.00    +0.000 A 
ATOM      7  C   UNL     1       4.069   4.538  19.175  0.00  0.00    +0.000 A 
ENDROOT
BRANCH   7   8
ATOM      8  N   UNL     1       5.228   4.544  18.367  0.00  0.00    +0.000 N 
ATOM      9  C   UNL     1       6.490   4.874  18.795  0.00  0.00    +0.000 C 
ATOM     10  O   UNL     1       6.835   5.258  19.905  0.00  0.00    +0.000 OA
ATOM     11  C   UNL     1       7.461   4.618  17.650  0.00  0.00    +0.000 C 
ATOM     12  N   UNL     1       6.565   4.227  16.606  0.00  0.00    +0.000 N 
ATOM     13  C   UNL     1       5.257   4.195  17.037  0.00  0.00    +0.000 C 
ATOM     14  O   UNL     1       4.330   3.944  16.282  0.00  0.00    +0.000 OA
ATOM     15  H   UNL     1       6.803   4.027  15.642  0.00  0.00    +0.000 HD
ENDBRANCH   7   8
BRANCH   5  16
ATOM     16  N   UNL     1       1.786   7.043  20.770  0.00  0.00    +0.000 N 
ATOM     17  C   UNL     1       1.637   8.174  19.967  0.00  0.00    +0.000 C 
ATOM     18  O   UNL     1       2.051   8.256  18.815  0.00  0.00    +0.000 OA
ATOM     19  H   UNL     1       1.523   7.128  21.742  0.00  0.00    +0.000 HD
BRANCH  17  20
ATOM     20  C   UNL     1       0.952   9.291  20.587  0.00  0.00    +0.000 A 
ATOM     21  C   UNL     1       1.001   9.764  21.888  0.00  0.00    +0.000 A 
ATOM     22  N   UNL     1       0.148  10.814  22.091  0.00  0.00    +0.000 NA
ATOM     23  C   UNL     1      -0.458  10.994  20.940  0.00  0.00    +0.000 A 
ATOM     24  C   UNL     1      -1.472  11.923  20.560  0.00  0.00    +0.000 A 
ATOM     25  C   UNL     1      -1.940  11.932  19.298  0.00  0.00    +0.000 A 
ATOM     26  C   UNL     1      -1.426  11.011  18.300  0.00  0.00    +0.000 A 
ATOM     27  C   UNL     1      -0.479  10.126  18.652  0.00  0.00    +0.000 A 
ATOM     28  N   UNL     1       0.001  10.102  19.969  0.00  0.00    +0.000 N 
ENDBRANCH  17  20
ENDBRANCH   5  16
TORSDOF 3
ENDMDL
MODEL 4
REMARK VINA RESULT:      -9.0      0.488      1.500
REMARK  Name = 
REMARK  4 active torsions:
REMARK  status: ('A' for Active; 'I' for Inactive)
REMARK    1  A    between atoms: C_1  and  C_2
REMARK    2  A    between atoms: C_5  and  N_6
REMARK    3  A    between atoms: C_7  and  C_9
REMARK    4  A    between atoms: C_19  and  N_20
REMARK                            x       y       z     vdW  Elec       q    Type
REMARK                         _______ _______ _______ _____ _____    ______ ____
ROOT
ATOM      1  C   UNL     1       4.183   2.309  19.192  0.00  0.00    +0.000 C 
ATOM      2  C   UNL     1       3.621   3.702  19.308  0.00  0.00    +0.000 A 
ATOM      3  C   UNL     1       2.410   3.863  19.987  0.00  0.00    +0.000 A 
ATOM      4  C   UNL     1       1.882   5.132  20.229  0.00  0.00    +0.000 A 
ATOM      5  C   UNL     1       2.549   6.283  19.813  0.00  0.00    +0.000 A 
ATOM      6  C   UNL     1       3.776   6.132  19.139  0.00  0.00    +0.000 A 
ATOM      7  C   UNL     1       4.299   4.848  18.850  0.00  0.00    +0.000 A 
ENDROOT
BRANCH   7   8
ATOM      8  N   UNL     1       5.507   4.726  18.127  0.00  0.00    +0.000 N 
ATOM      9  C   UNL     1       5.605   4.382  16.802  0.00  0.00    +0.000 C 
ATOM     10  O   UNL     1       4.704   4.081  16.031  0.00  0.00    +0.000 OA
ATOM     11  C   UNL     1       7.067   4.498  16.389  0.00  0.00    +0.000 C 
ATOM     12  N   UNL     1       7.683   4.835  17.635  0.00  0.00    +0.000 N 
ATOM     13  C   UNL     1       6.758   4.958  18.650  0.00  0.00    +0.000 C 
ATOM     14  O   UNL     1       7.086   5.181  19.805  0.00  0.00    +0.000 OA
ATOM     15  H   UNL     1       8.674   4.941  17.816  0.00  0.00    +0.000 HD
ENDBRANCH   7   8
BRANCH   5  16
ATOM     16  N   UNL     1       2.047   7.593  20.047  0.00  0.00    +0.000 N 
ATOM     17  C   UNL     1       1.661   8.524  19.083  0.00  0.00    +0.000 C 
ATOM     18  O   UNL     1       1.793   8.356  17.875  0.00  0.00    +0.000 OA
ATOM     19  H   UNL     1       2.012   7.885  21.013  0.00  0.00    +0.000 HD
BRANCH  17  20
ATOM     20  C   UNL     1       1.080   9.748  19.599  0.00  0.00    +0.000 A 
ATOM     21  C   UNL     1       1.115  11.039  19.098  0.00  0.00    +0.000 A 
ATOM     22  N   UNL     1       0.490  11.933  19.922  0.00  0.00    +0.000 NA
ATOM     23  C   UNL     1       0.082  11.227  20.951  0.00  0.00    +0.000 A 
ATOM     24  C   UNL     1      -0.602  11.625  22.138  0.00  0.00    +0.000 A 
ATOM     25  C   UNL     1      -0.936  10.707  23.065  0.00  0.00    +0.000 A 
ATOM     26  C   UNL     1      -0.619   9.302  22.879  0.00  0.00    +0.000 A 
ATOM     27  C   UNL     1       0.035   8.920  21.768  0.00  0.00    +0.000 A 
ATOM     28  N   UNL     1       0.398   9.875  20.808  0.00  0.00    +0.000 N 
ENDBRANCH  17  20
ENDBRANCH   5  16
TORSDOF 3
ENDMDL
MODEL 5
REMARK VINA RESULT:      -8.9      1.409      2.418
REMARK  Name = 
REMARK  4 active torsions:
REMARK  status: ('A' for Active; 'I' for Inactive)
REMARK    1  A    between atoms: C_1  and  C_2
REMARK    2  A    between atoms: C_5  and  N_6
REMARK    3  A    between atoms: C_7  and  C_9
REMARK    4  A    between atoms: C_19  and  N_20
REMARK                            x       y       z     vdW  Elec       q    Type
REMARK                         _______ _______ _______ _____ _____    ______ ____
ROOT
ATOM      1  C   UNL     1       4.287   2.355  19.680  0.00  0.00    +0.000 C 
ATOM      2  C   UNL     1       3.628   3.709  19.724  0.00  0.00    +0.000 A 
ATOM      3  C   UNL     1       2.444   3.836  20.456  0.00  0.00    +0.000 A 
ATOM      4  C   UNL     1       1.834   5.079  20.633  0.00  0.00    +0.000 A 
ATOM      5  C   UNL     1       2.392   6.238  20.097  0.00  0.00    +0.000 A 
ATOM      6  C   UNL     1       3.592   6.123  19.370  0.00  0.00    +0.000 A 
ATOM      7  C   UNL     1       4.195   4.862  19.147  0.00  0.00    +0.000 A 
ENDROOT
BRANCH   7   8
ATOM      8  N   UNL     1       5.371   4.770  18.369  0.00  0.00    +0.000 N 
ATOM      9  C   UNL     1       5.421   4.391  17.052  0.00  0.00    +0.000 C 
ATOM     10  O   UNL     1       4.498   4.027  16.334  0.00  0.00    +0.000 OA
ATOM     11  C   UNL     1       6.854   4.558  16.564  0.00  0.00    +0.000 C 
ATOM     12  N   UNL     1       7.514   4.960  17.768  0.00  0.00    +0.000 N 
ATOM     13  C   UNL     1       6.634   5.072  18.823  0.00  0.00    +0.000 C 
ATOM     14  O   UNL     1       7.007   5.344  19.954  0.00  0.00    +0.000 OA
ATOM     15  H   UNL     1       8.506   5.114  17.896  0.00  0.00    +0.000 HD
ENDBRANCH   7   8
BRANCH   5  16
ATOM     16  N   UNL     1       1.805   7.523  20.261  0.00  0.00    +0.000 N 
ATOM     17  C   UNL     1       1.616   8.488  19.272  0.00  0.00    +0.000 C 
ATOM     18  O   UNL     1       2.025   8.379  18.121  0.00  0.00    +0.000 OA
ATOM     19  H   UNL     1       1.541   7.770  21.205  0.00  0.00    +0.000 HD
BRANCH  17  20
ATOM     20  C   UNL     1       0.892   9.673  19.689  0.00  0.00    +0.000 A 
ATOM     21  C   UNL     1       1.054  10.477  20.805  0.00  0.00    +0.000 A 
ATOM     22  N   UNL     1       0.118  11.473  20.868  0.00  0.00    +0.000 NA
ATOM     23  C   UNL     1      -0.648  11.293  19.817  0.00  0.00    +0.000 A 
ATOM     24  C   UNL     1      -1.804  12.005  19.378  0.00  0.00    +0.000 A 
ATOM     25  C   UNL     1      -2.430  11.641  18.242  0.00  0.00    +0.000 A 
ATOM     26  C   UNL     1      -1.947  10.531  17.441  0.00  0.00    +0.000 A 
ATOM     27  C   UNL     1      -0.865   9.848  17.854  0.00  0.00    +0.000 A 
ATOM     28  N   UNL     1      -0.219  10.213  19.043  0.00  0.00    +0.000 N 
ENDBRANCH  17  20
ENDBRANCH   5  16
TORSDOF 3
ENDMDL
MODEL 6
REMARK VINA RESULT:      -8.8      1.162      2.265
REMARK  Name = 
REMARK  4 active torsions:
REMARK  status: ('A' for Active; 'I' for Inactive)
REMARK    1  A    between atoms: C_1  and  C_2
REMARK    2  A    between atoms: C_5  and  N_6
REMARK    3  A    between atoms: C_7  and  C_9
REMARK    4  A    between atoms: C_19  and  N_20
REMARK                            x       y       z     vdW  Elec       q    Type
REMARK                         _______ _______ _______ _____ _____    ______ ____
ROOT
ATOM      1  C   UNL     1       3.738   1.951  18.448  0.00  0.00    +0.000 C 
ATOM      2  C   UNL     1       3.212   3.256  18.985  0.00  0.00    +0.000 A 
ATOM      3  C   UNL     1       1.998   3.236  19.677  0.00  0.00    +0.000 A 
ATOM      4  C   UNL     1       1.502   4.384  20.295  0.00  0.00    +0.000 A 
ATOM      5  C   UNL     1       2.205   5.587  20.255  0.00  0.00    +0.000 A 
ATOM      6  C   UNL     1       3.435   5.614  19.571  0.00  0.00    +0.000 A 
ATOM      7  C   UNL     1       3.927   4.467  18.903  0.00  0.00    +0.000 A 
ENDROOT
BRANCH   7   8
ATOM      8  N   UNL     1       5.139   4.537  18.181  0.00  0.00    +0.000 N 
ATOM      9  C   UNL     1       5.260   4.393  16.823  0.00  0.00    +0.000 C 
ATOM     10  O   UNL     1       4.383   4.137  16.008  0.00  0.00    +0.000 OA
ATOM     11  C   UNL     1       6.709   4.673  16.443  0.00  0.00    +0.000 C 
ATOM     12  N   UNL     1       7.301   4.876  17.729  0.00  0.00    +0.000 N 
ATOM     13  C   UNL     1       6.371   4.785  18.743  0.00  0.00    +0.000 C 
ATOM     14  O   UNL     1       6.683   4.866  19.921  0.00  0.00    +0.000 OA
ATOM     15  H   UNL     1       8.281   5.028  17.932  0.00  0.00    +0.000 HD
ENDBRANCH   7   8
BRANCH   5  16
ATOM     16  N   UNL     1       1.735   6.776  20.879  0.00  0.00    +0.000 N 
ATOM     17  C   UNL     1       1.572   8.025  20.280  0.00  0.00    +0.000 C 
ATOM     18  O   UNL     1       1.907   8.283  19.128  0.00  0.00    +0.000 OA
ATOM     19  H   UNL     1       1.544   6.709  21.869  0.00  0.00    +0.000 HD
BRANCH  17  20
ATOM     20  C   UNL     1       0.971   9.043  21.119  0.00  0.00    +0.000 A 
ATOM     21  C   UNL     1       1.069   9.253  22.485  0.00  0.00    +0.000 A 
ATOM     22  N   UNL     1       0.292  10.296  22.908  0.00  0.00    +0.000 NA
ATOM     23  C   UNL     1      -0.315  10.733  21.828  0.00  0.00    +0.000 A 
ATOM     24  C   UNL     1      -1.269  11.780  21.659  0.00  0.00    +0.000 A 
ATOM     25  C   UNL     1      -1.752  12.062  20.434  0.00  0.00    +0.000 A 
ATOM     26  C   UNL     1      -1.314  11.320  19.265  0.00  0.00    +0.000 A 
ATOM     27  C   UNL     1      -0.424  10.324  19.418  0.00  0.00    +0.000 A 
ATOM     28  N   UNL     1       0.070  10.017  20.693  0.00  0.00    +0.000 N 
ENDBRANCH  17  20
ENDBRANCH   5  16
TORSDOF 3
ENDMDL
MODEL 7
REMARK VINA RESULT:      -8.8      1.251      2.240
REMARK  Name = 
REMARK  4 active torsions:
REMARK  status: ('A' for Active; 'I' for Inactive)
REMARK    1  A    between atoms: C_1  and  C_2
REMARK    2  A    between atoms: C_5  and  N_6
REMARK    3  A    between atoms: C_7  and  C_9
REMARK    4  A    between atoms: C_19  and  N_20
REMARK                            x       y       z     vdW  Elec       q    Type
REMARK                         _______ _______ _______ _____ _____    ______ ____
ROOT
ATOM      1  C   UNL     1       4.205   2.482  19.752  0.00  0.00    +0.000 C 
ATOM      2  C   UNL     1       3.580   3.852  19.714  0.00  0.00    +0.000 A 
ATOM      3  C   UNL     1       2.389   4.046  20.420  0.00  0.00    +0.000 A 
ATOM      4  C   UNL     1       1.808   5.311  20.520  0.00  0.00    +0.000 A 
ATOM      5  C   UNL     1       2.401   6.427  19.932  0.00  0.00    +0.000 A 
ATOM      6  C   UNL     1       3.608   6.243  19.230  0.00  0.00    +0.000 A 
ATOM      7  C   UNL     1       4.183   4.958  19.084  0.00  0.00    +0.000 A 
ENDROOT
BRANCH   7   8
ATOM      8  N   UNL     1       5.367   4.796  18.331  0.00  0.00    +0.000 N 
ATOM      9  C   UNL     1       6.637   5.036  18.793  0.00  0.00    +0.000 C 
ATOM     10  O   UNL     1       6.974   5.466  19.888  0.00  0.00    +0.000 OA
ATOM     11  C   UNL     1       7.623   4.609  17.713  0.00  0.00    +0.000 C 
ATOM     12  N   UNL     1       6.735   4.228  16.659  0.00  0.00    +0.000 N 
ATOM     13  C   UNL     1       5.413   4.351  17.031  0.00  0.00    +0.000 C 
ATOM     14  O   UNL     1       4.496   4.134  16.253  0.00  0.00    +0.000 OA
ATOM     15  H   UNL     1       6.989   3.938  15.723  0.00  0.00    +0.000 HD
ENDBRANCH   7   8
BRANCH   5  16
ATOM     16  N   UNL     1       1.844   7.732  20.018  0.00  0.00    +0.000 N 
ATOM     17  C   UNL     1       1.524   8.576  18.954  0.00  0.00    +0.000 C 
ATOM     18  O   UNL     1       1.773   8.323  17.780  0.00  0.00    +0.000 OA
ATOM     19  H   UNL     1       1.711   8.093  20.952  0.00  0.00    +0.000 HD
BRANCH  17  20
ATOM     20  C   UNL     1       0.865   9.814  19.320  0.00  0.00    +0.000 A 
ATOM     21  C   UNL     1      -0.312  10.032  20.017  0.00  0.00    +0.000 A 
ATOM     22  N   UNL     1      -0.628  11.360  20.101  0.00  0.00    +0.000 NA
ATOM     23  C   UNL     1       0.324  11.983  19.445  0.00  0.00    +0.000 A 
ATOM     24  C   UNL     1       0.509  13.371  19.172  0.00  0.00    +0.000 A 
ATOM     25  C   UNL     1       1.586  13.785  18.478  0.00  0.00    +0.000 A 
ATOM     26  C   UNL     1       2.581  12.841  18.001  0.00  0.00    +0.000 A 
ATOM     27  C   UNL     1       2.408  11.530  18.244  0.00  0.00    +0.000 A 
ATOM     28  N   UNL     1       1.281  11.093  18.953  0.00  0.00    +0.000 N 
ENDBRANCH  17  20
ENDBRANCH   5  16
TORSDOF 3
ENDMDL
MODEL 8
REMARK VINA RESULT:      -8.7      1.458      2.052
REMARK  Name = 
REMARK  4 active torsions:
REMARK  status: ('A' for Active; 'I' for Inactive)
REMARK    1  A    between atoms: C_1  and  C_2
REMARK    2  A    between atoms: C_5  and  N_6
REMARK    3  A    between atoms: C_7  and  C_9
REMARK    4  A    between atoms: C_19  and  N_20
REMARK                            x       y       z     vdW  Elec       q    Type
REMARK                         _______ _______ _______ _____ _____    ______ ____
ROOT
ATOM      1  C   UNL     1       3.962   3.307  17.253  0.00  0.00    +0.000 C 
ATOM      2  C   UNL     1       3.389   4.422  18.088  0.00  0.00    +0.000 A 
ATOM      3  C   UNL     1       2.086   4.272  18.572  0.00  0.00    +0.000 A 
ATOM      4  C   UNL     1       1.526   5.211  19.439  0.00  0.00    +0.000 A 
ATOM      5  C   UNL     1       2.250   6.324  19.864  0.00  0.00    +0.000 A 
ATOM      6  C   UNL     1       3.568   6.477  19.392  0.00  0.00    +0.000 A 
ATOM      7  C   UNL     1       4.130   5.554  18.478  0.00  0.00    +0.000 A 
ENDROOT
BRANCH   7   8
ATOM      8  N   UNL     1       5.437   5.761  17.982  0.00  0.00    +0.000 N 
ATOM      9  C   UNL     1       6.595   5.494  18.668  0.00  0.00    +0.000 C 
ATOM     10  O   UNL     1       6.717   5.086  19.815  0.00  0.00    +0.000 OA
ATOM     11  C   UNL     1       7.769   5.729  17.726  0.00  0.00    +0.000 C 
ATOM     12  N   UNL     1       7.099   6.217  16.560  0.00  0.00    +0.000 N 
ATOM     13  C   UNL     1       5.731   6.239  16.726  0.00  0.00    +0.000 C 
ATOM     14  O   UNL     1       4.980   6.680  15.869  0.00  0.00    +0.000 OA
ATOM     15  H   UNL     1       7.528   6.557  15.708  0.00  0.00    +0.000 HD
ENDBRANCH   7   8
BRANCH   5  16
ATOM     16  N   UNL     1       1.717   7.298  20.752  0.00  0.00    +0.000 N 
ATOM     17  C   UNL     1       1.246   8.567  20.415  0.00  0.00    +0.000 C 
ATOM     18  O   UNL     1       1.317   9.048  19.289  0.00  0.00    +0.000 OA
ATOM     19  H   UNL     1       1.726   7.052  21.732  0.00  0.00    +0.000 HD
BRANCH  17  20
ATOM     20  C   UNL     1       0.653   9.319  21.504  0.00  0.00    +0.000 A 
ATOM     21  C   UNL     1       0.778   9.162  22.875  0.00  0.00    +0.000 A 
ATOM     22  N   UNL     1      -0.000  10.045  23.571  0.00  0.00    +0.000 NA
ATOM     23  C   UNL     1      -0.634  10.743  22.656  0.00  0.00    +0.000 A 
ATOM     24  C   UNL     1      -1.601  11.783  22.786  0.00  0.00    +0.000 A 
ATOM     25  C   UNL     1      -2.112  12.371  21.688  0.00  0.00    +0.000 A 
ATOM     26  C   UNL     1      -1.692  11.970  20.357  0.00  0.00    +0.000 A 
ATOM     27  C   UNL     1      -0.790  10.982  20.226  0.00  0.00    +0.000 A 
ATOM     28  N   UNL     1      -0.266  10.357  21.366  0.00  0.00    +0.000 N 
ENDBRANCH  17  20
ENDBRANCH   5  16
TORSDOF 3
ENDMDL
MODEL 9
REMARK VINA RESULT:      -8.7      0.994      1.099
REMARK  Name = 
REMARK  4 active torsions:
REMARK  status: ('A' for Active; 'I' for Inactive)
REMARK    1  A    between atoms: C_1  and  C_2
REMARK    2  A    between atoms: C_5  and  N_6
REMARK    3  A    between atoms: C_7  and  C_9
REMARK    4  A    between atoms: C_19  and  N_20
REMARK                            x       y       z     vdW  Elec       q    Type
REMARK                         _______ _______ _______ _____ _____    ______ ____
ROOT
ATOM      1  C   UNL     1       4.289   2.573  19.952  0.00  0.00    +0.000 C 
ATOM      2  C   UNL     1       3.597   3.899  19.770  0.00  0.00    +0.000 A 
ATOM      3  C   UNL     1       2.391   4.103  20.446  0.00  0.00    +0.000 A 
ATOM      4  C   UNL     1       1.747   5.341  20.414  0.00  0.00    +0.000 A 
ATOM      5  C   UNL     1       2.290   6.419  19.718  0.00  0.00    +0.000 A 
ATOM      6  C   UNL     1       3.512   6.227  19.045  0.00  0.00    +0.000 A 
ATOM      7  C   UNL     1       4.151   4.964  19.034  0.00  0.00    +0.000 A 
ENDROOT
BRANCH   7   8
ATOM      8  N   UNL     1       5.350   4.787  18.308  0.00  0.00    +0.000 N 
ATOM      9  C   UNL     1       6.610   5.035  18.789  0.00  0.00    +0.000 C 
ATOM     10  O   UNL     1       6.927   5.486  19.882  0.00  0.00    +0.000 OA
ATOM     11  C   UNL     1       7.617   4.585  17.738  0.00  0.00    +0.000 C 
ATOM     12  N   UNL     1       6.749   4.184  16.674  0.00  0.00    +0.000 N 
ATOM     13  C   UNL     1       5.420   4.315  17.018  0.00  0.00    +0.000 C 
ATOM     14  O   UNL     1       4.519   4.083  16.227  0.00  0.00    +0.000 OA
ATOM     15  H   UNL     1       7.021   3.875  15.749  0.00  0.00    +0.000 HD
ENDBRANCH   7   8
BRANCH   5  16
ATOM     16  N   UNL     1       1.668   7.697  19.667  0.00  0.00    +0.000 N 
ATOM     17  C   UNL     1       1.351   8.516  20.751  0.00  0.00    +0.000 C 
ATOM     18  O   UNL     1       1.494   8.186  21.924  0.00  0.00    +0.000 OA
ATOM     19  H   UNL     1       1.391   8.016  18.749  0.00  0.00    +0.000 HD
BRANCH  17  20
ATOM     20  C   UNL     1       0.818   9.820  20.410  0.00  0.00    +0.000 A 
ATOM     21  C   UNL     1       1.035  10.615  19.296  0.00  0.00    +0.000 A 
ATOM     22  N   UNL     1       0.388  11.816  19.381  0.00  0.00    +0.000 NA
ATOM     23  C   UNL     1      -0.216  11.801  20.547  0.00  0.00    +0.000 A 
ATOM     24  C   UNL     1      -1.013  12.792  21.193  0.00  0.00    +0.000 A 
ATOM     25  C   UNL     1      -1.548  12.544  22.404  0.00  0.00    +0.000 A 
ATOM     26  C   UNL     1      -1.336  11.274  23.073  0.00  0.00    +0.000 A 
ATOM     27  C   UNL     1      -0.576  10.339  22.476  0.00  0.00    +0.000 A 
ATOM     28  N   UNL     1      -0.005  10.598  21.223  0.00  0.00    +0.000 N 
ENDBRANCH  17  20
ENDBRANCH   5  16
TORSDOF 3
ENDMDL
