MODEL 1
REMARK VINA RESULT:      -8.2      0.000      0.000
REMARK  Name = 
REMARK  4 active torsions:
REMARK  status: ('A' for Active; 'I' for Inactive)
REMARK    1  A    between atoms: C_7  and  C_8
REMARK    2  A    between atoms: N_10  and  C_11
REMARK    3  A    between atoms: C_11  and  C_12
REMARK    4  A    between atoms: C_12  and  C_13
REMARK                            x       y       z     vdW  Elec       q    Type
REMARK                         _______ _______ _______ _____ _____    ______ ____
ROOT
ATOM      1  C   UNL     1       3.275   5.287  18.856  0.00  0.00    +0.000 C 
ATOM      2  O   UNL     1       3.897   4.575  19.637  0.00  0.00    +0.000 OA
ATOM      3  N   UNL     1       3.261   5.072  17.499  0.00  0.00    +0.000 N 
ATOM      4  H   UNL     1       2.703   5.661  16.893  0.00  0.00    +0.000 HD
ENDROOT
BRANCH   1  11
ATOM      5  O   UNL     1      -0.156  11.969  20.652  0.00  0.00    +0.000 OA
ATOM      6  C   UNL     1       0.272  10.955  20.111  0.00  0.00    +0.000 C 
ATOM      7  C   UNL     1       0.471  10.852  18.617  0.00  0.00    +0.000 C 
ATOM      8  C   UNL     1       1.664   9.982  18.254  0.00  0.00    +0.000 C 
ATOM      9  C   UNL     1       1.688   8.706  19.050  0.00  0.00    +0.000 A 
ATOM     10  C   UNL     1       2.396   7.590  18.593  0.00  0.00    +0.000 A 
ATOM     11  C   UNL     1       2.482   6.432  19.377  0.00  0.00    +0.000 A 
ATOM     12  C   UNL     1       1.850   6.407  20.623  0.00  0.00    +0.000 A 
ATOM     13  F   UNL     1       1.900   5.320  21.410  0.00  0.00    +0.000 F 
ATOM     14  C   UNL     1       1.163   7.517  21.098  0.00  0.00    +0.000 A 
ATOM     15  C   UNL     1       1.095   8.666  20.317  0.00  0.00    +0.000 A 
ATOM     16  N   UNL     1       0.475   9.808  20.828  0.00  0.00    +0.000 N 
ATOM     17  H   UNL     1       0.205   9.847  21.802  0.00  0.00    +0.000 HD
ENDBRANCH   1  11
BRANCH   3  18
ATOM     18  C   UNL     1       3.954   3.937  16.957  0.00  0.00    +0.000 C 
BRANCH  18  19
ATOM     19  C   UNL     1       5.279   4.233  16.266  0.00  0.00    +0.000 C 
ATOM     20  C   UNL     1       5.382   4.317  14.744  0.00  0.00    +0.000 C 
ATOM     21  C   UNL     1       5.981   3.146  15.464  0.00  0.00    +0.000 C 
BRANCH  19  22
ATOM     22  C   UNL     1       6.074   5.268  17.068  0.00  0.00    +0.000 A 
ATOM     23  C   UNL     1       7.046   4.811  17.986  0.00  0.00    +0.000 A 
ATOM     24  C   UNL     1       7.947   5.685  18.593  0.00  0.00    +0.000 A 
ATOM     25  C   UNL     1       7.883   7.038  18.297  0.00  0.00    +0.000 A 
ATOM     26  F   UNL     1       8.777   7.872  18.841  0.00  0.00    +0.000 F 
ATOM     27  C   UNL     1       6.925   7.535  17.426  0.00  0.00    +0.000 A 
ATOM     28  C   UNL     1       6.026   6.657  16.818  0.00  0.00    +0.000 A 
ATOM     29 CL   UNL     1       4.903   7.327  15.686  0.00  0.00    +0.000 Cl
ENDBRANCH  19  22
ENDBRANCH  18  19
ENDBRANCH   3  18
TORSDOF 4
ENDMDL
MODEL 2
REMARK VINA RESULT:      -8.2      3.796      8.448
REMARK  Name = 
REMARK  4 active torsions:
REMARK  status: ('A' for Active; 'I' for Inactive)
REMARK    1  A    between atoms: C_7  and  C_8
REMARK    2  A    between atoms: N_10  and  C_11
REMARK    3  A    between atoms: C_11  and  C_12
REMARK    4  A    between atoms: C_12  and  C_13
REMARK                            x       y       z     vdW  Elec       q    Type
REMARK                         _______ _______ _______ _____ _____    ______ ____
ROOT
ATOM      1  C   UNL     1       2.303   8.322  18.196  0.00  0.00    +0.000 C 
ATOM      2  O   UNL     1       2.236   8.790  17.064  0.00  0.00    +0.000 OA
ATOM      3  N   UNL     1       1.796   8.962  19.300  0.00  0.00    +0.000 N 
ATOM      4  H   UNL     1       1.839   8.522  20.211  0.00  0.00    +0.000 HD
ENDROOT
BRANCH   1  11
ATOM      5  O   UNL     1       5.088   1.505  20.526  0.00  0.00    +0.000 OA
ATOM      6  C   UNL     1       4.394   2.463  20.200  0.00  0.00    +0.000 C 
ATOM      7  C   UNL     1       2.984   2.655  20.708  0.00  0.00    +0.000 C 
ATOM      8  C   UNL     1       2.634   4.124  20.891  0.00  0.00    +0.000 C 
ATOM      9  C   UNL     1       3.069   4.952  19.714  0.00  0.00    +0.000 A 
ATOM     10  C   UNL     1       2.480   6.193  19.454  0.00  0.00    +0.000 A 
ATOM     11  C   UNL     1       2.946   6.997  18.406  0.00  0.00    +0.000 A 
ATOM     12  C   UNL     1       4.009   6.541  17.621  0.00  0.00    +0.000 A 
ATOM     13  F   UNL     1       4.489   7.273  16.603  0.00  0.00    +0.000 F 
ATOM     14  C   UNL     1       4.618   5.321  17.884  0.00  0.00    +0.000 A 
ATOM     15  C   UNL     1       4.156   4.536  18.936  0.00  0.00    +0.000 A 
ATOM     16  N   UNL     1       4.820   3.349  19.250  0.00  0.00    +0.000 N 
ATOM     17  H   UNL     1       5.706   3.131  18.815  0.00  0.00    +0.000 HD
ENDBRANCH   1  11
BRANCH   3  18
ATOM     18  C   UNL     1       1.104  10.210  19.136  0.00  0.00    +0.000 C 
BRANCH  18  19
ATOM     19  C   UNL     1      -0.285  10.288  19.757  0.00  0.00    +0.000 C 
ATOM     20  C   UNL     1      -0.509  10.920  21.130  0.00  0.00    +0.000 C 
ATOM     21  C   UNL     1      -0.627   9.434  20.970  0.00  0.00    +0.000 C 
BRANCH  19  22
ATOM     22  C   UNL     1      -1.330  10.593  18.680  0.00  0.00    +0.000 A 
ATOM     23  C   UNL     1      -1.358   9.790  17.518  0.00  0.00    +0.000 A 
ATOM     24  C   UNL     1      -2.403   9.871  16.598  0.00  0.00    +0.000 A 
ATOM     25  C   UNL     1      -3.437  10.768  16.822  0.00  0.00    +0.000 A 
ATOM     26  F   UNL     1      -4.464  10.813  15.967  0.00  0.00    +0.000 F 
ATOM     27  C   UNL     1      -3.434  11.598  17.933  0.00  0.00    +0.000 A 
ATOM     28  C   UNL     1      -2.387  11.513  18.854  0.00  0.00    +0.000 A 
ATOM     29 CL   UNL     1      -2.478  12.522  20.256  0.00  0.00    +0.000 Cl
ENDBRANCH  19  22
ENDBRANCH  18  19
ENDBRANCH   3  18
TORSDOF 4
ENDMDL
MODEL 3
REMARK VINA RESULT:      -8.2      1.918      2.650
REMARK  Name = 
REMARK  4 active torsions:
REMARK  status: ('A' for Active; 'I' for Inactive)
REMARK    1  A    between atoms: C_7  and  C_8
REMARK    2  A    between atoms: N_10  and  C_11
REMARK    3  A    between atoms: C_11  and  C_12
REMARK    4  A    between atoms: C_12  and  C_13
REMARK                            x       y       z     vdW  Elec       q    Type
REMARK                         _______ _______ _______ _____ _____    ______ ____
ROOT
ATOM      1  C   UNL     1       2.568   6.620  18.241  0.00  0.00    +0.000 C 
ATOM      2  O   UNL     1       3.492   6.948  17.504  0.00  0.00    +0.000 OA
ATOM      3  N   UNL     1       2.055   5.347  18.274  0.00  0.00    +0.000 N 
ATOM      4  H   UNL     1       1.317   5.109  18.925  0.00  0.00    +0.000 HD
ENDROOT
BRANCH   1  11
ATOM      5  O   UNL     1      -0.100  12.751  22.107  0.00  0.00    +0.000 OA
ATOM      6  C   UNL     1       0.145  11.868  21.291  0.00  0.00    +0.000 C 
ATOM      7  C   UNL     1      -0.058  12.055  19.805  0.00  0.00    +0.000 C 
ATOM      8  C   UNL     1       0.976  11.301  18.984  0.00  0.00    +0.000 C 
ATOM      9  C   UNL     1       1.174   9.898  19.489  0.00  0.00    +0.000 A 
ATOM     10  C   UNL     1       1.710   8.908  18.659  0.00  0.00    +0.000 A 
ATOM     11  C   UNL     1       1.969   7.625  19.159  0.00  0.00    +0.000 A 
ATOM     12  C   UNL     1       1.686   7.348  20.499  0.00  0.00    +0.000 A 
ATOM     13  F   UNL     1       1.914   6.133  21.024  0.00  0.00    +0.000 F 
ATOM     14  C   UNL     1       1.176   8.330  21.339  0.00  0.00    +0.000 A 
ATOM     15  C   UNL     1       0.934   9.604  20.836  0.00  0.00    +0.000 A 
ATOM     16  N   UNL     1       0.500  10.612  21.698  0.00  0.00    +0.000 N 
ATOM     17  H   UNL     1       0.495  10.460  22.698  0.00  0.00    +0.000 HD
ENDBRANCH   1  11
BRANCH   3  18
ATOM     18  C   UNL     1       2.649   4.325  17.456  0.00  0.00    +0.000 C 
BRANCH  18  19
ATOM     19  C   UNL     1       3.906   3.672  18.016  0.00  0.00    +0.000 C 
ATOM     20  C   UNL     1       3.866   2.285  18.656  0.00  0.00    +0.000 C 
ATOM     21  C   UNL     1       4.068   3.493  19.519  0.00  0.00    +0.000 C 
BRANCH  19  22
ATOM     22  C   UNL     1       5.108   3.981  17.118  0.00  0.00    +0.000 A 
ATOM     23  C   UNL     1       5.058   3.589  15.762  0.00  0.00    +0.000 A 
ATOM     24  C   UNL     1       6.014   4.017  14.841  0.00  0.00    +0.000 A 
ATOM     25  C   UNL     1       7.045   4.840  15.267  0.00  0.00    +0.000 A 
ATOM     26  F   UNL     1       7.936   5.290  14.377  0.00  0.00    +0.000 F 
ATOM     27  C   UNL     1       7.152   5.223  16.596  0.00  0.00    +0.000 A 
ATOM     28  C   UNL     1       6.191   4.796  17.515  0.00  0.00    +0.000 A 
ATOM     29 CL   UNL     1       6.337   5.367  19.141  0.00  0.00    +0.000 Cl
ENDBRANCH  19  22
ENDBRANCH  18  19
ENDBRANCH   3  18
TORSDOF 4
ENDMDL
MODEL 4
REMARK VINA RESULT:      -8.1      2.413      3.452
REMARK  Name = 
REMARK  4 active torsions:
REMARK  status: ('A' for Active; 'I' for Inactive)
REMARK    1  A    between atoms: C_7  and  C_8
REMARK    2  A    between atoms: N_10  and  C_11
REMARK    3  A    between atoms: C_11  and  C_12
REMARK    4  A    between atoms: C_12  and  C_13
REMARK                            x       y       z     vdW  Elec       q    Type
REMARK                         _______ _______ _______ _____ _____    ______ ____
ROOT
ATOM      1  C   UNL     1       2.598   7.186  18.251  0.00  0.00    +0.000 C 
ATOM      2  O   UNL     1       3.514   7.501  17.499  0.00  0.00    +0.000 OA
ATOM      3  N   UNL     1       2.182   5.887  18.417  0.00  0.00    +0.000 N 
ATOM      4  H   UNL     1       1.447   5.666  19.077  0.00  0.00    +0.000 HD
ENDROOT
BRANCH   1  11
ATOM      5  O   UNL     1      -1.516  11.601  23.071  0.00  0.00    +0.000 OA
ATOM      6  C   UNL     1      -0.726  10.824  22.544  0.00  0.00    +0.000 C 
ATOM      7  C   UNL     1      -0.082   9.683  23.297  0.00  0.00    +0.000 C 
ATOM      8  C   UNL     1       0.144   8.466  22.414  0.00  0.00    +0.000 C 
ATOM      9  C   UNL     1       0.734   8.843  21.083  0.00  0.00    +0.000 A 
ATOM     10  C   UNL     1       1.424   7.901  20.313  0.00  0.00    +0.000 A 
ATOM     11  C   UNL     1       1.899   8.236  19.039  0.00  0.00    +0.000 A 
ATOM     12  C   UNL     1       1.674   9.524  18.546  0.00  0.00    +0.000 A 
ATOM     13  F   UNL     1       2.113   9.894  17.332  0.00  0.00    +0.000 F 
ATOM     14  C   UNL     1       0.970  10.461  19.291  0.00  0.00    +0.000 A 
ATOM     15  C   UNL     1       0.491  10.115  20.551  0.00  0.00    +0.000 A 
ATOM     16  N   UNL     1      -0.287  11.028  21.265  0.00  0.00    +0.000 N 
ATOM     17  H   UNL     1      -0.616  11.873  20.820  0.00  0.00    +0.000 HD
ENDBRANCH   1  11
BRANCH   3  18
ATOM     18  C   UNL     1       2.874   4.831  17.731  0.00  0.00    +0.000 C 
BRANCH  18  19
ATOM     19  C   UNL     1       4.240   4.458  18.291  0.00  0.00    +0.000 C 
ATOM     20  C   UNL     1       4.398   3.359  19.340  0.00  0.00    +0.000 C 
ATOM     21  C   UNL     1       4.592   4.793  19.733  0.00  0.00    +0.000 C 
BRANCH  19  22
ATOM     22  C   UNL     1       5.297   4.508  17.183  0.00  0.00    +0.000 A 
ATOM     23  C   UNL     1       4.969   3.994  15.909  0.00  0.00    +0.000 A 
ATOM     24  C   UNL     1       5.795   4.193  14.804  0.00  0.00    +0.000 A 
ATOM     25  C   UNL     1       6.975   4.904  14.959  0.00  0.00    +0.000 A 
ATOM     26  F   UNL     1       7.746   5.138  13.891  0.00  0.00    +0.000 F 
ATOM     27  C   UNL     1       7.354   5.400  16.198  0.00  0.00    +0.000 A 
ATOM     28  C   UNL     1       6.522   5.202  17.302  0.00  0.00    +0.000 A 
ATOM     29 CL   UNL     1       7.012   5.908  18.803  0.00  0.00    +0.000 Cl
ENDBRANCH  19  22
ENDBRANCH  18  19
ENDBRANCH   3  18
TORSDOF 4
ENDMDL
MODEL 5
REMARK VINA RESULT:      -8.1      2.773      4.756
REMARK  Name = 
REMARK  4 active torsions:
REMARK  status: ('A' for Active; 'I' for Inactive)
REMARK    1  A    between atoms: C_7  and  C_8
REMARK    2  A    between atoms: N_10  and  C_11
REMARK    3  A    between atoms: C_11  and  C_12
REMARK    4  A    between atoms: C_12  and  C_13
REMARK                            x       y       z     vdW  Elec       q    Type
REMARK                         _______ _______ _______ _____ _____    ______ ____
ROOT
ATOM      1  C   UNL     1       2.663   7.779  18.240  0.00  0.00    +0.000 C 
ATOM      2  O   UNL     1       3.671   8.184  17.670  0.00  0.00    +0.000 OA
ATOM      3  N   UNL     1       2.244   6.472  18.178  0.00  0.00    +0.000 N 
ATOM      4  H   UNL     1       1.427   6.171  18.695  0.00  0.00    +0.000 HD
ENDROOT
BRANCH   1  11
ATOM      5  O   UNL     1      -1.943  11.571  23.144  0.00  0.00    +0.000 OA
ATOM      6  C   UNL     1      -1.070  10.900  22.603  0.00  0.00    +0.000 C 
ATOM      7  C   UNL     1      -0.313   9.812  23.328  0.00  0.00    +0.000 C 
ATOM      8  C   UNL     1       0.050   8.655  22.411  0.00  0.00    +0.000 C 
ATOM      9  C   UNL     1       0.607   9.135  21.100  0.00  0.00    +0.000 A 
ATOM     10  C   UNL     1       1.401   8.298  20.309  0.00  0.00    +0.000 A 
ATOM     11  C   UNL     1       1.849   8.722  19.051  0.00  0.00    +0.000 A 
ATOM     12  C   UNL     1       1.491   9.994  18.596  0.00  0.00    +0.000 A 
ATOM     13  F   UNL     1       1.897  10.447  17.399  0.00  0.00    +0.000 F 
ATOM     14  C   UNL     1       0.683  10.825  19.361  0.00  0.00    +0.000 A 
ATOM     15  C   UNL     1       0.233  10.390  20.604  0.00  0.00    +0.000 A 
ATOM     16  N   UNL     1      -0.644  11.191  21.337  0.00  0.00    +0.000 N 
ATOM     17  H   UNL     1      -1.059  12.010  20.913  0.00  0.00    +0.000 HD
ENDBRANCH   1  11
BRANCH   3  18
ATOM     18  C   UNL     1       3.038   5.510  17.465  0.00  0.00    +0.000 C 
BRANCH  18  19
ATOM     19  C   UNL     1       4.012   4.696  18.306  0.00  0.00    +0.000 C 
ATOM     20  C   UNL     1       5.393   5.238  18.674  0.00  0.00    +0.000 C 
ATOM     21  C   UNL     1       5.275   4.128  17.674  0.00  0.00    +0.000 C 
BRANCH  19  22
ATOM     22  C   UNL     1       3.258   3.933  19.400  0.00  0.00    +0.000 A 
ATOM     23  C   UNL     1       3.093   4.546  20.661  0.00  0.00    +0.000 A 
ATOM     24  C   UNL     1       2.246   4.009  21.630  0.00  0.00    +0.000 A 
ATOM     25  C   UNL     1       1.556   2.838  21.354  0.00  0.00    +0.000 A 
ATOM     26  F   UNL     1       0.707   2.347  22.264  0.00  0.00    +0.000 F 
ATOM     27  C   UNL     1       1.714   2.185  20.141  0.00  0.00    +0.000 A 
ATOM     28  C   UNL     1       2.560   2.727  19.171  0.00  0.00    +0.000 A 
ATOM     29 CL   UNL     1       2.657   1.906  17.652  0.00  0.00    +0.000 Cl
ENDBRANCH  19  22
ENDBRANCH  18  19
ENDBRANCH   3  18
TORSDOF 4
ENDMDL
MODEL 6
REMARK VINA RESULT:      -8.1      1.401      1.961
REMARK  Name = 
REMARK  4 active torsions:
REMARK  status: ('A' for Active; 'I' for Inactive)
REMARK    1  A    between atoms: C_7  and  C_8
REMARK    2  A    between atoms: N_10  and  C_11
REMARK    3  A    between atoms: C_11  and  C_12
REMARK    4  A    between atoms: C_12  and  C_13
REMARK                            x       y       z     vdW  Elec       q    Type
REMARK                         _______ _______ _______ _____ _____    ______ ____
ROOT
ATOM      1  C   UNL     1       2.812   5.983  19.251  0.00  0.00    +0.000 C 
ATOM      2  O   UNL     1       3.149   5.297  20.210  0.00  0.00    +0.000 OA
ATOM      3  N   UNL     1       3.020   5.600  17.948  0.00  0.00    +0.000 N 
ATOM      4  H   UNL     1       2.691   6.178  17.186  0.00  0.00    +0.000 HD
ENDROOT
BRANCH   1  11
ATOM      5  O   UNL     1      -1.400  12.085  21.412  0.00  0.00    +0.000 OA
ATOM      6  C   UNL     1      -0.638  11.127  21.338  0.00  0.00    +0.000 C 
ATOM      7  C   UNL     1      -0.230  10.316  22.546  0.00  0.00    +0.000 C 
ATOM      8  C   UNL     1      -0.023   8.848  22.209  0.00  0.00    +0.000 C 
ATOM      9  C   UNL     1       0.778   8.671  20.949  0.00  0.00    +0.000 A 
ATOM     10  C   UNL     1       1.457   7.475  20.694  0.00  0.00    +0.000 A 
ATOM     11  C   UNL     1       2.134   7.286  19.482  0.00  0.00    +0.000 A 
ATOM     12  C   UNL     1       2.121   8.309  18.530  0.00  0.00    +0.000 A 
ATOM     13  F   UNL     1       2.757   8.177  17.355  0.00  0.00    +0.000 F 
ATOM     14  C   UNL     1       1.430   9.492  18.761  0.00  0.00    +0.000 A 
ATOM     15  C   UNL     1       0.751   9.664  19.963  0.00  0.00    +0.000 A 
ATOM     16  N   UNL     1      -0.010  10.818  20.163  0.00  0.00    +0.000 N 
ATOM     17  H   UNL     1      -0.182  11.453  19.395  0.00  0.00    +0.000 HD
ENDBRANCH   1  11
BRANCH   3  18
ATOM     18  C   UNL     1       3.607   4.317  17.676  0.00  0.00    +0.000 C 
BRANCH  18  19
ATOM     19  C   UNL     1       4.931   4.337  16.924  0.00  0.00    +0.000 C 
ATOM     20  C   UNL     1       4.993   4.117  15.413  0.00  0.00    +0.000 C 
ATOM     21  C   UNL     1       5.496   3.050  16.339  0.00  0.00    +0.000 C 
BRANCH  19  22
ATOM     22  C   UNL     1       5.850   5.419  17.500  0.00  0.00    +0.000 A 
ATOM     23  C   UNL     1       6.711   5.078  18.566  0.00  0.00    +0.000 A 
ATOM     24  C   UNL     1       7.716   5.941  19.000  0.00  0.00    +0.000 A 
ATOM     25  C   UNL     1       7.870   7.170  18.377  0.00  0.00    +0.000 A 
ATOM     26  F   UNL     1       8.864   7.980  18.759  0.00  0.00    +0.000 F 
ATOM     27  C   UNL     1       7.027   7.560  17.347  0.00  0.00    +0.000 A 
ATOM     28  C   UNL     1       6.023   6.691  16.912  0.00  0.00    +0.000 A 
ATOM     29 CL   UNL     1       5.053   7.204  15.576  0.00  0.00    +0.000 Cl
ENDBRANCH  19  22
ENDBRANCH  18  19
ENDBRANCH   3  18
TORSDOF 4
ENDMDL
MODEL 7
REMARK VINA RESULT:      -8.1      2.411      3.680
REMARK  Name = 
REMARK  4 active torsions:
REMARK  status: ('A' for Active; 'I' for Inactive)
REMARK    1  A    between atoms: C_7  and  C_8
REMARK    2  A    between atoms: N_10  and  C_11
REMARK    3  A    between atoms: C_11  and  C_12
REMARK    4  A    between atoms: C_12  and  C_13
REMARK                            x       y       z     vdW  Elec       q    Type
REMARK                         _______ _______ _______ _____ _____    ______ ____
ROOT
ATOM      1  C   UNL     1       3.032   7.786  17.750  0.00  0.00    +0.000 C 
ATOM      2  O   UNL     1       2.725   8.200  16.637  0.00  0.00    +0.000 OA
ATOM      3  N   UNL     1       4.130   6.992  17.975  0.00  0.00    +0.000 N 
ATOM      4  H   UNL     1       4.369   6.703  18.915  0.00  0.00    +0.000 HD
ENDROOT
BRANCH   1  11
ATOM      5  O   UNL     1      -1.097  10.993  23.436  0.00  0.00    +0.000 OA
ATOM      6  C   UNL     1      -0.640  10.602  22.367  0.00  0.00    +0.000 C 
ATOM      7  C   UNL     1      -0.902  11.315  21.060  0.00  0.00    +0.000 C 
ATOM      8  C   UNL     1       0.283  11.231  20.111  0.00  0.00    +0.000 C 
ATOM      9  C   UNL     1       0.846   9.838  20.043  0.00  0.00    +0.000 A 
ATOM     10  C   UNL     1       1.611   9.428  18.947  0.00  0.00    +0.000 A 
ATOM     11  C   UNL     1       2.202   8.158  18.927  0.00  0.00    +0.000 A 
ATOM     12  C   UNL     1       2.017   7.306  20.019  0.00  0.00    +0.000 A 
ATOM     13  F   UNL     1       2.560   6.078  20.046  0.00  0.00    +0.000 F 
ATOM     14  C   UNL     1       1.279   7.710  21.124  0.00  0.00    +0.000 A 
ATOM     15  C   UNL     1       0.707   8.978  21.139  0.00  0.00    +0.000 A 
ATOM     16  N   UNL     1       0.035   9.415  22.282  0.00  0.00    +0.000 N 
ATOM     17  H   UNL     1       0.083   8.878  23.137  0.00  0.00    +0.000 HD
ENDBRANCH   1  11
BRANCH   3  18
ATOM     18  C   UNL     1       5.000   6.666  16.879  0.00  0.00    +0.000 C 
BRANCH  18  19
ATOM     19  C   UNL     1       5.095   5.188  16.522  0.00  0.00    +0.000 C 
ATOM     20  C   UNL     1       6.414   4.560  16.073  0.00  0.00    +0.000 C 
ATOM     21  C   UNL     1       5.314   4.766  15.076  0.00  0.00    +0.000 C 
BRANCH  19  22
ATOM     22  C   UNL     1       4.225   4.357  17.470  0.00  0.00    +0.000 A 
ATOM     23  C   UNL     1       3.042   3.773  16.965  0.00  0.00    +0.000 A 
ATOM     24  C   UNL     1       2.314   2.840  17.703  0.00  0.00    +0.000 A 
ATOM     25  C   UNL     1       2.756   2.482  18.967  0.00  0.00    +0.000 A 
ATOM     26  F   UNL     1       2.087   1.552  19.657  0.00  0.00    +0.000 F 
ATOM     27  C   UNL     1       3.894   3.054  19.515  0.00  0.00    +0.000 A 
ATOM     28  C   UNL     1       4.623   3.986  18.773  0.00  0.00    +0.000 A 
ATOM     29 CL   UNL     1       6.073   4.607  19.481  0.00  0.00    +0.000 Cl
ENDBRANCH  19  22
ENDBRANCH  18  19
ENDBRANCH   3  18
TORSDOF 4
ENDMDL
MODEL 8
REMARK VINA RESULT:      -8.0      3.733      8.508
REMARK  Name = 
REMARK  4 active torsions:
REMARK  status: ('A' for Active; 'I' for Inactive)
REMARK    1  A    between atoms: C_7  and  C_8
REMARK    2  A    between atoms: N_10  and  C_11
REMARK    3  A    between atoms: C_11  and  C_12
REMARK    4  A    between atoms: C_12  and  C_13
REMARK                            x       y       z     vdW  Elec       q    Type
REMARK                         _______ _______ _______ _____ _____    ______ ____
ROOT
ATOM      1  C   UNL     1       2.432   8.367  17.983  0.00  0.00    +0.000 C 
ATOM      2  O   UNL     1       2.661   9.116  17.039  0.00  0.00    +0.000 OA
ATOM      3  N   UNL     1       1.718   8.757  19.090  0.00  0.00    +0.000 N 
ATOM      4  H   UNL     1       1.520   8.095  19.830  0.00  0.00    +0.000 HD
ENDROOT
BRANCH   1  11
ATOM      5  O   UNL     1       3.907   0.806  18.538  0.00  0.00    +0.000 OA
ATOM      6  C   UNL     1       3.436   1.917  18.319  0.00  0.00    +0.000 C 
ATOM      7  C   UNL     1       1.955   2.151  18.134  0.00  0.00    +0.000 C 
ATOM      8  C   UNL     1       1.514   3.501  18.677  0.00  0.00    +0.000 C 
ATOM      9  C   UNL     1       2.450   4.603  18.262  0.00  0.00    +0.000 A 
ATOM     10  C   UNL     1       2.028   5.936  18.253  0.00  0.00    +0.000 A 
ATOM     11  C   UNL     1       2.927   6.965  17.946  0.00  0.00    +0.000 A 
ATOM     12  C   UNL     1       4.254   6.641  17.647  0.00  0.00    +0.000 A 
ATOM     13  F   UNL     1       5.153   7.591  17.343  0.00  0.00    +0.000 F 
ATOM     14  C   UNL     1       4.691   5.323  17.675  0.00  0.00    +0.000 A 
ATOM     15  C   UNL     1       3.792   4.310  17.995  0.00  0.00    +0.000 A 
ATOM     16  N   UNL     1       4.249   2.995  18.103  0.00  0.00    +0.000 N 
ATOM     17  H   UNL     1       5.241   2.799  18.089  0.00  0.00    +0.000 HD
ENDBRANCH   1  11
BRANCH   3  18
ATOM     18  C   UNL     1       1.160  10.080  19.139  0.00  0.00    +0.000 C 
BRANCH  18  19
ATOM     19  C   UNL     1      -0.174  10.213  19.863  0.00  0.00    +0.000 C 
ATOM     20  C   UNL     1      -0.264  10.819  21.263  0.00  0.00    +0.000 C 
ATOM     21  C   UNL     1      -0.472   9.346  21.078  0.00  0.00    +0.000 C 
BRANCH  19  22
ATOM     22  C   UNL     1      -1.277  10.600  18.873  0.00  0.00    +0.000 A 
ATOM     23  C   UNL     1      -1.426   9.838  17.694  0.00  0.00    +0.000 A 
ATOM     24  C   UNL     1      -2.528   9.996  16.855  0.00  0.00    +0.000 A 
ATOM     25  C   UNL     1      -3.498  10.932  17.179  0.00  0.00    +0.000 A 
ATOM     26  F   UNL     1      -4.580  11.053  16.401  0.00  0.00    +0.000 F 
ATOM     27  C   UNL     1      -3.376  11.726  18.310  0.00  0.00    +0.000 A 
ATOM     28  C   UNL     1      -2.273  11.562  19.150  0.00  0.00    +0.000 A 
ATOM     29 CL   UNL     1      -2.215  12.529  20.583  0.00  0.00    +0.000 Cl
ENDBRANCH  19  22
ENDBRANCH  18  19
ENDBRANCH   3  18
TORSDOF 4
ENDMDL
MODEL 9
REMARK VINA RESULT:      -8.0      3.215      7.129
REMARK  Name = 
REMARK  4 active torsions:
REMARK  status: ('A' for Active; 'I' for Inactive)
REMARK    1  A    between atoms: C_7  and  C_8
REMARK    2  A    between atoms: N_10  and  C_11
REMARK    3  A    between atoms: C_11  and  C_12
REMARK    4  A    between atoms: C_12  and  C_13
REMARK                            x       y       z     vdW  Elec       q    Type
REMARK                         _______ _______ _______ _____ _____    ______ ____
ROOT
ATOM      1  C   UNL     1       5.343   4.321  18.905  0.00  0.00    +0.000 C 
ATOM      2  O   UNL     1       5.598   5.056  19.853  0.00  0.00    +0.000 OA
ATOM      3  N   UNL     1       4.531   3.218  19.012  0.00  0.00    +0.000 N 
ATOM      4  H   UNL     1       4.316   2.659  18.196  0.00  0.00    +0.000 HD
ENDROOT
BRANCH   1  11
ATOM      5  O   UNL     1       7.774   4.699  11.584  0.00  0.00    +0.000 OA
ATOM      6  C   UNL     1       7.130   4.636  12.626  0.00  0.00    +0.000 C 
ATOM      7  C   UNL     1       5.737   4.053  12.687  0.00  0.00    +0.000 C 
ATOM      8  C   UNL     1       5.469   3.341  14.004  0.00  0.00    +0.000 C 
ATOM      9  C   UNL     1       5.938   4.149  15.182  0.00  0.00    +0.000 A 
ATOM     10  C   UNL     1       5.415   3.925  16.459  0.00  0.00    +0.000 A 
ATOM     11  C   UNL     1       5.915   4.623  17.566  0.00  0.00    +0.000 A 
ATOM     12  C   UNL     1       6.944   5.549  17.376  0.00  0.00    +0.000 A 
ATOM     13  F   UNL     1       7.454   6.246  18.405  0.00  0.00    +0.000 F 
ATOM     14  C   UNL     1       7.489   5.764  16.117  0.00  0.00    +0.000 A 
ATOM     15  C   UNL     1       6.994   5.055  15.026  0.00  0.00    +0.000 A 
ATOM     16  N   UNL     1       7.595   5.211  13.776  0.00  0.00    +0.000 N 
ATOM     17  H   UNL     1       8.464   5.721  13.689  0.00  0.00    +0.000 HD
ENDBRANCH   1  11
BRANCH   3  18
ATOM     18  C   UNL     1       3.900   2.927  20.270  0.00  0.00    +0.000 C 
BRANCH  18  19
ATOM     19  C   UNL     1       2.424   3.287  20.372  0.00  0.00    +0.000 C 
ATOM     20  C   UNL     1       1.597   2.917  21.603  0.00  0.00    +0.000 C 
ATOM     21  C   UNL     1       1.366   2.194  20.311  0.00  0.00    +0.000 C 
BRANCH  19  22
ATOM     22  C   UNL     1       2.173   4.671  19.765  0.00  0.00    +0.000 A 
ATOM     23  C   UNL     1       2.283   5.806  20.599  0.00  0.00    +0.000 A 
ATOM     24  C   UNL     1       2.276   7.099  20.078  0.00  0.00    +0.000 A 
ATOM     25  C   UNL     1       2.148   7.279  18.709  0.00  0.00    +0.000 A 
ATOM     26  F   UNL     1       2.189   8.516  18.202  0.00  0.00    +0.000 F 
ATOM     27  C   UNL     1       2.005   6.194  17.856  0.00  0.00    +0.000 A 
ATOM     28  C   UNL     1       2.015   4.900  18.380  0.00  0.00    +0.000 A 
ATOM     29 CL   UNL     1       1.907   3.588  17.259  0.00  0.00    +0.000 Cl
ENDBRANCH  19  22
ENDBRANCH  18  19
ENDBRANCH   3  18
TORSDOF 4
ENDMDL
