MODEL 1
REMARK VINA RESULT:      -8.7      0.000      0.000
REMARK  Name = 
REMARK  5 active torsions:
REMARK  status: ('A' for Active; 'I' for Inactive)
REMARK    1  A    between atoms: C_2  and  C_21
REMARK    2  A    between atoms: N_3  and  C_4
REMARK    3  A    between atoms: C_4  and  C_5
REMARK    4  A    between atoms: C_4  and  C_12
REMARK    5  A    between atoms: C_5  and  C_6
REMARK                            x       y       z     vdW  Elec       q    Type
REMARK                         _______ _______ _______ _____ _____    ______ ____
ROOT
ATOM      1  C   UNL     1       4.481   4.565  17.380  0.00  0.00    +0.000 C 
ENDROOT
BRANCH   1   2
ATOM      2  C   UNL     1       5.398   4.553  16.177  0.00  0.00    +0.000 A 
ATOM      3  N   UNL     1       6.426   5.317  15.849  0.00  0.00    +0.000 NA
ATOM      4  C   UNL     1       6.758   4.956  14.550  0.00  0.00    +0.000 A 
ATOM      5  C   UNL     1       7.732   5.452  13.667  0.00  0.00    +0.000 A 
ATOM      6  C   UNL     1       7.780   4.955  12.352  0.00  0.00    +0.000 A 
ATOM      7  C   UNL     1       6.882   3.978  11.917  0.00  0.00    +0.000 A 
ATOM      8  C   UNL     1       5.937   3.434  12.792  0.00  0.00    +0.000 A 
ATOM      9  C   UNL     1       5.924   3.943  14.093  0.00  0.00    +0.000 A 
ATOM     10  N   UNL     1       5.167   3.626  15.181  0.00  0.00    +0.000 N 
ATOM     11  H   UNL     1       4.461   2.905  15.203  0.00  0.00    +0.000 HD
ENDBRANCH   1   2
BRANCH   1  14
ATOM     12  O   UNL     1       4.152   5.934  19.746  0.00  0.00    +0.000 OA
ATOM     13  C   UNL     1       3.548   6.345  18.759  0.00  0.00    +0.000 C 
ATOM     14  N   UNL     1       3.666   5.765  17.507  0.00  0.00    +0.000 N 
ATOM     15  H   UNL     1       3.122   6.101  16.719  0.00  0.00    +0.000 HD
BRANCH  13  16
ATOM     16  C   UNL     1       2.605   7.535  18.943  0.00  0.00    +0.000 A 
ATOM     17  C   UNL     1       2.427   8.394  17.743  0.00  0.00    +0.000 A 
ATOM     18  C   UNL     1       1.548   9.393  17.816  0.00  0.00    +0.000 A 
ATOM     19  C   UNL     1       0.815   9.631  19.071  0.00  0.00    +0.000 A 
ATOM     20  O   UNL     1      -0.018  10.527  19.146  0.00  0.00    +0.000 OA
ATOM     21  N   UNL     1       1.139   8.805  20.122  0.00  0.00    +0.000 N 
ATOM     22  N   UNL     1       2.008   7.738  20.082  0.00  0.00    +0.000 NA
ATOM     23  H   UNL     1       0.642   8.958  20.996  0.00  0.00    +0.000 HD
ENDBRANCH  13  16
ENDBRANCH   1  14
BRANCH   1  24
ATOM     24  C   UNL     1       3.645   3.251  17.456  0.00  0.00    +0.000 C 
BRANCH  24  25
ATOM     25  C   UNL     1       2.840   3.063  18.720  0.00  0.00    +0.000 A 
ATOM     26  C   UNL     1       3.468   2.736  19.930  0.00  0.00    +0.000 A 
ATOM     27  C   UNL     1       2.716   2.554  21.091  0.00  0.00    +0.000 A 
ATOM     28  C   UNL     1       1.332   2.701  21.055  0.00  0.00    +0.000 A 
ATOM     29  C   UNL     1       0.698   3.031  19.865  0.00  0.00    +0.000 A 
ATOM     30  C   UNL     1       1.448   3.216  18.699  0.00  0.00    +0.000 A 
ENDBRANCH  24  25
ENDBRANCH   1  24
TORSDOF 5
ENDMDL
MODEL 2
REMARK VINA RESULT:      -8.7      0.786      1.335
REMARK  Name = 
REMARK  5 active torsions:
REMARK  status: ('A' for Active; 'I' for Inactive)
REMARK    1  A    between atoms: C_2  and  C_21
REMARK    2  A    between atoms: N_3  and  C_4
REMARK    3  A    between atoms: C_4  and  C_5
REMARK    4  A    between atoms: C_4  and  C_12
REMARK    5  A    between atoms: C_5  and  C_6
REMARK                            x       y       z     vdW  Elec       q    Type
REMARK                         _______ _______ _______ _____ _____    ______ ____
ROOT
ATOM      1  C   UNL     1       4.373   4.687  17.328  0.00  0.00    +0.000 C 
ENDROOT
BRANCH   1   2
ATOM      2  C   UNL     1       5.323   4.639  16.152  0.00  0.00    +0.000 A 
ATOM      3  N   UNL     1       6.373   5.379  15.839  0.00  0.00    +0.000 NA
ATOM      4  C   UNL     1       6.735   4.988  14.556  0.00  0.00    +0.000 A 
ATOM      5  C   UNL     1       7.742   5.452  13.693  0.00  0.00    +0.000 A 
ATOM      6  C   UNL     1       7.818   4.930  12.389  0.00  0.00    +0.000 A 
ATOM      7  C   UNL     1       6.916   3.960  11.946  0.00  0.00    +0.000 A 
ATOM      8  C   UNL     1       5.937   3.448  12.804  0.00  0.00    +0.000 A 
ATOM      9  C   UNL     1       5.897   3.981  14.095  0.00  0.00    +0.000 A 
ATOM     10  N   UNL     1       5.104   3.697  15.166  0.00  0.00    +0.000 N 
ATOM     11  H   UNL     1       4.386   2.989  15.181  0.00  0.00    +0.000 HD
ENDBRANCH   1   2
BRANCH   1  14
ATOM     12  O   UNL     1       4.013   6.206  19.596  0.00  0.00    +0.000 OA
ATOM     13  C   UNL     1       3.399   6.535  18.584  0.00  0.00    +0.000 C 
ATOM     14  N   UNL     1       3.530   5.875  17.375  0.00  0.00    +0.000 N 
ATOM     15  H   UNL     1       2.978   6.143  16.566  0.00  0.00    +0.000 HD
BRANCH  13  16
ATOM     16  C   UNL     1       2.428   7.713  18.689  0.00  0.00    +0.000 A 
ATOM     17  C   UNL     1       1.827   7.919  20.033  0.00  0.00    +0.000 A 
ATOM     18  C   UNL     1       1.044   8.983  20.209  0.00  0.00    +0.000 A 
ATOM     19  C   UNL     1       0.778   9.889  19.079  0.00  0.00    +0.000 A 
ATOM     20  O   UNL     1       0.084  10.888  19.231  0.00  0.00    +0.000 OA
ATOM     21  N   UNL     1       1.339   9.530  17.876  0.00  0.00    +0.000 N 
ATOM     22  N   UNL     1       2.185   8.466  17.656  0.00  0.00    +0.000 NA
ATOM     23  H   UNL     1       1.163  10.146  17.086  0.00  0.00    +0.000 HD
ENDBRANCH  13  16
ENDBRANCH   1  14
BRANCH   1  24
ATOM     24  C   UNL     1       3.563   3.361  17.445  0.00  0.00    +0.000 C 
BRANCH  24  25
ATOM     25  C   UNL     1       2.785   3.184  18.727  0.00  0.00    +0.000 A 
ATOM     26  C   UNL     1       1.397   3.377  18.758  0.00  0.00    +0.000 A 
ATOM     27  C   UNL     1       0.688   3.222  19.950  0.00  0.00    +0.000 A 
ATOM     28  C   UNL     1       1.356   2.870  21.119  0.00  0.00    +0.000 A 
ATOM     29  C   UNL     1       2.730   2.669  21.101  0.00  0.00    +0.000 A 
ATOM     30  C   UNL     1       3.445   2.821  19.909  0.00  0.00    +0.000 A 
ENDBRANCH  24  25
ENDBRANCH   1  24
TORSDOF 5
ENDMDL
MODEL 3
REMARK VINA RESULT:      -8.3      1.062      1.615
REMARK  Name = 
REMARK  5 active torsions:
REMARK  status: ('A' for Active; 'I' for Inactive)
REMARK    1  A    between atoms: C_2  and  C_21
REMARK    2  A    between atoms: N_3  and  C_4
REMARK    3  A    between atoms: C_4  and  C_5
REMARK    4  A    between atoms: C_4  and  C_12
REMARK    5  A    between atoms: C_5  and  C_6
REMARK                            x       y       z     vdW  Elec       q    Type
REMARK                         _______ _______ _______ _____ _____    ______ ____
ROOT
ATOM      1  C   UNL     1       4.583   4.590  17.489  0.00  0.00    +0.000 C 
ENDROOT
BRANCH   1   2
ATOM      2  C   UNL     1       5.071   4.532  16.058  0.00  0.00    +0.000 A 
ATOM      3  N   UNL     1       4.717   3.768  15.039  0.00  0.00    +0.000 NA
ATOM      4  C   UNL     1       5.635   4.039  14.033  0.00  0.00    +0.000 A 
ATOM      5  C   UNL     1       5.789   3.500  12.745  0.00  0.00    +0.000 A 
ATOM      6  C   UNL     1       6.888   3.899  11.963  0.00  0.00    +0.000 A 
ATOM      7  C   UNL     1       7.819   4.822  12.445  0.00  0.00    +0.000 A 
ATOM      8  C   UNL     1       7.659   5.409  13.704  0.00  0.00    +0.000 A 
ATOM      9  C   UNL     1       6.550   4.998  14.449  0.00  0.00    +0.000 A 
ATOM     10  N   UNL     1       6.092   5.378  15.675  0.00  0.00    +0.000 N 
ATOM     11  H   UNL     1       6.519   6.083  16.257  0.00  0.00    +0.000 HD
ENDBRANCH   1   2
BRANCH   1  14
ATOM     12  O   UNL     1       4.965   7.315  17.592  0.00  0.00    +0.000 OA
ATOM     13  C   UNL     1       3.829   6.888  17.788  0.00  0.00    +0.000 C 
ATOM     14  N   UNL     1       3.507   5.544  17.721  0.00  0.00    +0.000 N 
ATOM     15  H   UNL     1       2.569   5.217  17.930  0.00  0.00    +0.000 HD
BRANCH  13  16
ATOM     16  C   UNL     1       2.740   7.899  18.149  0.00  0.00    +0.000 A 
ATOM     17  C   UNL     1       2.146   7.733  19.502  0.00  0.00    +0.000 A 
ATOM     18  C   UNL     1       1.257   8.639  19.908  0.00  0.00    +0.000 A 
ATOM     19  C   UNL     1       0.874   9.740  19.008  0.00  0.00    +0.000 A 
ATOM     20  O   UNL     1       0.080  10.599  19.376  0.00  0.00    +0.000 OA
ATOM     21  N   UNL     1       1.448   9.723  17.758  0.00  0.00    +0.000 N 
ATOM     22  N   UNL     1       2.398   8.834  17.310  0.00  0.00    +0.000 NA
ATOM     23  H   UNL     1       1.192  10.477  17.125  0.00  0.00    +0.000 HD
ENDBRANCH  13  16
ENDBRANCH   1  14
BRANCH   1  24
ATOM     24  C   UNL     1       4.259   3.163  18.025  0.00  0.00    +0.000 C 
BRANCH  24  25
ATOM     25  C   UNL     1       3.144   3.087  19.041  0.00  0.00    +0.000 A 
ATOM     26  C   UNL     1       3.413   3.191  20.413  0.00  0.00    +0.000 A 
ATOM     27  C   UNL     1       2.378   3.109  21.345  0.00  0.00    +0.000 A 
ATOM     28  C   UNL     1       1.067   2.927  20.916  0.00  0.00    +0.000 A 
ATOM     29  C   UNL     1       0.785   2.829  19.560  0.00  0.00    +0.000 A 
ATOM     30  C   UNL     1       1.818   2.912  18.622  0.00  0.00    +0.000 A 
ENDBRANCH  24  25
ENDBRANCH   1  24
TORSDOF 5
ENDMDL
MODEL 4
REMARK VINA RESULT:      -8.3      3.970      4.704
REMARK  Name = 
REMARK  5 active torsions:
REMARK  status: ('A' for Active; 'I' for Inactive)
REMARK    1  A    between atoms: C_2  and  C_21
REMARK    2  A    between atoms: N_3  and  C_4
REMARK    3  A    between atoms: C_4  and  C_5
REMARK    4  A    between atoms: C_4  and  C_12
REMARK    5  A    between atoms: C_5  and  C_6
REMARK                            x       y       z     vdW  Elec       q    Type
REMARK                         _______ _______ _______ _____ _____    ______ ____
ROOT
ATOM      1  C   UNL     1       6.104   6.349  17.125  0.00  0.00    +0.000 C 
ENDROOT
BRANCH   1   2
ATOM      2  C   UNL     1       6.396   5.582  15.854  0.00  0.00    +0.000 A 
ATOM      3  N   UNL     1       7.416   5.627  15.014  0.00  0.00    +0.000 NA
ATOM      4  C   UNL     1       7.047   4.833  13.937  0.00  0.00    +0.000 A 
ATOM      5  C   UNL     1       7.704   4.542  12.729  0.00  0.00    +0.000 A 
ATOM      6  C   UNL     1       7.039   3.771  11.758  0.00  0.00    +0.000 A 
ATOM      7  C   UNL     1       5.747   3.290  11.980  0.00  0.00    +0.000 A 
ATOM      8  C   UNL     1       5.093   3.525  13.193  0.00  0.00    +0.000 A 
ATOM      9  C   UNL     1       5.787   4.285  14.139  0.00  0.00    +0.000 A 
ATOM     10  N   UNL     1       5.460   4.671  15.405  0.00  0.00    +0.000 N 
ATOM     11  H   UNL     1       4.606   4.425  15.881  0.00  0.00    +0.000 HD
ENDBRANCH   1   2
BRANCH   1  14
ATOM     12  O   UNL     1       8.274   7.050  18.668  0.00  0.00    +0.000 OA
ATOM     13  C   UNL     1       7.735   7.933  18.005  0.00  0.00    +0.000 C 
ATOM     14  N   UNL     1       6.664   7.693  17.161  0.00  0.00    +0.000 N 
ATOM     15  H   UNL     1       6.212   8.451  16.657  0.00  0.00    +0.000 HD
BRANCH  13  16
ATOM     16  C   UNL     1       8.266   9.360  18.151  0.00  0.00    +0.000 A 
ATOM     17  C   UNL     1       9.264   9.555  19.235  0.00  0.00    +0.000 A 
ATOM     18  C   UNL     1       9.829  10.756  19.352  0.00  0.00    +0.000 A 
ATOM     19  C   UNL     1       9.433  11.842  18.441  0.00  0.00    +0.000 A 
ATOM     20  O   UNL     1       9.964  12.945  18.515  0.00  0.00    +0.000 OA
ATOM     21  N   UNL     1       8.442  11.537  17.537  0.00  0.00    +0.000 N 
ATOM     22  N   UNL     1       7.859  10.304  17.353  0.00  0.00    +0.000 NA
ATOM     23  H   UNL     1       8.156  12.278  16.901  0.00  0.00    +0.000 HD
ENDBRANCH  13  16
ENDBRANCH   1  14
BRANCH   1  24
ATOM     24  C   UNL     1       4.582   6.314  17.460  0.00  0.00    +0.000 C 
BRANCH  24  25
ATOM     25  C   UNL     1       4.086   5.040  18.100  0.00  0.00    +0.000 A 
ATOM     26  C   UNL     1       2.799   4.555  17.831  0.00  0.00    +0.000 A 
ATOM     27  C   UNL     1       2.344   3.382  18.435  0.00  0.00    +0.000 A 
ATOM     28  C   UNL     1       3.171   2.682  19.310  0.00  0.00    +0.000 A 
ATOM     29  C   UNL     1       4.451   3.149  19.580  0.00  0.00    +0.000 A 
ATOM     30  C   UNL     1       4.911   4.322  18.976  0.00  0.00    +0.000 A 
ENDBRANCH  24  25
ENDBRANCH   1  24
TORSDOF 5
ENDMDL
MODEL 5
REMARK VINA RESULT:      -8.2      3.744      8.905
REMARK  Name = 
REMARK  5 active torsions:
REMARK  status: ('A' for Active; 'I' for Inactive)
REMARK    1  A    between atoms: C_2  and  C_21
REMARK    2  A    between atoms: N_3  and  C_4
REMARK    3  A    between atoms: C_4  and  C_5
REMARK    4  A    between atoms: C_4  and  C_12
REMARK    5  A    between atoms: C_5  and  C_6
REMARK                            x       y       z     vdW  Elec       q    Type
REMARK                         _______ _______ _______ _____ _____    ______ ____
ROOT
ATOM      1  C   UNL     1       0.479  10.367  18.674  0.00  0.00    +0.000 C 
ENDROOT
BRANCH   1   2
ATOM      2  C   UNL     1       1.171  11.668  19.018  0.00  0.00    +0.000 A 
ATOM      3  N   UNL     1       1.081  12.459  20.073  0.00  0.00    +0.000 NA
ATOM      4  C   UNL     1       1.808  13.597  19.749  0.00  0.00    +0.000 A 
ATOM      5  C   UNL     1       2.030  14.790  20.456  0.00  0.00    +0.000 A 
ATOM      6  C   UNL     1       2.738  15.833  19.832  0.00  0.00    +0.000 A 
ATOM      7  C   UNL     1       3.224  15.697  18.530  0.00  0.00    +0.000 A 
ATOM      8  C   UNL     1       3.057  14.501  17.825  0.00  0.00    +0.000 A 
ATOM      9  C   UNL     1       2.359  13.482  18.479  0.00  0.00    +0.000 A 
ATOM     10  N   UNL     1       2.048  12.211  18.100  0.00  0.00    +0.000 N 
ATOM     11  H   UNL     1       2.317  11.787  17.225  0.00  0.00    +0.000 HD
ENDBRANCH   1   2
BRANCH   1  14
ATOM     12  O   UNL     1       2.318   9.035  17.117  0.00  0.00    +0.000 OA
ATOM     13  C   UNL     1       2.063   8.570  18.225  0.00  0.00    +0.000 C 
ATOM     14  N   UNL     1       1.187   9.173  19.112  0.00  0.00    +0.000 N 
ATOM     15  H   UNL     1       0.963   8.742  20.004  0.00  0.00    +0.000 HD
BRANCH  13  16
ATOM     16  C   UNL     1       2.729   7.249  18.615  0.00  0.00    +0.000 A 
ATOM     17  C   UNL     1       3.705   6.718  17.629  0.00  0.00    +0.000 A 
ATOM     18  C   UNL     1       4.384   5.618  17.954  0.00  0.00    +0.000 A 
ATOM     19  C   UNL     1       4.129   4.957  19.245  0.00  0.00    +0.000 A 
ATOM     20  O   UNL     1       4.765   3.962  19.573  0.00  0.00    +0.000 OA
ATOM     21  N   UNL     1       3.142   5.518  20.023  0.00  0.00    +0.000 N 
ATOM     22  N   UNL     1       2.445   6.672  19.747  0.00  0.00    +0.000 NA
ATOM     23  H   UNL     1       2.954   5.072  20.917  0.00  0.00    +0.000 HD
ENDBRANCH  13  16
ENDBRANCH   1  14
BRANCH   1  24
ATOM     24  C   UNL     1      -1.012  10.392  19.127  0.00  0.00    +0.000 C 
BRANCH  24  25
ATOM     25  C   UNL     1      -2.027  10.541  18.019  0.00  0.00    +0.000 A 
ATOM     26  C   UNL     1      -1.862   9.872  16.799  0.00  0.00    +0.000 A 
ATOM     27  C   UNL     1      -2.799  10.023  15.776  0.00  0.00    +0.000 A 
ATOM     28  C   UNL     1      -3.911  10.840  15.964  0.00  0.00    +0.000 A 
ATOM     29  C   UNL     1      -4.090  11.504  17.171  0.00  0.00    +0.000 A 
ATOM     30  C   UNL     1      -3.154  11.354  18.199  0.00  0.00    +0.000 A 
ENDBRANCH  24  25
ENDBRANCH   1  24
TORSDOF 5
ENDMDL
MODEL 6
REMARK VINA RESULT:      -8.1      3.071      6.966
REMARK  Name = 
REMARK  5 active torsions:
REMARK  status: ('A' for Active; 'I' for Inactive)
REMARK    1  A    between atoms: C_2  and  C_21
REMARK    2  A    between atoms: N_3  and  C_4
REMARK    3  A    between atoms: C_4  and  C_5
REMARK    4  A    between atoms: C_4  and  C_12
REMARK    5  A    between atoms: C_5  and  C_6
REMARK                            x       y       z     vdW  Elec       q    Type
REMARK                         _______ _______ _______ _____ _____    ______ ____
ROOT
ATOM      1  C   UNL     1       4.723   4.837  16.264  0.00  0.00    +0.000 C 
ENDROOT
BRANCH   1   2
ATOM      2  C   UNL     1       3.830   4.357  17.387  0.00  0.00    +0.000 A 
ATOM      3  N   UNL     1       2.630   4.745  17.783  0.00  0.00    +0.000 NA
ATOM      4  C   UNL     1       2.395   4.071  18.974  0.00  0.00    +0.000 A 
ATOM      5  C   UNL     1       1.313   4.116  19.869  0.00  0.00    +0.000 A 
ATOM      6  C   UNL     1       1.388   3.387  21.070  0.00  0.00    +0.000 A 
ATOM      7  C   UNL     1       2.513   2.620  21.378  0.00  0.00    +0.000 A 
ATOM      8  C   UNL     1       3.581   2.520  20.480  0.00  0.00    +0.000 A 
ATOM      9  C   UNL     1       3.468   3.249  19.293  0.00  0.00    +0.000 A 
ATOM     10  N   UNL     1       4.295   3.354  18.215  0.00  0.00    +0.000 N 
ATOM     11  H   UNL     1       5.170   2.865  18.109  0.00  0.00    +0.000 HD
ENDBRANCH   1   2
BRANCH   1  14
ATOM     12  O   UNL     1       6.918   4.654  17.915  0.00  0.00    +0.000 OA
ATOM     13  C   UNL     1       6.623   5.763  17.478  0.00  0.00    +0.000 C 
ATOM     14  N   UNL     1       5.568   5.973  16.607  0.00  0.00    +0.000 N 
ATOM     15  H   UNL     1       5.321   6.907  16.296  0.00  0.00    +0.000 HD
BRANCH  13  16
ATOM     16  C   UNL     1       7.452   6.960  17.947  0.00  0.00    +0.000 A 
ATOM     17  C   UNL     1       7.213   8.226  17.206  0.00  0.00    +0.000 A 
ATOM     18  C   UNL     1       7.839   9.324  17.628  0.00  0.00    +0.000 A 
ATOM     19  C   UNL     1       8.756   9.245  18.777  0.00  0.00    +0.000 A 
ATOM     20  O   UNL     1       9.318  10.250  19.198  0.00  0.00    +0.000 OA
ATOM     21  N   UNL     1       8.939   7.992  19.316  0.00  0.00    +0.000 N 
ATOM     22  N   UNL     1       8.285   6.840  18.940  0.00  0.00    +0.000 NA
ATOM     23  H   UNL     1       9.570   7.922  20.110  0.00  0.00    +0.000 HD
ENDBRANCH  13  16
ENDBRANCH   1  14
BRANCH   1  24
ATOM     24  C   UNL     1       5.520   3.652  15.640  0.00  0.00    +0.000 C 
BRANCH  24  25
ATOM     25  C   UNL     1       6.144   3.924  14.292  0.00  0.00    +0.000 A 
ATOM     26  C   UNL     1       7.202   4.833  14.160  0.00  0.00    +0.000 A 
ATOM     27  C   UNL     1       7.766   5.086  12.909  0.00  0.00    +0.000 A 
ATOM     28  C   UNL     1       7.279   4.433  11.780  0.00  0.00    +0.000 A 
ATOM     29  C   UNL     1       6.235   3.525  11.898  0.00  0.00    +0.000 A 
ATOM     30  C   UNL     1       5.669   3.267  13.149  0.00  0.00    +0.000 A 
ENDBRANCH  24  25
ENDBRANCH   1  24
TORSDOF 5
ENDMDL
MODEL 7
REMARK VINA RESULT:      -8.1      0.345      1.166
REMARK  Name = 
REMARK  5 active torsions:
REMARK  status: ('A' for Active; 'I' for Inactive)
REMARK    1  A    between atoms: C_2  and  C_21
REMARK    2  A    between atoms: N_3  and  C_4
REMARK    3  A    between atoms: C_4  and  C_5
REMARK    4  A    between atoms: C_4  and  C_12
REMARK    5  A    between atoms: C_5  and  C_6
REMARK                            x       y       z     vdW  Elec       q    Type
REMARK                         _______ _______ _______ _____ _____    ______ ____
ROOT
ATOM      1  C   UNL     1       4.224   4.421  17.251  0.00  0.00    +0.000 C 
ENDROOT
BRANCH   1   2
ATOM      2  C   UNL     1       4.876   4.416  15.886  0.00  0.00    +0.000 A 
ATOM      3  N   UNL     1       4.710   3.632  14.835  0.00  0.00    +0.000 NA
ATOM      4  C   UNL     1       5.710   3.990  13.941  0.00  0.00    +0.000 A 
ATOM      5  C   UNL     1       6.057   3.475  12.681  0.00  0.00    +0.000 A 
ATOM      6  C   UNL     1       7.200   3.975  12.030  0.00  0.00    +0.000 A 
ATOM      7  C   UNL     1       7.984   4.972  12.613  0.00  0.00    +0.000 A 
ATOM      8  C   UNL     1       7.630   5.534  13.844  0.00  0.00    +0.000 A 
ATOM      9  C   UNL     1       6.483   5.022  14.457  0.00  0.00    +0.000 A 
ATOM     10  N   UNL     1       5.856   5.351  15.621  0.00  0.00    +0.000 N 
ATOM     11  H   UNL     1       6.150   6.087  16.246  0.00  0.00    +0.000 HD
ENDBRANCH   1   2
BRANCH   1  14
ATOM     12  O   UNL     1       4.453   6.005  19.491  0.00  0.00    +0.000 OA
ATOM     13  C   UNL     1       3.560   6.273  18.690  0.00  0.00    +0.000 C 
ATOM     14  N   UNL     1       3.373   5.575  17.510  0.00  0.00    +0.000 N 
ATOM     15  H   UNL     1       2.601   5.791  16.888  0.00  0.00    +0.000 HD
BRANCH  13  16
ATOM     16  C   UNL     1       2.604   7.414  19.042  0.00  0.00    +0.000 A 
ATOM     17  C   UNL     1       2.322   8.367  17.936  0.00  0.00    +0.000 A 
ATOM     18  C   UNL     1       1.427   9.329  18.156  0.00  0.00    +0.000 A 
ATOM     19  C   UNL     1       0.778   9.436  19.473  0.00  0.00    +0.000 A 
ATOM     20  O   UNL     1      -0.070  10.296  19.683  0.00  0.00    +0.000 OA
ATOM     21  N   UNL     1       1.194   8.533  20.424  0.00  0.00    +0.000 N 
ATOM     22  N   UNL     1       2.083   7.500  20.232  0.00  0.00    +0.000 NA
ATOM     23  H   UNL     1       0.755   8.595  21.339  0.00  0.00    +0.000 HD
ENDBRANCH  13  16
ENDBRANCH   1  14
BRANCH   1  24
ATOM     24  C   UNL     1       3.511   3.063  17.533  0.00  0.00    +0.000 C 
BRANCH  24  25
ATOM     25  C   UNL     1       2.760   2.981  18.841  0.00  0.00    +0.000 A 
ATOM     26  C   UNL     1       3.437   2.745  20.045  0.00  0.00    +0.000 A 
ATOM     27  C   UNL     1       2.734   2.661  21.247  0.00  0.00    +0.000 A 
ATOM     28  C   UNL     1       1.350   2.815  21.258  0.00  0.00    +0.000 A 
ATOM     29  C   UNL     1       0.668   3.055  20.073  0.00  0.00    +0.000 A 
ATOM     30  C   UNL     1       1.368   3.142  18.866  0.00  0.00    +0.000 A 
ENDBRANCH  24  25
ENDBRANCH   1  24
TORSDOF 5
ENDMDL
MODEL 8
REMARK VINA RESULT:      -8.1      0.865      1.818
REMARK  Name = 
REMARK  5 active torsions:
REMARK  status: ('A' for Active; 'I' for Inactive)
REMARK    1  A    between atoms: C_2  and  C_21
REMARK    2  A    between atoms: N_3  and  C_4
REMARK    3  A    between atoms: C_4  and  C_5
REMARK    4  A    between atoms: C_4  and  C_12
REMARK    5  A    between atoms: C_5  and  C_6
REMARK                            x       y       z     vdW  Elec       q    Type
REMARK                         _______ _______ _______ _____ _____    ______ ____
ROOT
ATOM      1  C   UNL     1       4.390   4.358  17.348  0.00  0.00    +0.000 C 
ENDROOT
BRANCH   1   2
ATOM      2  C   UNL     1       4.971   4.380  15.951  0.00  0.00    +0.000 A 
ATOM      3  N   UNL     1       4.735   3.630  14.888  0.00  0.00    +0.000 NA
ATOM      4  C   UNL     1       5.695   3.996  13.954  0.00  0.00    +0.000 A 
ATOM      5  C   UNL     1       5.966   3.512  12.663  0.00  0.00    +0.000 A 
ATOM      6  C   UNL     1       7.083   4.009  11.967  0.00  0.00    +0.000 A 
ATOM      7  C   UNL     1       7.917   4.974  12.537  0.00  0.00    +0.000 A 
ATOM      8  C   UNL     1       7.638   5.506  13.800  0.00  0.00    +0.000 A 
ATOM      9  C   UNL     1       6.515   4.997  14.457  0.00  0.00    +0.000 A 
ATOM     10  N   UNL     1       5.955   5.305  15.662  0.00  0.00    +0.000 N 
ATOM     11  H   UNL     1       6.295   6.016  16.291  0.00  0.00    +0.000 HD
ENDBRANCH   1   2
BRANCH   1  14
ATOM     12  O   UNL     1       4.521   5.893  19.630  0.00  0.00    +0.000 OA
ATOM     13  C   UNL     1       3.613   6.125  18.835  0.00  0.00    +0.000 C 
ATOM     14  N   UNL     1       3.469   5.448  17.636  0.00  0.00    +0.000 N 
ATOM     15  H   UNL     1       2.684   5.632  17.020  0.00  0.00    +0.000 HD
BRANCH  13  16
ATOM     16  C   UNL     1       2.587   7.193  19.217  0.00  0.00    +0.000 A 
ATOM     17  C   UNL     1       1.912   6.984  20.525  0.00  0.00    +0.000 A 
ATOM     18  C   UNL     1       1.076   7.929  20.953  0.00  0.00    +0.000 A 
ATOM     19  C   UNL     1       0.825   9.116  20.117  0.00  0.00    +0.000 A 
ATOM     20  O   UNL     1       0.082  10.008  20.508  0.00  0.00    +0.000 OA
ATOM     21  N   UNL     1       1.460   9.137  18.897  0.00  0.00    +0.000 N 
ATOM     22  N   UNL     1       2.361   8.206  18.432  0.00  0.00    +0.000 NA
ATOM     23  H   UNL     1       1.296   9.950  18.309  0.00  0.00    +0.000 HD
ENDBRANCH  13  16
ENDBRANCH   1  14
BRANCH   1  24
ATOM     24  C   UNL     1       3.798   2.955  17.682  0.00  0.00    +0.000 C 
BRANCH  24  25
ATOM     25  C   UNL     1       2.895   2.901  18.891  0.00  0.00    +0.000 A 
ATOM     26  C   UNL     1       1.505   3.012  18.755  0.00  0.00    +0.000 A 
ATOM     27  C   UNL     1       0.678   2.971  19.878  0.00  0.00    +0.000 A 
ATOM     28  C   UNL     1       1.232   2.816  21.146  0.00  0.00    +0.000 A 
ATOM     29  C   UNL     1       2.608   2.699  21.294  0.00  0.00    +0.000 A 
ATOM     30  C   UNL     1       3.439   2.737  20.172  0.00  0.00    +0.000 A 
ENDBRANCH  24  25
ENDBRANCH   1  24
TORSDOF 5
ENDMDL
MODEL 9
REMARK VINA RESULT:      -8.1      1.883      2.699
REMARK  Name = 
REMARK  5 active torsions:
REMARK  status: ('A' for Active; 'I' for Inactive)
REMARK    1  A    between atoms: C_2  and  C_21
REMARK    2  A    between atoms: N_3  and  C_4
REMARK    3  A    between atoms: C_4  and  C_5
REMARK    4  A    between atoms: C_4  and  C_12
REMARK    5  A    between atoms: C_5  and  C_6
REMARK                            x       y       z     vdW  Elec       q    Type
REMARK                         _______ _______ _______ _____ _____    ______ ____
ROOT
ATOM      1  C   UNL     1       2.833   6.580  18.502  0.00  0.00    +0.000 C 
ENDROOT
BRANCH   1   2
ATOM      2  C   UNL     1       4.035   6.116  17.708  0.00  0.00    +0.000 A 
ATOM      3  N   UNL     1       5.220   6.665  17.507  0.00  0.00    +0.000 NA
ATOM      4  C   UNL     1       5.838   5.874  16.546  0.00  0.00    +0.000 A 
ATOM      5  C   UNL     1       7.085   5.991  15.909  0.00  0.00    +0.000 A 
ATOM      6  C   UNL     1       7.416   5.085  14.884  0.00  0.00    +0.000 A 
ATOM      7  C   UNL     1       6.531   4.076  14.501  0.00  0.00    +0.000 A 
ATOM      8  C   UNL     1       5.306   3.910  15.155  0.00  0.00    +0.000 A 
ATOM      9  C   UNL     1       5.014   4.820  16.174  0.00  0.00    +0.000 A 
ATOM     10  N   UNL     1       3.945   4.927  17.012  0.00  0.00    +0.000 N 
ATOM     11  H   UNL     1       3.156   4.299  17.024  0.00  0.00    +0.000 HD
ENDBRANCH   1   2
BRANCH   1  14
ATOM     12  O   UNL     1       1.585   8.217  20.331  0.00  0.00    +0.000 OA
ATOM     13  C   UNL     1       1.748   8.650  19.193  0.00  0.00    +0.000 C 
ATOM     14  N   UNL     1       2.398   7.937  18.200  0.00  0.00    +0.000 N 
ATOM     15  H   UNL     1       2.479   8.304  17.257  0.00  0.00    +0.000 HD
BRANCH  13  16
ATOM     16  C   UNL     1       1.175  10.030  18.866  0.00  0.00    +0.000 A 
ATOM     17  C   UNL     1      -0.250  10.229  19.243  0.00  0.00    +0.000 A 
ATOM     18  C   UNL     1      -0.778  11.440  19.066  0.00  0.00    +0.000 A 
ATOM     19  C   UNL     1       0.041  12.517  18.485  0.00  0.00    +0.000 A 
ATOM     20  O   UNL     1      -0.419  13.644  18.343  0.00  0.00    +0.000 OA
ATOM     21  N   UNL     1       1.319  12.166  18.114  0.00  0.00    +0.000 N 
ATOM     22  N   UNL     1       1.919  10.943  18.313  0.00  0.00    +0.000 NA
ATOM     23  H   UNL     1       1.897  12.899  17.710  0.00  0.00    +0.000 HD
ENDBRANCH  13  16
ENDBRANCH   1  14
BRANCH   1  24
ATOM     24  C   UNL     1       1.677   5.538  18.424  0.00  0.00    +0.000 C 
BRANCH  24  25
ATOM     25  C   UNL     1       1.678   4.483  19.505  0.00  0.00    +0.000 A 
ATOM     26  C   UNL     1       2.243   4.742  20.762  0.00  0.00    +0.000 A 
ATOM     27  C   UNL     1       2.248   3.758  21.751  0.00  0.00    +0.000 A 
ATOM     28  C   UNL     1       1.688   2.510  21.496  0.00  0.00    +0.000 A 
ATOM     29  C   UNL     1       1.120   2.242  20.258  0.00  0.00    +0.000 A 
ATOM     30  C   UNL     1       1.110   3.225  19.264  0.00  0.00    +0.000 A 
ENDBRANCH  24  25
ENDBRANCH   1  24
TORSDOF 5
ENDMDL
