MODEL 1
REMARK VINA RESULT:      -8.4      0.000      0.000
REMARK  Name = 
REMARK  5 active torsions:
REMARK  status: ('A' for Active; 'I' for Inactive)
REMARK    1  A    between atoms: C_2  and  C_16
REMARK    2  A    between atoms: N_3  and  C_4
REMARK    3  A    between atoms: C_9  and  C_10
REMARK    4  A    between atoms: N_12  and  C_13
REMARK    5  A    between atoms: C_20  and  N_21
REMARK                            x       y       z     vdW  Elec       q    Type
REMARK                         _______ _______ _______ _____ _____    ______ ____
ROOT
ATOM      1  O   UNL     1       2.441   8.301  17.012  0.00  0.00    +0.000 OA
ATOM      2  C   UNL     1       2.620   7.837  18.130  0.00  0.00    +0.000 C 
ATOM      3  N   UNL     1       3.387   6.722  18.425  0.00  0.00    +0.000 N 
ATOM      4  H   UNL     1       3.149   6.218  19.275  0.00  0.00    +0.000 HD
ENDROOT
BRANCH   3   5
ATOM      5  C   UNL     1       4.101   5.998  17.442  0.00  0.00    +0.000 A 
ATOM      6  C   UNL     1       5.098   6.633  16.689  0.00  0.00    +0.000 A 
ATOM      7  C   UNL     1       5.866   5.907  15.773  0.00  0.00    +0.000 A 
ATOM      8  C   UNL     1       5.640   4.545  15.595  0.00  0.00    +0.000 A 
ATOM      9  C   UNL     1       4.639   3.905  16.329  0.00  0.00    +0.000 A 
ATOM     10  C   UNL     1       3.862   4.625  17.249  0.00  0.00    +0.000 A 
BRANCH  10  11
ATOM     11  C   UNL     1       2.750   3.889  17.908  0.00  0.00    +0.000 C 
ATOM     12  O   UNL     1       1.665   3.786  17.347  0.00  0.00    +0.000 OA
ATOM     13  N   UNL     1       3.014   3.379  19.172  0.00  0.00    +0.000 N 
ATOM     14  H   UNL     1       3.852   3.708  19.644  0.00  0.00    +0.000 HD
BRANCH  13  15
ATOM     15  C   UNL     1       1.986   2.788  19.973  0.00  0.00    +0.000 C 
ATOM     16  C   UNL     1       1.123   3.635  20.867  0.00  0.00    +0.000 C 
ATOM     17  C   UNL     1       2.129   2.696  21.466  0.00  0.00    +0.000 C 
ENDBRANCH  13  15
ENDBRANCH  10  11
ENDBRANCH   3   5
BRANCH   2  18
ATOM     18  C   UNL     1       1.853   8.377  19.278  0.00  0.00    +0.000 A 
ATOM     19  C   UNL     1       1.714   7.588  20.419  0.00  0.00    +0.000 A 
ATOM     20  C   UNL     1       1.021   8.090  21.514  0.00  0.00    +0.000 A 
ATOM     21  C   UNL     1       0.472   9.377  21.468  0.00  0.00    +0.000 A 
ATOM     22  C   UNL     1       0.596  10.187  20.330  0.00  0.00    +0.000 A 
ATOM     23  C   UNL     1       1.288   9.661  19.228  0.00  0.00    +0.000 A 
BRANCH  22  24
ATOM     24  N   UNL     1       0.071  11.507  20.291  0.00  0.00    +0.000 N 
ATOM     25  C   UNL     1      -1.271  11.804  19.848  0.00  0.00    +0.000 C 
ATOM     26  C   UNL     1      -1.237  13.280  19.518  0.00  0.00    +0.000 C 
ATOM     27  C   UNL     1      -0.228  13.835  20.505  0.00  0.00    +0.000 C 
ATOM     28  C   UNL     1       0.721  12.678  20.716  0.00  0.00    +0.000 C 
ATOM     29  O   UNL     1       1.825  12.810  21.221  0.00  0.00    +0.000 OA
ENDBRANCH  22  24
ENDBRANCH   2  18
TORSDOF 5
ENDMDL
MODEL 2
REMARK VINA RESULT:      -8.3      1.746      1.961
REMARK  Name = 
REMARK  5 active torsions:
REMARK  status: ('A' for Active; 'I' for Inactive)
REMARK    1  A    between atoms: C_2  and  C_16
REMARK    2  A    between atoms: N_3  and  C_4
REMARK    3  A    between atoms: C_9  and  C_10
REMARK    4  A    between atoms: N_12  and  C_13
REMARK    5  A    between atoms: C_20  and  N_21
REMARK                            x       y       z     vdW  Elec       q    Type
REMARK                         _______ _______ _______ _____ _____    ______ ____
ROOT
ATOM      1  O   UNL     1       1.940   5.724  17.749  0.00  0.00    +0.000 OA
ATOM      2  C   UNL     1       2.600   6.692  18.103  0.00  0.00    +0.000 C 
ATOM      3  N   UNL     1       3.945   6.891  17.835  0.00  0.00    +0.000 N 
ATOM      4  H   UNL     1       4.454   7.486  18.482  0.00  0.00    +0.000 HD
ENDROOT
BRANCH   3   5
ATOM      5  C   UNL     1       4.718   5.987  17.068  0.00  0.00    +0.000 A 
ATOM      6  C   UNL     1       5.048   6.298  15.742  0.00  0.00    +0.000 A 
ATOM      7  C   UNL     1       5.880   5.452  15.002  0.00  0.00    +0.000 A 
ATOM      8  C   UNL     1       6.381   4.287  15.575  0.00  0.00    +0.000 A 
ATOM      9  C   UNL     1       6.047   3.960  16.890  0.00  0.00    +0.000 A 
ATOM     10  C   UNL     1       5.211   4.801  17.641  0.00  0.00    +0.000 A 
BRANCH  10  11
ATOM     11  C   UNL     1       4.821   4.324  18.995  0.00  0.00    +0.000 C 
ATOM     12  O   UNL     1       5.566   4.514  19.950  0.00  0.00    +0.000 OA
ATOM     13  N   UNL     1       3.614   3.644  19.083  0.00  0.00    +0.000 N 
ATOM     14  H   UNL     1       3.185   3.338  18.214  0.00  0.00    +0.000 HD
BRANCH  13  15
ATOM     15  C   UNL     1       3.201   3.002  20.293  0.00  0.00    +0.000 C 
ATOM     16  C   UNL     1       1.779   2.549  20.479  0.00  0.00    +0.000 C 
ATOM     17  C   UNL     1       2.307   3.707  21.274  0.00  0.00    +0.000 C 
ENDBRANCH  13  15
ENDBRANCH  10  11
ENDBRANCH   3   5
BRANCH   2  18
ATOM     18  C   UNL     1       2.004   7.686  19.026  0.00  0.00    +0.000 A 
ATOM     19  C   UNL     1       1.842   7.340  20.367  0.00  0.00    +0.000 A 
ATOM     20  C   UNL     1       1.309   8.271  21.251  0.00  0.00    +0.000 A 
ATOM     21  C   UNL     1       0.941   9.543  20.795  0.00  0.00    +0.000 A 
ATOM     22  C   UNL     1       1.092   9.911  19.451  0.00  0.00    +0.000 A 
ATOM     23  C   UNL     1       1.619   8.956  18.568  0.00  0.00    +0.000 A 
BRANCH  22  24
ATOM     24  N   UNL     1       0.753  11.212  18.990  0.00  0.00    +0.000 N 
ATOM     25  C   UNL     1       1.745  12.187  18.596  0.00  0.00    +0.000 C 
ATOM     26  C   UNL     1       1.010  13.508  18.650  0.00  0.00    +0.000 C 
ATOM     27  C   UNL     1      -0.411  13.133  18.277  0.00  0.00    +0.000 C 
ATOM     28  C   UNL     1      -0.543  11.719  18.794  0.00  0.00    +0.000 C 
ATOM     29  O   UNL     1      -1.620  11.164  18.941  0.00  0.00    +0.000 OA
ENDBRANCH  22  24
ENDBRANCH   2  18
TORSDOF 5
ENDMDL
MODEL 3
REMARK VINA RESULT:      -8.3      1.500      1.674
REMARK  Name = 
REMARK  5 active torsions:
REMARK  status: ('A' for Active; 'I' for Inactive)
REMARK    1  A    between atoms: C_2  and  C_16
REMARK    2  A    between atoms: N_3  and  C_4
REMARK    3  A    between atoms: C_9  and  C_10
REMARK    4  A    between atoms: N_12  and  C_13
REMARK    5  A    between atoms: C_20  and  N_21
REMARK                            x       y       z     vdW  Elec       q    Type
REMARK                         _______ _______ _______ _____ _____    ______ ____
ROOT
ATOM      1  O   UNL     1       3.560   6.074  20.049  0.00  0.00    +0.000 OA
ATOM      2  C   UNL     1       2.842   6.723  19.300  0.00  0.00    +0.000 C 
ATOM      3  N   UNL     1       2.930   6.740  17.917  0.00  0.00    +0.000 N 
ATOM      4  H   UNL     1       2.579   7.572  17.449  0.00  0.00    +0.000 HD
ENDROOT
BRANCH   3   5
ATOM      5  C   UNL     1       3.863   5.958  17.196  0.00  0.00    +0.000 A 
ATOM      6  C   UNL     1       4.903   6.579  16.491  0.00  0.00    +0.000 A 
ATOM      7  C   UNL     1       5.878   5.814  15.844  0.00  0.00    +0.000 A 
ATOM      8  C   UNL     1       5.818   4.423  15.889  0.00  0.00    +0.000 A 
ATOM      9  C   UNL     1       4.779   3.794  16.576  0.00  0.00    +0.000 A 
ATOM     10  C   UNL     1       3.795   4.553  17.227  0.00  0.00    +0.000 A 
BRANCH  10  11
ATOM     11  C   UNL     1       2.668   3.804  17.843  0.00  0.00    +0.000 C 
ATOM     12  O   UNL     1       1.588   3.736  17.266  0.00  0.00    +0.000 OA
ATOM     13  N   UNL     1       2.912   3.240  19.088  0.00  0.00    +0.000 N 
ATOM     14  H   UNL     1       3.747   3.540  19.582  0.00  0.00    +0.000 HD
BRANCH  13  15
ATOM     15  C   UNL     1       1.869   2.629  19.853  0.00  0.00    +0.000 C 
ATOM     16  C   UNL     1       0.928   3.462  20.679  0.00  0.00    +0.000 C 
ATOM     17  C   UNL     1       1.938   2.581  21.354  0.00  0.00    +0.000 C 
ENDBRANCH  13  15
ENDBRANCH  10  11
ENDBRANCH   3   5
BRANCH   2  18
ATOM     18  C   UNL     1       1.888   7.705  19.867  0.00  0.00    +0.000 A 
ATOM     19  C   UNL     1       1.265   7.408  21.078  0.00  0.00    +0.000 A 
ATOM     20  C   UNL     1       0.388   8.329  21.637  0.00  0.00    +0.000 A 
ATOM     21  C   UNL     1       0.137   9.544  20.987  0.00  0.00    +0.000 A 
ATOM     22  C   UNL     1       0.749   9.863  19.767  0.00  0.00    +0.000 A 
ATOM     23  C   UNL     1       1.623   8.917  19.209  0.00  0.00    +0.000 A 
BRANCH  22  24
ATOM     24  N   UNL     1       0.526  11.109  19.121  0.00  0.00    +0.000 N 
ATOM     25  C   UNL     1       1.599  12.000  18.745  0.00  0.00    +0.000 C 
ATOM     26  C   UNL     1       0.921  13.339  18.555  0.00  0.00    +0.000 C 
ATOM     27  C   UNL     1      -0.460  12.964  18.053  0.00  0.00    +0.000 C 
ATOM     28  C   UNL     1      -0.714  11.626  18.708  0.00  0.00    +0.000 C 
ATOM     29  O   UNL     1      -1.824  11.124  18.782  0.00  0.00    +0.000 OA
ENDBRANCH  22  24
ENDBRANCH   2  18
TORSDOF 5
ENDMDL
MODEL 4
REMARK VINA RESULT:      -8.3      2.046      3.787
REMARK  Name = 
REMARK  5 active torsions:
REMARK  status: ('A' for Active; 'I' for Inactive)
REMARK    1  A    between atoms: C_2  and  C_16
REMARK    2  A    between atoms: N_3  and  C_4
REMARK    3  A    between atoms: C_9  and  C_10
REMARK    4  A    between atoms: N_12  and  C_13
REMARK    5  A    between atoms: C_20  and  N_21
REMARK                            x       y       z     vdW  Elec       q    Type
REMARK                         _______ _______ _______ _____ _____    ______ ____
ROOT
ATOM      1  O   UNL     1       2.555   6.250  20.412  0.00  0.00    +0.000 OA
ATOM      2  C   UNL     1       2.214   6.683  19.319  0.00  0.00    +0.000 C 
ATOM      3  N   UNL     1       2.252   5.978  18.126  0.00  0.00    +0.000 N 
ATOM      4  H   UNL     1       2.331   6.528  17.276  0.00  0.00    +0.000 HD
ENDROOT
BRANCH   3   5
ATOM      5  C   UNL     1       2.665   4.628  18.045  0.00  0.00    +0.000 A 
ATOM      6  C   UNL     1       1.807   3.605  18.470  0.00  0.00    +0.000 A 
ATOM      7  C   UNL     1       2.170   2.263  18.317  0.00  0.00    +0.000 A 
ATOM      8  C   UNL     1       3.396   1.932  17.747  0.00  0.00    +0.000 A 
ATOM      9  C   UNL     1       4.266   2.943  17.332  0.00  0.00    +0.000 A 
ATOM     10  C   UNL     1       3.910   4.292  17.483  0.00  0.00    +0.000 A 
BRANCH  10  11
ATOM     11  C   UNL     1       4.938   5.301  17.114  0.00  0.00    +0.000 C 
ATOM     12  O   UNL     1       4.729   6.080  16.191  0.00  0.00    +0.000 OA
ATOM     13  N   UNL     1       6.120   5.272  17.843  0.00  0.00    +0.000 N 
ATOM     14  H   UNL     1       6.291   4.455  18.423  0.00  0.00    +0.000 HD
BRANCH  13  15
ATOM     15  C   UNL     1       7.242   6.083  17.486  0.00  0.00    +0.000 C 
ATOM     16  C   UNL     1       8.043   6.797  18.540  0.00  0.00    +0.000 C 
ATOM     17  C   UNL     1       7.178   7.581  17.597  0.00  0.00    +0.000 C 
ENDBRANCH  13  15
ENDBRANCH  10  11
ENDBRANCH   3   5
BRANCH   2  18
ATOM     18  C   UNL     1       1.874   8.118  19.174  0.00  0.00    +0.000 A 
ATOM     19  C   UNL     1       2.355   8.810  18.063  0.00  0.00    +0.000 A 
ATOM     20  C   UNL     1       2.022  10.149  17.898  0.00  0.00    +0.000 A 
ATOM     21  C   UNL     1       1.211  10.793  18.841  0.00  0.00    +0.000 A 
ATOM     22  C   UNL     1       0.719  10.118  19.968  0.00  0.00    +0.000 A 
ATOM     23  C   UNL     1       1.074   8.769  20.127  0.00  0.00    +0.000 A 
BRANCH  22  24
ATOM     24  N   UNL     1      -0.133  10.757  20.909  0.00  0.00    +0.000 N 
ATOM     25  C   UNL     1      -1.251  11.584  20.517  0.00  0.00    +0.000 C 
ATOM     26  C   UNL     1      -1.553  12.408  21.750  0.00  0.00    +0.000 C 
ATOM     27  C   UNL     1      -1.184  11.480  22.890  0.00  0.00    +0.000 C 
ATOM     28  C   UNL     1      -0.068  10.644  22.308  0.00  0.00    +0.000 C 
ATOM     29  O   UNL     1       0.686   9.973  22.994  0.00  0.00    +0.000 OA
ENDBRANCH  22  24
ENDBRANCH   2  18
TORSDOF 5
ENDMDL
MODEL 5
REMARK VINA RESULT:      -8.3      2.227      8.142
REMARK  Name = 
REMARK  5 active torsions:
REMARK  status: ('A' for Active; 'I' for Inactive)
REMARK    1  A    between atoms: C_2  and  C_16
REMARK    2  A    between atoms: N_3  and  C_4
REMARK    3  A    between atoms: C_9  and  C_10
REMARK    4  A    between atoms: N_12  and  C_13
REMARK    5  A    between atoms: C_20  and  N_21
REMARK                            x       y       z     vdW  Elec       q    Type
REMARK                         _______ _______ _______ _____ _____    ______ ____
ROOT
ATOM      1  O   UNL     1       2.122  10.258  17.682  0.00  0.00    +0.000 OA
ATOM      2  C   UNL     1       1.651   9.981  18.778  0.00  0.00    +0.000 C 
ATOM      3  N   UNL     1       1.115  10.890  19.676  0.00  0.00    +0.000 N 
ATOM      4  H   UNL     1       1.128  10.622  20.656  0.00  0.00    +0.000 HD
ENDROOT
BRANCH   3   5
ATOM      5  C   UNL     1       1.016  12.274  19.402  0.00  0.00    +0.000 A 
ATOM      6  C   UNL     1       2.082  13.129  19.713  0.00  0.00    +0.000 A 
ATOM      7  C   UNL     1       2.029  14.483  19.371  0.00  0.00    +0.000 A 
ATOM      8  C   UNL     1       0.909  14.998  18.725  0.00  0.00    +0.000 A 
ATOM      9  C   UNL     1      -0.166  14.159  18.422  0.00  0.00    +0.000 A 
ATOM     10  C   UNL     1      -0.122  12.798  18.763  0.00  0.00    +0.000 A 
BRANCH  10  11
ATOM     11  C   UNL     1      -1.351  12.002  18.500  0.00  0.00    +0.000 C 
ATOM     12  O   UNL     1      -1.867  11.354  19.404  0.00  0.00    +0.000 OA
ATOM     13  N   UNL     1      -1.829  12.020  17.196  0.00  0.00    +0.000 N 
ATOM     14  H   UNL     1      -1.214  12.391  16.478  0.00  0.00    +0.000 HD
BRANCH  13  15
ATOM     15  C   UNL     1      -2.906  11.176  16.781  0.00  0.00    +0.000 C 
ATOM     16  C   UNL     1      -2.643   9.795  16.247  0.00  0.00    +0.000 C 
ATOM     17  C   UNL     1      -3.133  10.874  15.326  0.00  0.00    +0.000 C 
ENDBRANCH  13  15
ENDBRANCH  10  11
ENDBRANCH   3   5
BRANCH   2  18
ATOM     18  C   UNL     1       1.780   8.601  19.302  0.00  0.00    +0.000 A 
ATOM     19  C   UNL     1       1.255   8.313  20.562  0.00  0.00    +0.000 A 
ATOM     20  C   UNL     1       1.343   7.018  21.056  0.00  0.00    +0.000 A 
ATOM     21  C   UNL     1       1.953   6.015  20.293  0.00  0.00    +0.000 A 
ATOM     22  C   UNL     1       2.491   6.281  19.027  0.00  0.00    +0.000 A 
ATOM     23  C   UNL     1       2.405   7.597  18.545  0.00  0.00    +0.000 A 
BRANCH  22  24
ATOM     24  N   UNL     1       3.079   5.259  18.234  0.00  0.00    +0.000 N 
ATOM     25  C   UNL     1       4.504   5.157  18.017  0.00  0.00    +0.000 C 
ATOM     26  C   UNL     1       4.632   4.282  16.790  0.00  0.00    +0.000 C 
ATOM     27  C   UNL     1       3.440   3.352  16.897  0.00  0.00    +0.000 C 
ATOM     28  C   UNL     1       2.407   4.194  17.609  0.00  0.00    +0.000 C 
ATOM     29  O   UNL     1       1.221   3.907  17.636  0.00  0.00    +0.000 OA
ENDBRANCH  22  24
ENDBRANCH   2  18
TORSDOF 5
ENDMDL
MODEL 6
REMARK VINA RESULT:      -8.3      0.960      1.218
REMARK  Name = 
REMARK  5 active torsions:
REMARK  status: ('A' for Active; 'I' for Inactive)
REMARK    1  A    between atoms: C_2  and  C_16
REMARK    2  A    between atoms: N_3  and  C_4
REMARK    3  A    between atoms: C_9  and  C_10
REMARK    4  A    between atoms: N_12  and  C_13
REMARK    5  A    between atoms: C_20  and  N_21
REMARK                            x       y       z     vdW  Elec       q    Type
REMARK                         _______ _______ _______ _____ _____    ______ ____
ROOT
ATOM      1  O   UNL     1       2.492   8.448  17.121  0.00  0.00    +0.000 OA
ATOM      2  C   UNL     1       2.579   7.898  18.211  0.00  0.00    +0.000 C 
ATOM      3  N   UNL     1       3.263   6.720  18.466  0.00  0.00    +0.000 N 
ATOM      4  H   UNL     1       2.947   6.175  19.263  0.00  0.00    +0.000 HD
ENDROOT
BRANCH   3   5
ATOM      5  C   UNL     1       3.989   6.022  17.472  0.00  0.00    +0.000 A 
ATOM      6  C   UNL     1       4.957   6.691  16.711  0.00  0.00    +0.000 A 
ATOM      7  C   UNL     1       5.738   5.994  15.784  0.00  0.00    +0.000 A 
ATOM      8  C   UNL     1       5.554   4.626  15.603  0.00  0.00    +0.000 A 
ATOM      9  C   UNL     1       4.582   3.952  16.346  0.00  0.00    +0.000 A 
ATOM     10  C   UNL     1       3.792   4.643  17.277  0.00  0.00    +0.000 A 
BRANCH  10  11
ATOM     11  C   UNL     1       2.712   3.870  17.945  0.00  0.00    +0.000 C 
ATOM     12  O   UNL     1       1.619   3.748  17.402  0.00  0.00    +0.000 OA
ATOM     13  N   UNL     1       3.012   3.347  19.196  0.00  0.00    +0.000 N 
ATOM     14  H   UNL     1       3.850   3.690  19.657  0.00  0.00    +0.000 HD
BRANCH  13  15
ATOM     15  C   UNL     1       2.015   2.719  20.006  0.00  0.00    +0.000 C 
ATOM     16  C   UNL     1       1.078   3.539  20.850  0.00  0.00    +0.000 C 
ATOM     17  C   UNL     1       2.137   2.701  21.504  0.00  0.00    +0.000 C 
ENDBRANCH  13  15
ENDBRANCH  10  11
ENDBRANCH   3   5
BRANCH   2  18
ATOM     18  C   UNL     1       1.780   8.404  19.352  0.00  0.00    +0.000 A 
ATOM     19  C   UNL     1       1.686   7.620  20.502  0.00  0.00    +0.000 A 
ATOM     20  C   UNL     1       0.964   8.092  21.590  0.00  0.00    +0.000 A 
ATOM     21  C   UNL     1       0.339   9.344  21.529  0.00  0.00    +0.000 A 
ATOM     22  C   UNL     1       0.417  10.147  20.383  0.00  0.00    +0.000 A 
ATOM     23  C   UNL     1       1.140   9.652  19.287  0.00  0.00    +0.000 A 
BRANCH  22  24
ATOM     24  N   UNL     1      -0.185  11.434  20.330  0.00  0.00    +0.000 N 
ATOM     25  C   UNL     1       0.392  12.596  20.965  0.00  0.00    +0.000 C 
ATOM     26  C   UNL     1      -0.759  13.573  21.070  0.00  0.00    +0.000 C 
ATOM     27  C   UNL     1      -1.597  13.258  19.847  0.00  0.00    +0.000 C 
ATOM     28  C   UNL     1      -1.354  11.782  19.632  0.00  0.00    +0.000 C 
ATOM     29  O   UNL     1      -2.064  11.089  18.920  0.00  0.00    +0.000 OA
ENDBRANCH  22  24
ENDBRANCH   2  18
TORSDOF 5
ENDMDL
MODEL 7
REMARK VINA RESULT:      -8.2      1.992      4.051
REMARK  Name = 
REMARK  5 active torsions:
REMARK  status: ('A' for Active; 'I' for Inactive)
REMARK    1  A    between atoms: C_2  and  C_16
REMARK    2  A    between atoms: N_3  and  C_4
REMARK    3  A    between atoms: C_9  and  C_10
REMARK    4  A    between atoms: N_12  and  C_13
REMARK    5  A    between atoms: C_20  and  N_21
REMARK                            x       y       z     vdW  Elec       q    Type
REMARK                         _______ _______ _______ _____ _____    ______ ____
ROOT
ATOM      1  O   UNL     1       1.960   6.016  17.924  0.00  0.00    +0.000 OA
ATOM      2  C   UNL     1       2.266   6.700  18.892  0.00  0.00    +0.000 C 
ATOM      3  N   UNL     1       2.786   6.222  20.084  0.00  0.00    +0.000 N 
ATOM      4  H   UNL     1       2.628   6.792  20.910  0.00  0.00    +0.000 HD
ENDROOT
BRANCH   3   5
ATOM      5  C   UNL     1       3.064   4.853  20.307  0.00  0.00    +0.000 A 
ATOM      6  C   UNL     1       2.266   4.109  21.188  0.00  0.00    +0.000 A 
ATOM      7  C   UNL     1       2.479   2.738  21.352  0.00  0.00    +0.000 A 
ATOM      8  C   UNL     1       3.494   2.098  20.647  0.00  0.00    +0.000 A 
ATOM      9  C   UNL     1       4.304   2.831  19.777  0.00  0.00    +0.000 A 
ATOM     10  C   UNL     1       4.099   4.208  19.606  0.00  0.00    +0.000 A 
BRANCH  10  11
ATOM     11  C   UNL     1       5.073   4.929  18.744  0.00  0.00    +0.000 C 
ATOM     12  O   UNL     1       5.963   5.601  19.254  0.00  0.00    +0.000 OA
ATOM     13  N   UNL     1       4.884   4.816  17.373  0.00  0.00    +0.000 N 
ATOM     14  H   UNL     1       3.998   4.435  17.054  0.00  0.00    +0.000 HD
BRANCH  13  15
ATOM     15  C   UNL     1       5.654   5.582  16.443  0.00  0.00    +0.000 C 
ATOM     16  C   UNL     1       5.703   5.206  14.988  0.00  0.00    +0.000 C 
ATOM     17  C   UNL     1       6.920   5.030  15.849  0.00  0.00    +0.000 C 
ENDBRANCH  13  15
ENDBRANCH  10  11
ENDBRANCH   3   5
BRANCH   2  18
ATOM     18  C   UNL     1       1.930   8.144  18.903  0.00  0.00    +0.000 A 
ATOM     19  C   UNL     1       2.401   8.947  17.866  0.00  0.00    +0.000 A 
ATOM     20  C   UNL     1       2.073  10.297  17.847  0.00  0.00    +0.000 A 
ATOM     21  C   UNL     1       1.276  10.840  18.862  0.00  0.00    +0.000 A 
ATOM     22  C   UNL     1       0.794  10.052  19.917  0.00  0.00    +0.000 A 
ATOM     23  C   UNL     1       1.144   8.693  19.929  0.00  0.00    +0.000 A 
BRANCH  22  24
ATOM     24  N   UNL     1      -0.045  10.591  20.930  0.00  0.00    +0.000 N 
ATOM     25  C   UNL     1      -1.188  11.426  20.639  0.00  0.00    +0.000 C 
ATOM     26  C   UNL     1      -1.473  12.136  21.944  0.00  0.00    +0.000 C 
ATOM     27  C   UNL     1      -1.056  11.122  22.991  0.00  0.00    +0.000 C 
ATOM     28  C   UNL     1       0.059  10.361  22.312  0.00  0.00    +0.000 C 
ATOM     29  O   UNL     1       0.844   9.651  22.920  0.00  0.00    +0.000 OA
ENDBRANCH  22  24
ENDBRANCH   2  18
TORSDOF 5
ENDMDL
MODEL 8
REMARK VINA RESULT:      -8.2      1.962      4.087
REMARK  Name = 
REMARK  5 active torsions:
REMARK  status: ('A' for Active; 'I' for Inactive)
REMARK    1  A    between atoms: C_2  and  C_16
REMARK    2  A    between atoms: N_3  and  C_4
REMARK    3  A    between atoms: C_9  and  C_10
REMARK    4  A    between atoms: N_12  and  C_13
REMARK    5  A    between atoms: C_20  and  N_21
REMARK                            x       y       z     vdW  Elec       q    Type
REMARK                         _______ _______ _______ _____ _____    ______ ____
ROOT
ATOM      1  O   UNL     1       2.119   5.960  17.968  0.00  0.00    +0.000 OA
ATOM      2  C   UNL     1       2.305   6.625  18.979  0.00  0.00    +0.000 C 
ATOM      3  N   UNL     1       2.694   6.123  20.211  0.00  0.00    +0.000 N 
ATOM      4  H   UNL     1       2.437   6.673  21.027  0.00  0.00    +0.000 HD
ENDROOT
BRANCH   3   5
ATOM      5  C   UNL     1       2.963   4.752  20.433  0.00  0.00    +0.000 A 
ATOM      6  C   UNL     1       2.121   3.997  21.261  0.00  0.00    +0.000 A 
ATOM      7  C   UNL     1       2.329   2.624  21.422  0.00  0.00    +0.000 A 
ATOM      8  C   UNL     1       3.383   1.995  20.764  0.00  0.00    +0.000 A 
ATOM      9  C   UNL     1       4.236   2.740  19.948  0.00  0.00    +0.000 A 
ATOM     10  C   UNL     1       4.037   4.119  19.782  0.00  0.00    +0.000 A 
BRANCH  10  11
ATOM     11  C   UNL     1       5.055   4.852  18.983  0.00  0.00    +0.000 C 
ATOM     12  O   UNL     1       5.894   5.546  19.546  0.00  0.00    +0.000 OA
ATOM     13  N   UNL     1       4.963   4.723  17.603  0.00  0.00    +0.000 N 
ATOM     14  H   UNL     1       4.108   4.321  17.227  0.00  0.00    +0.000 HD
BRANCH  13  15
ATOM     15  C   UNL     1       5.780   5.497  16.721  0.00  0.00    +0.000 C 
ATOM     16  C   UNL     1       5.177   6.558  15.842  0.00  0.00    +0.000 C 
ATOM     17  C   UNL     1       5.714   5.296  15.232  0.00  0.00    +0.000 C 
ENDBRANCH  13  15
ENDBRANCH  10  11
ENDBRANCH   3   5
BRANCH   2  18
ATOM     18  C   UNL     1       1.951   8.064  18.985  0.00  0.00    +0.000 A 
ATOM     19  C   UNL     1       2.304   8.843  17.884  0.00  0.00    +0.000 A 
ATOM     20  C   UNL     1       1.955  10.187  17.861  0.00  0.00    +0.000 A 
ATOM     21  C   UNL     1       1.256  10.750  18.936  0.00  0.00    +0.000 A 
ATOM     22  C   UNL     1       0.894   9.987  20.055  0.00  0.00    +0.000 A 
ATOM     23  C   UNL     1       1.264   8.633  20.069  0.00  0.00    +0.000 A 
BRANCH  22  24
ATOM     24  N   UNL     1       0.154  10.544  21.133  0.00  0.00    +0.000 N 
ATOM     25  C   UNL     1       0.192  10.005  22.473  0.00  0.00    +0.000 C 
ATOM     26  C   UNL     1      -1.048  10.563  23.135  0.00  0.00    +0.000 C 
ATOM     27  C   UNL     1      -1.221  11.914  22.470  0.00  0.00    +0.000 C 
ATOM     28  C   UNL     1      -0.653  11.694  21.087  0.00  0.00    +0.000 C 
ATOM     29  O   UNL     1      -0.860  12.455  20.155  0.00  0.00    +0.000 OA
ENDBRANCH  22  24
ENDBRANCH   2  18
TORSDOF 5
ENDMDL
MODEL 9
REMARK VINA RESULT:      -8.1      1.537      1.620
REMARK  Name = 
REMARK  5 active torsions:
REMARK  status: ('A' for Active; 'I' for Inactive)
REMARK    1  A    between atoms: C_2  and  C_16
REMARK    2  A    between atoms: N_3  and  C_4
REMARK    3  A    between atoms: C_9  and  C_10
REMARK    4  A    between atoms: N_12  and  C_13
REMARK    5  A    between atoms: C_20  and  N_21
REMARK                            x       y       z     vdW  Elec       q    Type
REMARK                         _______ _______ _______ _____ _____    ______ ____
ROOT
ATOM      1  O   UNL     1       1.891   5.876  17.721  0.00  0.00    +0.000 OA
ATOM      2  C   UNL     1       2.566   6.806  18.144  0.00  0.00    +0.000 C 
ATOM      3  N   UNL     1       3.923   6.981  17.925  0.00  0.00    +0.000 N 
ATOM      4  H   UNL     1       4.428   7.527  18.617  0.00  0.00    +0.000 HD
ENDROOT
BRANCH   3   5
ATOM      5  C   UNL     1       4.694   6.098  17.133  0.00  0.00    +0.000 A 
ATOM      6  C   UNL     1       5.023   6.444  15.815  0.00  0.00    +0.000 A 
ATOM      7  C   UNL     1       5.853   5.618  15.051  0.00  0.00    +0.000 A 
ATOM      8  C   UNL     1       6.354   4.437  15.592  0.00  0.00    +0.000 A 
ATOM      9  C   UNL     1       6.021   4.075  16.899  0.00  0.00    +0.000 A 
ATOM     10  C   UNL     1       5.187   4.897  17.673  0.00  0.00    +0.000 A 
BRANCH  10  11
ATOM     11  C   UNL     1       4.799   4.384  19.013  0.00  0.00    +0.000 C 
ATOM     12  O   UNL     1       5.559   4.518  19.966  0.00  0.00    +0.000 OA
ATOM     13  N   UNL     1       3.573   3.735  19.093  0.00  0.00    +0.000 N 
ATOM     14  H   UNL     1       3.126   3.472  18.219  0.00  0.00    +0.000 HD
BRANCH  13  15
ATOM     15  C   UNL     1       3.155   3.063  20.284  0.00  0.00    +0.000 C 
ATOM     16  C   UNL     1       1.738   2.585  20.443  0.00  0.00    +0.000 C 
ATOM     17  C   UNL     1       2.238   3.735  21.268  0.00  0.00    +0.000 C 
ENDBRANCH  13  15
ENDBRANCH  10  11
ENDBRANCH   3   5
BRANCH   2  18
ATOM     18  C   UNL     1       1.969   7.767  19.102  0.00  0.00    +0.000 A 
ATOM     19  C   UNL     1       1.950   7.436  20.456  0.00  0.00    +0.000 A 
ATOM     20  C   UNL     1       1.419   8.337  21.370  0.00  0.00    +0.000 A 
ATOM     21  C   UNL     1       0.909   9.565  20.930  0.00  0.00    +0.000 A 
ATOM     22  C   UNL     1       0.913   9.917  19.573  0.00  0.00    +0.000 A 
ATOM     23  C   UNL     1       1.442   8.991  18.661  0.00  0.00    +0.000 A 
BRANCH  22  24
ATOM     24  N   UNL     1       0.429  11.177  19.126  0.00  0.00    +0.000 N 
ATOM     25  C   UNL     1      -0.979  11.480  19.015  0.00  0.00    +0.000 C 
ATOM     26  C   UNL     1      -1.030  12.675  18.088  0.00  0.00    +0.000 C 
ATOM     27  C   UNL     1       0.260  13.410  18.394  0.00  0.00    +0.000 C 
ATOM     28  C   UNL     1       1.205  12.300  18.793  0.00  0.00    +0.000 C 
ATOM     29  O   UNL     1       2.416  12.445  18.842  0.00  0.00    +0.000 OA
ENDBRANCH  22  24
ENDBRANCH   2  18
TORSDOF 5
ENDMDL
