MODEL 1
REMARK VINA RESULT:      -8.2      0.000      0.000
REMARK  Name = 
REMARK  6 active torsions:
REMARK  status: ('A' for Active; 'I' for Inactive)
REMARK    1  A    between atoms: C_4  and  N_5
REMARK    2  A    between atoms: N_5  and  C_6
REMARK    3  A    between atoms: C_9  and  S_10
REMARK    4  A    between atoms: S_10  and  N_13
REMARK    5  A    between atoms: N_23  and  C_24
REMARK    6  A    between atoms: C_24  and  C_25
REMARK                            x       y       z     vdW  Elec       q    Type
REMARK                         _______ _______ _______ _____ _____    ______ ____
ROOT
ATOM      1  N   UNL     1       2.411   6.769  20.473  0.00  0.00    +0.000 N 
ATOM      2  H   UNL     1       3.329   6.848  20.026  0.00  0.00    +0.000 HD
ENDROOT
BRANCH   1   6
ATOM      3  O   UNL     1       3.744   2.505  20.718  0.00  0.00    +0.000 OA
ATOM      4  C   UNL     1       3.094   3.443  20.278  0.00  0.00    +0.000 C 
ATOM      5  C   UNL     1       2.280   4.368  21.131  0.00  0.00    +0.000 C 
ATOM      6  C   UNL     1       1.805   5.454  20.178  0.00  0.00    +0.000 C 
ATOM      7  C   UNL     1       2.292   4.970  18.817  0.00  0.00    +0.000 C 
ATOM      8  O   UNL     1       2.150   5.599  17.775  0.00  0.00    +0.000 OA
ATOM      9  N   UNL     1       2.978   3.805  18.973  0.00  0.00    +0.000 N 
BRANCH   9  10
ATOM     10  C   UNL     1       3.652   3.121  17.889  0.00  0.00    +0.000 C 
BRANCH  10  11
ATOM     11  C   UNL     1       4.839   3.900  17.369  0.00  0.00    +0.000 A 
ATOM     12  C   UNL     1       4.948   4.206  16.005  0.00  0.00    +0.000 A 
ATOM     13  C   UNL     1       6.039   4.931  15.525  0.00  0.00    +0.000 A 
ATOM     14  C   UNL     1       7.036   5.356  16.401  0.00  0.00    +0.000 A 
ATOM     15  C   UNL     1       6.944   5.051  17.759  0.00  0.00    +0.000 A 
ATOM     16  C   UNL     1       5.853   4.323  18.241  0.00  0.00    +0.000 A 
ENDBRANCH  10  11
ENDBRANCH   9  10
ENDBRANCH   1   6
BRANCH   1  17
ATOM     17  C   UNL     1       1.663   7.933  20.239  0.00  0.00    +0.000 A 
ATOM     18  C   UNL     1       1.719   8.655  19.041  0.00  0.00    +0.000 A 
ATOM     19  C   UNL     1       0.913   9.778  18.834  0.00  0.00    +0.000 A 
ATOM     20  C   UNL     1       0.002  10.171  19.816  0.00  0.00    +0.000 A 
ATOM     21  C   UNL     1      -0.101   9.451  21.002  0.00  0.00    +0.000 A 
ATOM     22  C   UNL     1       0.710   8.327  21.196  0.00  0.00    +0.000 A 
BRANCH  20  23
ATOM     23  S   UNL     1      -0.936  11.655  19.567  0.00  0.00    +0.000 S 
ATOM     24  O   UNL     1      -2.182  11.275  18.939  0.00  0.00    +0.000 OA
ATOM     25  O   UNL     1      -0.925  12.392  20.811  0.00  0.00    +0.000 OA
BRANCH  23  26
ATOM     26  N   UNL     1      -0.040  12.442  18.368  0.00  0.00    +0.000 N 
ATOM     27  C   UNL     1       0.716  13.515  18.886  0.00  0.00    +0.000 A 
ATOM     28  N   UNL     1       0.303  14.738  18.676  0.00  0.00    +0.000 NA
ATOM     29  C   UNL     1       1.189  15.615  19.274  0.00  0.00    +0.000 A 
ATOM     30  C   UNL     1       2.317  15.042  19.824  0.00  0.00    +0.000 A 
ATOM     31  S   UNL     1       2.239  13.337  19.642  0.00  0.00    +0.000 S 
ATOM     32  H   UNL     1      -0.721  12.811  17.703  0.00  0.00    +0.000 HD
ENDBRANCH  23  26
ENDBRANCH  20  23
ENDBRANCH   1  17
TORSDOF 6
ENDMDL
MODEL 2
REMARK VINA RESULT:      -8.2      0.093      1.248
REMARK  Name = 
REMARK  6 active torsions:
REMARK  status: ('A' for Active; 'I' for Inactive)
REMARK    1  A    between atoms: C_4  and  N_5
REMARK    2  A    between atoms: N_5  and  C_6
REMARK    3  A    between atoms: C_9  and  S_10
REMARK    4  A    between atoms: S_10  and  N_13
REMARK    5  A    between atoms: N_23  and  C_24
REMARK    6  A    between atoms: C_24  and  C_25
REMARK                            x       y       z     vdW  Elec       q    Type
REMARK                         _______ _______ _______ _____ _____    ______ ____
ROOT
ATOM      1  N   UNL     1       2.403   6.712  20.455  0.00  0.00    +0.000 N 
ATOM      2  H   UNL     1       3.294   6.829  19.965  0.00  0.00    +0.000 HD
ENDROOT
BRANCH   1   6
ATOM      3  O   UNL     1       3.841   2.481  20.680  0.00  0.00    +0.000 OA
ATOM      4  C   UNL     1       3.164   3.403  20.248  0.00  0.00    +0.000 C 
ATOM      5  C   UNL     1       2.337   4.307  21.112  0.00  0.00    +0.000 C 
ATOM      6  C   UNL     1       1.825   5.383  20.165  0.00  0.00    +0.000 C 
ATOM      7  C   UNL     1       2.308   4.912  18.798  0.00  0.00    +0.000 C 
ATOM      8  O   UNL     1       2.139   5.539  17.759  0.00  0.00    +0.000 OA
ATOM      9  N   UNL     1       3.024   3.764  18.945  0.00  0.00    +0.000 N 
BRANCH   9  10
ATOM     10  C   UNL     1       3.702   3.097  17.852  0.00  0.00    +0.000 C 
BRANCH  10  11
ATOM     11  C   UNL     1       4.867   3.903  17.324  0.00  0.00    +0.000 A 
ATOM     12  C   UNL     1       5.874   4.350  18.191  0.00  0.00    +0.000 A 
ATOM     13  C   UNL     1       6.954   5.087  17.704  0.00  0.00    +0.000 A 
ATOM     14  C   UNL     1       7.038   5.390  16.346  0.00  0.00    +0.000 A 
ATOM     15  C   UNL     1       6.039   4.959  15.475  0.00  0.00    +0.000 A 
ATOM     16  C   UNL     1       4.955   4.222  15.961  0.00  0.00    +0.000 A 
ENDBRANCH  10  11
ENDBRANCH   9  10
ENDBRANCH   1   6
BRANCH   1  17
ATOM     17  C   UNL     1       1.606   7.854  20.281  0.00  0.00    +0.000 A 
ATOM     18  C   UNL     1       0.783   8.377  21.285  0.00  0.00    +0.000 A 
ATOM     19  C   UNL     1       0.050   9.550  21.083  0.00  0.00    +0.000 A 
ATOM     20  C   UNL     1       0.165  10.242  19.877  0.00  0.00    +0.000 A 
ATOM     21  C   UNL     1       1.004   9.765  18.874  0.00  0.00    +0.000 A 
ATOM     22  C   UNL     1       1.734   8.591  19.090  0.00  0.00    +0.000 A 
BRANCH  20  23
ATOM     23  S   UNL     1      -0.850  11.672  19.610  0.00  0.00    +0.000 S 
ATOM     24  O   UNL     1      -2.085  11.214  19.011  0.00  0.00    +0.000 OA
ATOM     25  O   UNL     1      -0.859  12.437  20.837  0.00  0.00    +0.000 OA
BRANCH  23  26
ATOM     26  N   UNL     1      -0.013  12.474  18.379  0.00  0.00    +0.000 N 
ATOM     27  C   UNL     1       0.747  13.556  18.871  0.00  0.00    +0.000 A 
ATOM     28  N   UNL     1       0.310  14.774  18.681  0.00  0.00    +0.000 NA
ATOM     29  C   UNL     1       1.206  15.661  19.247  0.00  0.00    +0.000 A 
ATOM     30  C   UNL     1       2.363  15.102  19.750  0.00  0.00    +0.000 A 
ATOM     31  S   UNL     1       2.301  13.397  19.566  0.00  0.00    +0.000 S 
ATOM     32  H   UNL     1      -0.725  12.836  17.743  0.00  0.00    +0.000 HD
ENDBRANCH  23  26
ENDBRANCH  20  23
ENDBRANCH   1  17
TORSDOF 6
ENDMDL
MODEL 3
REMARK VINA RESULT:      -8.1      3.008      3.715
REMARK  Name = 
REMARK  6 active torsions:
REMARK  status: ('A' for Active; 'I' for Inactive)
REMARK    1  A    between atoms: C_4  and  N_5
REMARK    2  A    between atoms: N_5  and  C_6
REMARK    3  A    between atoms: C_9  and  S_10
REMARK    4  A    between atoms: S_10  and  N_13
REMARK    5  A    between atoms: N_23  and  C_24
REMARK    6  A    between atoms: C_24  and  C_25
REMARK                            x       y       z     vdW  Elec       q    Type
REMARK                         _______ _______ _______ _____ _____    ______ ____
ROOT
ATOM      1  N   UNL     1       2.087   7.801  20.927  0.00  0.00    +0.000 N 
ATOM      2  H   UNL     1       2.945   8.230  20.570  0.00  0.00    +0.000 HD
ENDROOT
BRANCH   1   6
ATOM      3  O   UNL     1       3.397   3.640  19.934  0.00  0.00    +0.000 OA
ATOM      4  C   UNL     1       2.878   4.724  19.711  0.00  0.00    +0.000 C 
ATOM      5  C   UNL     1       1.830   5.344  20.586  0.00  0.00    +0.000 C 
ATOM      6  C   UNL     1       1.623   6.738  20.012  0.00  0.00    +0.000 C 
ATOM      7  C   UNL     1       2.492   6.738  18.759  0.00  0.00    +0.000 C 
ATOM      8  O   UNL     1       2.639   7.711  18.029  0.00  0.00    +0.000 OA
ATOM      9  N   UNL     1       3.132   5.542  18.656  0.00  0.00    +0.000 N 
BRANCH   9  10
ATOM     10  C   UNL     1       4.105   5.241  17.625  0.00  0.00    +0.000 C 
BRANCH  10  11
ATOM     11  C   UNL     1       5.467   5.820  17.936  0.00  0.00    +0.000 A 
ATOM     12  C   UNL     1       6.249   5.285  18.969  0.00  0.00    +0.000 A 
ATOM     13  C   UNL     1       7.509   5.814  19.253  0.00  0.00    +0.000 A 
ATOM     14  C   UNL     1       8.000   6.887  18.510  0.00  0.00    +0.000 A 
ATOM     15  C   UNL     1       7.228   7.434  17.486  0.00  0.00    +0.000 A 
ATOM     16  C   UNL     1       5.965   6.907  17.202  0.00  0.00    +0.000 A 
ENDBRANCH  10  11
ENDBRANCH   9  10
ENDBRANCH   1   6
BRANCH   1  17
ATOM     17  C   UNL     1       1.184   8.797  21.329  0.00  0.00    +0.000 A 
ATOM     18  C   UNL     1       0.780   8.977  22.656  0.00  0.00    +0.000 A 
ATOM     19  C   UNL     1      -0.080  10.020  23.017  0.00  0.00    +0.000 A 
ATOM     20  C   UNL     1      -0.515  10.927  22.050  0.00  0.00    +0.000 A 
ATOM     21  C   UNL     1      -0.101  10.793  20.729  0.00  0.00    +0.000 A 
ATOM     22  C   UNL     1       0.761   9.747  20.382  0.00  0.00    +0.000 A 
BRANCH  20  23
ATOM     23  S   UNL     1      -1.682  12.178  22.516  0.00  0.00    +0.000 S 
ATOM     24  O   UNL     1      -2.573  11.592  23.494  0.00  0.00    +0.000 OA
ATOM     25  O   UNL     1      -0.937  13.380  22.817  0.00  0.00    +0.000 OA
BRANCH  23  26
ATOM     26  N   UNL     1      -2.600  12.348  21.105  0.00  0.00    +0.000 N 
ATOM     27  C   UNL     1      -3.815  13.025  21.339  0.00  0.00    +0.000 A 
ATOM     28  N   UNL     1      -4.926  12.334  21.380  0.00  0.00    +0.000 NA
ATOM     29  C   UNL     1      -5.977  13.199  21.624  0.00  0.00    +0.000 A 
ATOM     30  C   UNL     1      -5.655  14.540  21.647  0.00  0.00    +0.000 A 
ATOM     31  S   UNL     1      -3.964  14.726  21.416  0.00  0.00    +0.000 S 
ATOM     32  H   UNL     1      -2.808  11.400  20.788  0.00  0.00    +0.000 HD
ENDBRANCH  23  26
ENDBRANCH  20  23
ENDBRANCH   1  17
TORSDOF 6
ENDMDL
MODEL 4
REMARK VINA RESULT:      -8.1      3.058      3.684
REMARK  Name = 
REMARK  6 active torsions:
REMARK  status: ('A' for Active; 'I' for Inactive)
REMARK    1  A    between atoms: C_4  and  N_5
REMARK    2  A    between atoms: N_5  and  C_6
REMARK    3  A    between atoms: C_9  and  S_10
REMARK    4  A    between atoms: S_10  and  N_13
REMARK    5  A    between atoms: N_23  and  C_24
REMARK    6  A    between atoms: C_24  and  C_25
REMARK                            x       y       z     vdW  Elec       q    Type
REMARK                         _______ _______ _______ _____ _____    ______ ____
ROOT
ATOM      1  N   UNL     1       2.095   7.559  20.871  0.00  0.00    +0.000 N 
ATOM      2  H   UNL     1       3.024   7.896  20.603  0.00  0.00    +0.000 HD
ENDROOT
BRANCH   1   6
ATOM      3  O   UNL     1       3.619   3.420  20.124  0.00  0.00    +0.000 OA
ATOM      4  C   UNL     1       3.048   4.462  19.837  0.00  0.00    +0.000 C 
ATOM      5  C   UNL     1       1.964   5.077  20.671  0.00  0.00    +0.000 C 
ATOM      6  C   UNL     1       1.692   6.424  20.017  0.00  0.00    +0.000 C 
ATOM      7  C   UNL     1       2.568   6.397  18.770  0.00  0.00    +0.000 C 
ATOM      8  O   UNL     1       2.673   7.332  17.985  0.00  0.00    +0.000 OA
ATOM      9  N   UNL     1       3.269   5.230  18.738  0.00  0.00    +0.000 N 
BRANCH   9  10
ATOM     10  C   UNL     1       4.263   4.920  17.731  0.00  0.00    +0.000 C 
BRANCH  10  11
ATOM     11  C   UNL     1       5.579   5.618  17.991  0.00  0.00    +0.000 A 
ATOM     12  C   UNL     1       6.407   5.206  19.044  0.00  0.00    +0.000 A 
ATOM     13  C   UNL     1       7.625   5.844  19.281  0.00  0.00    +0.000 A 
ATOM     14  C   UNL     1       8.027   6.905  18.472  0.00  0.00    +0.000 A 
ATOM     15  C   UNL     1       7.208   7.331  17.427  0.00  0.00    +0.000 A 
ATOM     16  C   UNL     1       5.987   6.694  17.189  0.00  0.00    +0.000 A 
ENDBRANCH  10  11
ENDBRANCH   9  10
ENDBRANCH   1   6
BRANCH   1  17
ATOM     17  C   UNL     1       1.218   8.644  21.023  0.00  0.00    +0.000 A 
ATOM     18  C   UNL     1       0.722   9.063  22.263  0.00  0.00    +0.000 A 
ATOM     19  C   UNL     1      -0.107  10.184  22.370  0.00  0.00    +0.000 A 
ATOM     20  C   UNL     1      -0.418  10.930  21.233  0.00  0.00    +0.000 A 
ATOM     21  C   UNL     1       0.090  10.558  19.992  0.00  0.00    +0.000 A 
ATOM     22  C   UNL     1       0.920   9.435  19.899  0.00  0.00    +0.000 A 
BRANCH  20  23
ATOM     23  S   UNL     1      -1.549  12.287  21.383  0.00  0.00    +0.000 S 
ATOM     24  O   UNL     1      -0.761  13.481  21.595  0.00  0.00    +0.000 OA
ATOM     25  O   UNL     1      -2.484  12.200  20.284  0.00  0.00    +0.000 OA
BRANCH  23  26
ATOM     26  N   UNL     1      -2.296  11.962  22.866  0.00  0.00    +0.000 N 
ATOM     27  C   UNL     1      -3.208  12.972  23.235  0.00  0.00    +0.000 A 
ATOM     28  N   UNL     1      -2.863  13.825  24.166  0.00  0.00    +0.000 NA
ATOM     29  C   UNL     1      -3.902  14.718  24.356  0.00  0.00    +0.000 A 
ATOM     30  C   UNL     1      -5.056  14.451  23.649  0.00  0.00    +0.000 A 
ATOM     31  S   UNL     1      -4.815  13.068  22.662  0.00  0.00    +0.000 S 
ATOM     32  H   UNL     1      -1.546  11.927  23.557  0.00  0.00    +0.000 HD
ENDBRANCH  23  26
ENDBRANCH  20  23
ENDBRANCH   1  17
TORSDOF 6
ENDMDL
MODEL 5
REMARK VINA RESULT:      -8.1      2.339      3.614
REMARK  Name = 
REMARK  6 active torsions:
REMARK  status: ('A' for Active; 'I' for Inactive)
REMARK    1  A    between atoms: C_4  and  N_5
REMARK    2  A    between atoms: N_5  and  C_6
REMARK    3  A    between atoms: C_9  and  S_10
REMARK    4  A    between atoms: S_10  and  N_13
REMARK    5  A    between atoms: N_23  and  C_24
REMARK    6  A    between atoms: C_24  and  C_25
REMARK                            x       y       z     vdW  Elec       q    Type
REMARK                         _______ _______ _______ _____ _____    ______ ____
ROOT
ATOM      1  N   UNL     1       2.917   6.529  19.066  0.00  0.00    +0.000 N 
ATOM      2  H   UNL     1       3.856   6.635  19.461  0.00  0.00    +0.000 HD
ENDROOT
BRANCH   1   6
ATOM      3  O   UNL     1       4.030   2.504  17.460  0.00  0.00    +0.000 OA
ATOM      4  C   UNL     1       3.899   3.719  17.420  0.00  0.00    +0.000 C 
ATOM      5  C   UNL     1       2.622   4.432  17.749  0.00  0.00    +0.000 C 
ATOM      6  C   UNL     1       2.988   5.908  17.727  0.00  0.00    +0.000 C 
ATOM      7  C   UNL     1       4.435   5.908  17.249  0.00  0.00    +0.000 C 
ATOM      8  O   UNL     1       5.121   6.918  17.142  0.00  0.00    +0.000 OA
ATOM      9  N   UNL     1       4.849   4.624  17.066  0.00  0.00    +0.000 N 
BRANCH   9  10
ATOM     10  C   UNL     1       6.203   4.263  16.700  0.00  0.00    +0.000 C 
BRANCH  10  11
ATOM     11  C   UNL     1       6.420   4.300  15.204  0.00  0.00    +0.000 A 
ATOM     12  C   UNL     1       5.588   3.568  14.345  0.00  0.00    +0.000 A 
ATOM     13  C   UNL     1       5.783   3.607  12.964  0.00  0.00    +0.000 A 
ATOM     14  C   UNL     1       6.815   4.373  12.425  0.00  0.00    +0.000 A 
ATOM     15  C   UNL     1       7.655   5.098  13.268  0.00  0.00    +0.000 A 
ATOM     16  C   UNL     1       7.463   5.059  14.652  0.00  0.00    +0.000 A 
ENDBRANCH  10  11
ENDBRANCH   9  10
ENDBRANCH   1   6
BRANCH   1  17
ATOM     17  C   UNL     1       2.191   7.719  19.229  0.00  0.00    +0.000 A 
ATOM     18  C   UNL     1       1.585   8.089  20.435  0.00  0.00    +0.000 A 
ATOM     19  C   UNL     1       0.919   9.312  20.565  0.00  0.00    +0.000 A 
ATOM     20  C   UNL     1       0.887  10.203  19.492  0.00  0.00    +0.000 A 
ATOM     21  C   UNL     1       1.512   9.877  18.293  0.00  0.00    +0.000 A 
ATOM     22  C   UNL     1       2.177   8.651  18.176  0.00  0.00    +0.000 A 
BRANCH  20  23
ATOM     23  S   UNL     1      -0.049  11.701  19.653  0.00  0.00    +0.000 S 
ATOM     24  O   UNL     1      -1.191  11.406  20.490  0.00  0.00    +0.000 OA
ATOM     25  O   UNL     1       0.875  12.758  20.001  0.00  0.00    +0.000 OA
BRANCH  23  26
ATOM     26  N   UNL     1      -0.666  11.901  18.090  0.00  0.00    +0.000 N 
ATOM     27  C   UNL     1      -1.891  11.226  17.912  0.00  0.00    +0.000 A 
ATOM     28  N   UNL     1      -1.905  10.107  17.234  0.00  0.00    +0.000 NA
ATOM     29  C   UNL     1      -3.201   9.627  17.195  0.00  0.00    +0.000 A 
ATOM     30  C   UNL     1      -4.160  10.452  17.743  0.00  0.00    +0.000 A 
ATOM     31  S   UNL     1      -3.409  11.854  18.388  0.00  0.00    +0.000 S 
ATOM     32  H   UNL     1       0.027  11.495  17.460  0.00  0.00    +0.000 HD
ENDBRANCH  23  26
ENDBRANCH  20  23
ENDBRANCH   1  17
TORSDOF 6
ENDMDL
MODEL 6
REMARK VINA RESULT:      -8.1      1.727      2.878
REMARK  Name = 
REMARK  6 active torsions:
REMARK  status: ('A' for Active; 'I' for Inactive)
REMARK    1  A    between atoms: C_4  and  N_5
REMARK    2  A    between atoms: N_5  and  C_6
REMARK    3  A    between atoms: C_9  and  S_10
REMARK    4  A    between atoms: S_10  and  N_13
REMARK    5  A    between atoms: N_23  and  C_24
REMARK    6  A    between atoms: C_24  and  C_25
REMARK                            x       y       z     vdW  Elec       q    Type
REMARK                         _______ _______ _______ _____ _____    ______ ____
ROOT
ATOM      1  N   UNL     1       2.476   6.757  20.472  0.00  0.00    +0.000 N 
ATOM      2  H   UNL     1       3.373   6.832  19.982  0.00  0.00    +0.000 HD
ENDROOT
BRANCH   1   6
ATOM      3  O   UNL     1       3.575   2.424  20.677  0.00  0.00    +0.000 OA
ATOM      4  C   UNL     1       2.988   3.402  20.236  0.00  0.00    +0.000 C 
ATOM      5  C   UNL     1       2.199   4.355  21.082  0.00  0.00    +0.000 C 
ATOM      6  C   UNL     1       1.811   5.481  20.136  0.00  0.00    +0.000 C 
ATOM      7  C   UNL     1       2.311   4.995  18.781  0.00  0.00    +0.000 C 
ATOM      8  O   UNL     1       2.233   5.648  17.747  0.00  0.00    +0.000 OA
ATOM      9  N   UNL     1       2.930   3.792  18.935  0.00  0.00    +0.000 N 
BRANCH   9  10
ATOM     10  C   UNL     1       3.598   3.091  17.858  0.00  0.00    +0.000 C 
BRANCH  10  11
ATOM     11  C   UNL     1       4.806   3.844  17.347  0.00  0.00    +0.000 A 
ATOM     12  C   UNL     1       4.954   4.108  15.978  0.00  0.00    +0.000 A 
ATOM     13  C   UNL     1       6.064   4.808  15.506  0.00  0.00    +0.000 A 
ATOM     14  C   UNL     1       7.043   5.249  16.396  0.00  0.00    +0.000 A 
ATOM     15  C   UNL     1       6.912   4.984  17.758  0.00  0.00    +0.000 A 
ATOM     16  C   UNL     1       5.801   4.281  18.233  0.00  0.00    +0.000 A 
ENDBRANCH  10  11
ENDBRANCH   9  10
ENDBRANCH   1   6
BRANCH   1  17
ATOM     17  C   UNL     1       1.758   7.955  20.343  0.00  0.00    +0.000 A 
ATOM     18  C   UNL     1       1.079   8.561  21.407  0.00  0.00    +0.000 A 
ATOM     19  C   UNL     1       0.423   9.786  21.243  0.00  0.00    +0.000 A 
ATOM     20  C   UNL     1       0.474  10.443  20.013  0.00  0.00    +0.000 A 
ATOM     21  C   UNL     1       1.172   9.881  18.949  0.00  0.00    +0.000 A 
ATOM     22  C   UNL     1       1.826   8.656  19.126  0.00  0.00    +0.000 A 
BRANCH  20  23
ATOM     23  S   UNL     1      -0.448  11.943  19.806  0.00  0.00    +0.000 S 
ATOM     24  O   UNL     1      -1.664  11.809  20.578  0.00  0.00    +0.000 OA
ATOM     25  O   UNL     1       0.457  13.047  20.032  0.00  0.00    +0.000 OA
BRANCH  23  26
ATOM     26  N   UNL     1      -0.922  11.845  18.185  0.00  0.00    +0.000 N 
ATOM     27  C   UNL     1      -2.154  11.176  18.031  0.00  0.00    +0.000 A 
ATOM     28  N   UNL     1      -2.155   9.947  17.584  0.00  0.00    +0.000 NA
ATOM     29  C   UNL     1      -3.461   9.498  17.521  0.00  0.00    +0.000 A 
ATOM     30  C   UNL     1      -4.430  10.437  17.808  0.00  0.00    +0.000 A 
ATOM     31  S   UNL     1      -3.680  11.921  18.235  0.00  0.00    +0.000 S 
ATOM     32  H   UNL     1      -0.195  11.307  17.711  0.00  0.00    +0.000 HD
ENDBRANCH  23  26
ENDBRANCH  20  23
ENDBRANCH   1  17
TORSDOF 6
ENDMDL
MODEL 7
REMARK VINA RESULT:      -8.0      2.148      2.562
REMARK  Name = 
REMARK  6 active torsions:
REMARK  status: ('A' for Active; 'I' for Inactive)
REMARK    1  A    between atoms: C_4  and  N_5
REMARK    2  A    between atoms: N_5  and  C_6
REMARK    3  A    between atoms: C_9  and  S_10
REMARK    4  A    between atoms: S_10  and  N_13
REMARK    5  A    between atoms: N_23  and  C_24
REMARK    6  A    between atoms: C_24  and  C_25
REMARK                            x       y       z     vdW  Elec       q    Type
REMARK                         _______ _______ _______ _____ _____    ______ ____
ROOT
ATOM      1  N   UNL     1       2.425   6.838  20.501  0.00  0.00    +0.000 N 
ATOM      2  H   UNL     1       3.281   6.964  19.952  0.00  0.00    +0.000 HD
ENDROOT
BRANCH   1   6
ATOM      3  O   UNL     1       3.615   2.528  20.675  0.00  0.00    +0.000 OA
ATOM      4  C   UNL     1       3.004   3.496  20.244  0.00  0.00    +0.000 C 
ATOM      5  C   UNL     1       2.204   4.428  21.104  0.00  0.00    +0.000 C 
ATOM      6  C   UNL     1       1.783   5.551  20.167  0.00  0.00    +0.000 C 
ATOM      7  C   UNL     1       2.278   5.081  18.804  0.00  0.00    +0.000 C 
ATOM      8  O   UNL     1       2.176   5.737  17.774  0.00  0.00    +0.000 OA
ATOM      9  N   UNL     1       2.923   3.890  18.946  0.00  0.00    +0.000 N 
BRANCH   9  10
ATOM     10  C   UNL     1       3.594   3.208  17.858  0.00  0.00    +0.000 C 
BRANCH  10  11
ATOM     11  C   UNL     1       4.820   3.955  17.383  0.00  0.00    +0.000 A 
ATOM     12  C   UNL     1       5.812   4.346  18.293  0.00  0.00    +0.000 A 
ATOM     13  C   UNL     1       6.948   5.028  17.855  0.00  0.00    +0.000 A 
ATOM     14  C   UNL     1       7.103   5.332  16.503  0.00  0.00    +0.000 A 
ATOM     15  C   UNL     1       6.119   4.956  15.590  0.00  0.00    +0.000 A 
ATOM     16  C   UNL     1       4.980   4.275  16.027  0.00  0.00    +0.000 A 
ENDBRANCH  10  11
ENDBRANCH   9  10
ENDBRANCH   1   6
BRANCH   1  17
ATOM     17  C   UNL     1       1.658   8.012  20.469  0.00  0.00    +0.000 A 
ATOM     18  C   UNL     1       1.448   8.761  19.306  0.00  0.00    +0.000 A 
ATOM     19  C   UNL     1       0.629   9.895  19.312  0.00  0.00    +0.000 A 
ATOM     20  C   UNL     1      -0.027  10.272  20.484  0.00  0.00    +0.000 A 
ATOM     21  C   UNL     1       0.136   9.526  21.647  0.00  0.00    +0.000 A 
ATOM     22  C   UNL     1       0.956   8.392  21.627  0.00  0.00    +0.000 A 
BRANCH  20  23
ATOM     23  S   UNL     1      -0.978  11.769  20.488  0.00  0.00    +0.000 S 
ATOM     24  O   UNL     1      -0.043  12.871  20.446  0.00  0.00    +0.000 OA
ATOM     25  O   UNL     1      -2.012  11.632  19.486  0.00  0.00    +0.000 OA
BRANCH  23  26
ATOM     26  N   UNL     1      -1.621  11.773  22.053  0.00  0.00    +0.000 N 
ATOM     27  C   UNL     1      -1.723  13.077  22.582  0.00  0.00    +0.000 A 
ATOM     28  N   UNL     1      -0.853  13.465  23.479  0.00  0.00    +0.000 NA
ATOM     29  C   UNL     1      -1.144  14.766  23.845  0.00  0.00    +0.000 A 
ATOM     30  C   UNL     1      -2.298  15.295  23.306  0.00  0.00    +0.000 A 
ATOM     31  S   UNL     1      -3.015  14.146  22.251  0.00  0.00    +0.000 S 
ATOM     32  H   UNL     1      -0.971  11.235  22.627  0.00  0.00    +0.000 HD
ENDBRANCH  23  26
ENDBRANCH  20  23
ENDBRANCH   1  17
TORSDOF 6
ENDMDL
MODEL 8
REMARK VINA RESULT:      -8.0      3.189      3.749
REMARK  Name = 
REMARK  6 active torsions:
REMARK  status: ('A' for Active; 'I' for Inactive)
REMARK    1  A    between atoms: C_4  and  N_5
REMARK    2  A    between atoms: N_5  and  C_6
REMARK    3  A    between atoms: C_9  and  S_10
REMARK    4  A    between atoms: S_10  and  N_13
REMARK    5  A    between atoms: N_23  and  C_24
REMARK    6  A    between atoms: C_24  and  C_25
REMARK                            x       y       z     vdW  Elec       q    Type
REMARK                         _______ _______ _______ _____ _____    ______ ____
ROOT
ATOM      1  N   UNL     1       2.090   7.699  21.021  0.00  0.00    +0.000 N 
ATOM      2  H   UNL     1       3.054   7.957  20.792  0.00  0.00    +0.000 HD
ENDROOT
BRANCH   1   6
ATOM      3  O   UNL     1       3.157   3.522  19.825  0.00  0.00    +0.000 OA
ATOM      4  C   UNL     1       2.708   4.646  19.655  0.00  0.00    +0.000 C 
ATOM      5  C   UNL     1       1.689   5.283  20.551  0.00  0.00    +0.000 C 
ATOM      6  C   UNL     1       1.574   6.715  20.048  0.00  0.00    +0.000 C 
ATOM      7  C   UNL     1       2.457   6.727  18.805  0.00  0.00    +0.000 C 
ATOM      8  O   UNL     1       2.673   7.725  18.128  0.00  0.00    +0.000 OA
ATOM      9  N   UNL     1       3.025   5.500  18.646  0.00  0.00    +0.000 N 
BRANCH   9  10
ATOM     10  C   UNL     1       3.991   5.193  17.611  0.00  0.00    +0.000 C 
BRANCH  10  11
ATOM     11  C   UNL     1       5.369   5.724  17.937  0.00  0.00    +0.000 A 
ATOM     12  C   UNL     1       5.940   6.745  17.166  0.00  0.00    +0.000 A 
ATOM     13  C   UNL     1       7.208   7.241  17.470  0.00  0.00    +0.000 A 
ATOM     14  C   UNL     1       7.922   6.719  18.547  0.00  0.00    +0.000 A 
ATOM     15  C   UNL     1       7.370   5.697  19.317  0.00  0.00    +0.000 A 
ATOM     16  C   UNL     1       6.100   5.197  19.012  0.00  0.00    +0.000 A 
ENDBRANCH  10  11
ENDBRANCH   9  10
ENDBRANCH   1   6
BRANCH   1  17
ATOM     17  C   UNL     1       1.336   8.852  21.290  0.00  0.00    +0.000 A 
ATOM     18  C   UNL     1       1.100   9.854  20.342  0.00  0.00    +0.000 A 
ATOM     19  C   UNL     1       0.296  10.958  20.640  0.00  0.00    +0.000 A 
ATOM     20  C   UNL     1      -0.320  11.053  21.889  0.00  0.00    +0.000 A 
ATOM     21  C   UNL     1      -0.132  10.054  22.838  0.00  0.00    +0.000 A 
ATOM     22  C   UNL     1       0.673   8.952  22.526  0.00  0.00    +0.000 A 
BRANCH  20  23
ATOM     23  S   UNL     1      -1.253  12.511  22.274  0.00  0.00    +0.000 S 
ATOM     24  O   UNL     1      -0.499  13.253  23.261  0.00  0.00    +0.000 OA
ATOM     25  O   UNL     1      -1.644  13.122  21.024  0.00  0.00    +0.000 OA
BRANCH  23  26
ATOM     26  N   UNL     1      -2.583  11.871  23.100  0.00  0.00    +0.000 N 
ATOM     27  C   UNL     1      -3.710  12.716  23.029  0.00  0.00    +0.000 A 
ATOM     28  N   UNL     1      -4.035  13.426  24.079  0.00  0.00    +0.000 NA
ATOM     29  C   UNL     1      -5.158  14.174  23.778  0.00  0.00    +0.000 A 
ATOM     30  C   UNL     1      -5.729  13.927  22.547  0.00  0.00    +0.000 A 
ATOM     31  S   UNL     1      -4.792  12.760  21.706  0.00  0.00    +0.000 S 
ATOM     32  H   UNL     1      -2.295  11.788  24.076  0.00  0.00    +0.000 HD
ENDBRANCH  23  26
ENDBRANCH  20  23
ENDBRANCH   1  17
TORSDOF 6
ENDMDL
MODEL 9
REMARK VINA RESULT:      -8.0      1.930      2.357
REMARK  Name = 
REMARK  6 active torsions:
REMARK  status: ('A' for Active; 'I' for Inactive)
REMARK    1  A    between atoms: C_4  and  N_5
REMARK    2  A    between atoms: N_5  and  C_6
REMARK    3  A    between atoms: C_9  and  S_10
REMARK    4  A    between atoms: S_10  and  N_13
REMARK    5  A    between atoms: N_23  and  C_24
REMARK    6  A    between atoms: C_24  and  C_25
REMARK                            x       y       z     vdW  Elec       q    Type
REMARK                         _______ _______ _______ _____ _____    ______ ____
ROOT
ATOM      1  N   UNL     1       2.117   7.574  20.865  0.00  0.00    +0.000 N 
ATOM      2  H   UNL     1       3.014   7.973  20.572  0.00  0.00    +0.000 HD
ENDROOT
BRANCH   1   6
ATOM      3  O   UNL     1       3.525   3.451  19.843  0.00  0.00    +0.000 OA
ATOM      4  C   UNL     1       2.991   4.529  19.624  0.00  0.00    +0.000 C 
ATOM      5  C   UNL     1       1.914   5.118  20.485  0.00  0.00    +0.000 C 
ATOM      6  C   UNL     1       1.693   6.515  19.925  0.00  0.00    +0.000 C 
ATOM      7  C   UNL     1       2.589   6.549  18.692  0.00  0.00    +0.000 C 
ATOM      8  O   UNL     1       2.734   7.535  17.978  0.00  0.00    +0.000 OA
ATOM      9  N   UNL     1       3.253   5.366  18.586  0.00  0.00    +0.000 N 
BRANCH   9  10
ATOM     10  C   UNL     1       4.253   5.098  17.573  0.00  0.00    +0.000 C 
BRANCH  10  11
ATOM     11  C   UNL     1       5.586   5.731  17.902  0.00  0.00    +0.000 A 
ATOM     12  C   UNL     1       6.057   6.824  17.162  0.00  0.00    +0.000 A 
ATOM     13  C   UNL     1       7.283   7.415  17.469  0.00  0.00    +0.000 A 
ATOM     14  C   UNL     1       8.056   6.916  18.516  0.00  0.00    +0.000 A 
ATOM     15  C   UNL     1       7.604   5.824  19.255  0.00  0.00    +0.000 A 
ATOM     16  C   UNL     1       6.376   5.230  18.947  0.00  0.00    +0.000 A 
ENDBRANCH  10  11
ENDBRANCH   9  10
ENDBRANCH   1   6
BRANCH   1  17
ATOM     17  C   UNL     1       1.218   8.601  21.186  0.00  0.00    +0.000 A 
ATOM     18  C   UNL     1       1.019   9.068  22.491  0.00  0.00    +0.000 A 
ATOM     19  C   UNL     1       0.152  10.132  22.756  0.00  0.00    +0.000 A 
ATOM     20  C   UNL     1      -0.501  10.774  21.703  0.00  0.00    +0.000 A 
ATOM     21  C   UNL     1      -0.296  10.355  20.392  0.00  0.00    +0.000 A 
ATOM     22  C   UNL     1       0.577   9.290  20.141  0.00  0.00    +0.000 A 
BRANCH  20  23
ATOM     23  S   UNL     1      -1.670  12.055  22.076  0.00  0.00    +0.000 S 
ATOM     24  O   UNL     1      -2.342  12.395  20.841  0.00  0.00    +0.000 OA
ATOM     25  O   UNL     1      -2.420  11.637  23.239  0.00  0.00    +0.000 OA
BRANCH  23  26
ATOM     26  N   UNL     1      -0.658  13.366  22.422  0.00  0.00    +0.000 N 
ATOM     27  C   UNL     1       0.231  13.645  21.363  0.00  0.00    +0.000 A 
ATOM     28  N   UNL     1       1.485  13.291  21.480  0.00  0.00    +0.000 NA
ATOM     29  C   UNL     1       2.159  13.658  20.330  0.00  0.00    +0.000 A 
ATOM     30  C   UNL     1       1.428  14.387  19.416  0.00  0.00    +0.000 A 
ATOM     31  S   UNL     1      -0.181  14.569  19.985  0.00  0.00    +0.000 S 
ATOM     32  H   UNL     1      -0.116  13.095  23.243  0.00  0.00    +0.000 HD
ENDBRANCH  23  26
ENDBRANCH  20  23
ENDBRANCH   1  17
TORSDOF 6
ENDMDL
