MODEL 1
REMARK VINA RESULT:      -8.2      0.000      0.000
REMARK  Name = 
REMARK  5 active torsions:
REMARK  status: ('A' for Active; 'I' for Inactive)
REMARK    1  A    between atoms: C_5  and  C_6
REMARK    2  A    between atoms: N_13  and  C_14
REMARK    3  A    between atoms: C_14  and  C_15
REMARK    4  A    between atoms: C_17  and  C_18
REMARK    5  A    between atoms: C_18  and  C_19
REMARK                            x       y       z     vdW  Elec       q    Type
REMARK                         _______ _______ _______ _____ _____    ______ ____
ROOT
ATOM      1  O   UNL     1       5.790   4.988  19.934  0.00  0.00    +0.000 OA
ATOM      2  C   UNL     1       5.932   4.848  18.722  0.00  0.00    +0.000 A 
ATOM      3  C   UNL     1       7.295   4.839  18.163  0.00  0.00    +0.000 A 
ATOM      4  C   UNL     1       7.501   4.708  16.852  0.00  0.00    +0.000 A 
ATOM      5  C   UNL     1       6.303   4.583  15.990  0.00  0.00    +0.000 A 
ATOM      6  N   UNL     1       5.087   4.560  16.445  0.00  0.00    +0.000 NA
ATOM      7  N   UNL     1       4.901   4.695  17.808  0.00  0.00    +0.000 N 
ENDROOT
BRANCH   5   8
ATOM      8  C   UNL     1       6.537   4.449  14.521  0.00  0.00    +0.000 A 
ATOM      9  C   UNL     1       5.728   3.570  13.787  0.00  0.00    +0.000 A 
ATOM     10  C   UNL     1       5.920   3.418  12.412  0.00  0.00    +0.000 A 
ATOM     11  C   UNL     1       6.915   4.145  11.760  0.00  0.00    +0.000 A 
ATOM     12  C   UNL     1       7.712   5.033  12.480  0.00  0.00    +0.000 A 
ATOM     13  C   UNL     1       7.522   5.192  13.855  0.00  0.00    +0.000 A 
ENDBRANCH   5   8
BRANCH   7  14
ATOM     14  C   UNL     1       3.527   4.603  18.296  0.00  0.00    +0.000 C 
BRANCH  14  15
ATOM     15  C   UNL     1       2.971   5.968  18.468  0.00  0.00    +0.000 A 
ATOM     16  N   UNL     1       2.879   6.959  17.607  0.00  0.00    +0.000 NA
ATOM     17  C   UNL     1       2.382   7.977  18.385  0.00  0.00    +0.000 A 
ATOM     18  N   UNL     1       2.149   7.643  19.664  0.00  0.00    +0.000 NA
ATOM     19  O   UNL     1       2.528   6.299  19.717  0.00  0.00    +0.000 OA
BRANCH  17  20
ATOM     20  C   UNL     1       2.274   9.370  17.882  0.00  0.00    +0.000 C 
BRANCH  20  21
ATOM     21  C   UNL     1       0.996   9.947  18.433  0.00  0.00    +0.000 A 
ATOM     22  C   UNL     1      -0.235   9.678  17.812  0.00  0.00    +0.000 A 
ATOM     23  C   UNL     1      -1.418  10.212  18.321  0.00  0.00    +0.000 A 
ATOM     24  C   UNL     1      -1.387  11.021  19.456  0.00  0.00    +0.000 A 
ATOM     25  C   UNL     1      -0.175  11.290  20.088  0.00  0.00    +0.000 A 
ATOM     26  C   UNL     1       1.012  10.758  19.579  0.00  0.00    +0.000 A 
ENDBRANCH  20  21
ENDBRANCH  17  20
ENDBRANCH  14  15
ENDBRANCH   7  14
TORSDOF 5
ENDMDL
MODEL 2
REMARK VINA RESULT:      -8.1      1.721      8.109
REMARK  Name = 
REMARK  5 active torsions:
REMARK  status: ('A' for Active; 'I' for Inactive)
REMARK    1  A    between atoms: C_5  and  C_6
REMARK    2  A    between atoms: N_13  and  C_14
REMARK    3  A    between atoms: C_14  and  C_15
REMARK    4  A    between atoms: C_17  and  C_18
REMARK    5  A    between atoms: C_18  and  C_19
REMARK                            x       y       z     vdW  Elec       q    Type
REMARK                         _______ _______ _______ _____ _____    ______ ____
ROOT
ATOM      1  O   UNL     1       4.893   2.659  19.824  0.00  0.00    +0.000 OA
ATOM      2  C   UNL     1       4.338   3.747  19.693  0.00  0.00    +0.000 A 
ATOM      3  C   UNL     1       2.966   3.909  20.207  0.00  0.00    +0.000 A 
ATOM      4  C   UNL     1       2.314   5.065  20.074  0.00  0.00    +0.000 A 
ATOM      5  C   UNL     1       3.024   6.165  19.381  0.00  0.00    +0.000 A 
ATOM      6  N   UNL     1       4.240   6.071  18.938  0.00  0.00    +0.000 NA
ATOM      7  N   UNL     1       4.896   4.863  19.090  0.00  0.00    +0.000 N 
ENDROOT
BRANCH   5   8
ATOM      8  C   UNL     1       2.284   7.453  19.223  0.00  0.00    +0.000 A 
ATOM      9  C   UNL     1       1.616   7.987  20.334  0.00  0.00    +0.000 A 
ATOM     10  C   UNL     1       0.913   9.189  20.222  0.00  0.00    +0.000 A 
ATOM     11  C   UNL     1       0.876   9.867  19.006  0.00  0.00    +0.000 A 
ATOM     12  C   UNL     1       1.551   9.351  17.901  0.00  0.00    +0.000 A 
ATOM     13  C   UNL     1       2.260   8.152  18.008  0.00  0.00    +0.000 A 
ENDBRANCH   5   8
BRANCH   7  14
ATOM     14  C   UNL     1       6.283   4.808  18.637  0.00  0.00    +0.000 C 
BRANCH  14  15
ATOM     15  C   UNL     1       6.318   4.503  17.185  0.00  0.00    +0.000 A 
ATOM     16  N   UNL     1       7.113   4.962  16.242  0.00  0.00    +0.000 NA
ATOM     17  C   UNL     1       6.581   4.395  15.110  0.00  0.00    +0.000 A 
ATOM     18  N   UNL     1       5.520   3.601  15.325  0.00  0.00    +0.000 NA
ATOM     19  O   UNL     1       5.352   3.660  16.711  0.00  0.00    +0.000 OA
BRANCH  17  20
ATOM     20  C   UNL     1       7.044   4.771  13.750  0.00  0.00    +0.000 C 
BRANCH  20  21
ATOM     21  C   UNL     1       6.366   3.845  12.774  0.00  0.00    +0.000 A 
ATOM     22  C   UNL     1       5.011   4.020  12.448  0.00  0.00    +0.000 A 
ATOM     23  C   UNL     1       4.382   3.163  11.545  0.00  0.00    +0.000 A 
ATOM     24  C   UNL     1       5.098   2.123  10.956  0.00  0.00    +0.000 A 
ATOM     25  C   UNL     1       6.445   1.942  11.263  0.00  0.00    +0.000 A 
ATOM     26  C   UNL     1       7.077   2.797  12.168  0.00  0.00    +0.000 A 
ENDBRANCH  20  21
ENDBRANCH  17  20
ENDBRANCH  14  15
ENDBRANCH   7  14
TORSDOF 5
ENDMDL
MODEL 3
REMARK VINA RESULT:      -8.1      1.778      8.055
REMARK  Name = 
REMARK  5 active torsions:
REMARK  status: ('A' for Active; 'I' for Inactive)
REMARK    1  A    between atoms: C_5  and  C_6
REMARK    2  A    between atoms: N_13  and  C_14
REMARK    3  A    between atoms: C_14  and  C_15
REMARK    4  A    between atoms: C_17  and  C_18
REMARK    5  A    between atoms: C_18  and  C_19
REMARK                            x       y       z     vdW  Elec       q    Type
REMARK                         _______ _______ _______ _____ _____    ______ ____
ROOT
ATOM      1  O   UNL     1       4.810   2.451  19.503  0.00  0.00    +0.000 OA
ATOM      2  C   UNL     1       4.290   3.562  19.445  0.00  0.00    +0.000 A 
ATOM      3  C   UNL     1       2.942   3.746  20.012  0.00  0.00    +0.000 A 
ATOM      4  C   UNL     1       2.328   4.928  19.957  0.00  0.00    +0.000 A 
ATOM      5  C   UNL     1       3.055   6.036  19.296  0.00  0.00    +0.000 A 
ATOM      6  N   UNL     1       4.252   5.923  18.808  0.00  0.00    +0.000 NA
ATOM      7  N   UNL     1       4.869   4.688  18.880  0.00  0.00    +0.000 N 
ENDROOT
BRANCH   5   8
ATOM      8  C   UNL     1       2.357   7.356  19.226  0.00  0.00    +0.000 A 
ATOM      9  C   UNL     1       2.368   8.060  18.012  0.00  0.00    +0.000 A 
ATOM     10  C   UNL     1       1.728   9.297  17.911  0.00  0.00    +0.000 A 
ATOM     11  C   UNL     1       1.070   9.837  19.014  0.00  0.00    +0.000 A 
ATOM     12  C   UNL     1       1.040   9.136  20.218  0.00  0.00    +0.000 A 
ATOM     13  C   UNL     1       1.675   7.896  20.325  0.00  0.00    +0.000 A 
ENDBRANCH   5   8
BRANCH   7  14
ATOM     14  C   UNL     1       6.239   4.608  18.379  0.00  0.00    +0.000 C 
BRANCH  14  15
ATOM     15  C   UNL     1       6.245   4.851  16.914  0.00  0.00    +0.000 A 
ATOM     16  N   UNL     1       6.998   4.325  15.972  0.00  0.00    +0.000 NA
ATOM     17  C   UNL     1       6.603   5.024  14.858  0.00  0.00    +0.000 A 
ATOM     18  N   UNL     1       5.636   5.928  15.076  0.00  0.00    +0.000 NA
ATOM     19  O   UNL     1       5.385   5.804  16.446  0.00  0.00    +0.000 OA
BRANCH  17  20
ATOM     20  C   UNL     1       7.312   4.900  13.559  0.00  0.00    +0.000 C 
BRANCH  20  21
ATOM     21  C   UNL     1       6.538   3.917  12.719  0.00  0.00    +0.000 A 
ATOM     22  C   UNL     1       5.142   4.013  12.613  0.00  0.00    +0.000 A 
ATOM     23  C   UNL     1       4.425   3.103  11.835  0.00  0.00    +0.000 A 
ATOM     24  C   UNL     1       5.094   2.088  11.155  0.00  0.00    +0.000 A 
ATOM     25  C   UNL     1       6.480   1.985  11.244  0.00  0.00    +0.000 A 
ATOM     26  C   UNL     1       7.200   2.893  12.022  0.00  0.00    +0.000 A 
ENDBRANCH  20  21
ENDBRANCH  17  20
ENDBRANCH  14  15
ENDBRANCH   7  14
TORSDOF 5
ENDMDL
MODEL 4
REMARK VINA RESULT:      -8.0      1.740      8.121
REMARK  Name = 
REMARK  5 active torsions:
REMARK  status: ('A' for Active; 'I' for Inactive)
REMARK    1  A    between atoms: C_5  and  C_6
REMARK    2  A    between atoms: N_13  and  C_14
REMARK    3  A    between atoms: C_14  and  C_15
REMARK    4  A    between atoms: C_17  and  C_18
REMARK    5  A    between atoms: C_18  and  C_19
REMARK                            x       y       z     vdW  Elec       q    Type
REMARK                         _______ _______ _______ _____ _____    ______ ____
ROOT
ATOM      1  O   UNL     1       5.098   2.674  19.640  0.00  0.00    +0.000 OA
ATOM      2  C   UNL     1       4.518   3.752  19.542  0.00  0.00    +0.000 A 
ATOM      3  C   UNL     1       3.152   3.874  20.082  0.00  0.00    +0.000 A 
ATOM      4  C   UNL     1       2.473   5.018  19.984  0.00  0.00    +0.000 A 
ATOM      5  C   UNL     1       3.149   6.147  19.305  0.00  0.00    +0.000 A 
ATOM      6  N   UNL     1       4.359   6.089  18.840  0.00  0.00    +0.000 NA
ATOM      7  N   UNL     1       5.043   4.893  18.956  0.00  0.00    +0.000 N 
ENDROOT
BRANCH   5   8
ATOM      8  C   UNL     1       2.379   7.423  19.186  0.00  0.00    +0.000 A 
ATOM      9  C   UNL     1       2.352   8.080  17.948  0.00  0.00    +0.000 A 
ATOM     10  C   UNL     1       1.645   9.276  17.802  0.00  0.00    +0.000 A 
ATOM     11  C   UNL     1       0.957   9.819  18.885  0.00  0.00    +0.000 A 
ATOM     12  C   UNL     1       0.966   9.163  20.114  0.00  0.00    +0.000 A 
ATOM     13  C   UNL     1       1.668   7.965  20.266  0.00  0.00    +0.000 A 
ENDBRANCH   5   8
BRANCH   7  14
ATOM     14  C   UNL     1       6.424   4.877  18.479  0.00  0.00    +0.000 C 
BRANCH  14  15
ATOM     15  C   UNL     1       6.446   4.523  17.038  0.00  0.00    +0.000 A 
ATOM     16  N   UNL     1       7.183   5.004  16.060  0.00  0.00    +0.000 NA
ATOM     17  C   UNL     1       6.667   4.360  14.962  0.00  0.00    +0.000 A 
ATOM     18  N   UNL     1       5.672   3.500  15.231  0.00  0.00    +0.000 NA
ATOM     19  O   UNL     1       5.533   3.597  16.619  0.00  0.00    +0.000 OA
BRANCH  17  20
ATOM     20  C   UNL     1       7.070   4.718  13.578  0.00  0.00    +0.000 C 
BRANCH  20  21
ATOM     21  C   UNL     1       6.336   3.792  12.643  0.00  0.00    +0.000 A 
ATOM     22  C   UNL     1       7.002   2.714  12.039  0.00  0.00    +0.000 A 
ATOM     23  C   UNL     1       6.323   1.856  11.173  0.00  0.00    +0.000 A 
ATOM     24  C   UNL     1       4.972   2.064  10.902  0.00  0.00    +0.000 A 
ATOM     25  C   UNL     1       4.296   3.124  11.502  0.00  0.00    +0.000 A 
ATOM     26  C   UNL     1       4.973   3.986  12.367  0.00  0.00    +0.000 A 
ENDBRANCH  20  21
ENDBRANCH  17  20
ENDBRANCH  14  15
ENDBRANCH   7  14
TORSDOF 5
ENDMDL
MODEL 5
REMARK VINA RESULT:      -8.0      1.962      3.278
REMARK  Name = 
REMARK  5 active torsions:
REMARK  status: ('A' for Active; 'I' for Inactive)
REMARK    1  A    between atoms: C_5  and  C_6
REMARK    2  A    between atoms: N_13  and  C_14
REMARK    3  A    between atoms: C_14  and  C_15
REMARK    4  A    between atoms: C_17  and  C_18
REMARK    5  A    between atoms: C_18  and  C_19
REMARK                            x       y       z     vdW  Elec       q    Type
REMARK                         _______ _______ _______ _____ _____    ______ ____
ROOT
ATOM      1  O   UNL     1       0.533   3.700  20.069  0.00  0.00    +0.000 OA
ATOM      2  C   UNL     1       1.518   3.890  19.362  0.00  0.00    +0.000 A 
ATOM      3  C   UNL     1       1.670   3.098  18.128  0.00  0.00    +0.000 A 
ATOM      4  C   UNL     1       2.731   3.255  17.335  0.00  0.00    +0.000 A 
ATOM      5  C   UNL     1       3.746   4.248  17.756  0.00  0.00    +0.000 A 
ATOM      6  N   UNL     1       3.637   4.983  18.820  0.00  0.00    +0.000 NA
ATOM      7  N   UNL     1       2.527   4.804  19.623  0.00  0.00    +0.000 N 
ENDROOT
BRANCH   5   8
ATOM      8  C   UNL     1       4.940   4.411  16.872  0.00  0.00    +0.000 A 
ATOM      9  C   UNL     1       6.199   4.578  17.465  0.00  0.00    +0.000 A 
ATOM     10  C   UNL     1       7.337   4.736  16.670  0.00  0.00    +0.000 A 
ATOM     11  C   UNL     1       7.226   4.722  15.281  0.00  0.00    +0.000 A 
ATOM     12  C   UNL     1       5.980   4.539  14.684  0.00  0.00    +0.000 A 
ATOM     13  C   UNL     1       4.840   4.377  15.474  0.00  0.00    +0.000 A 
ENDBRANCH   5   8
BRANCH   7  14
ATOM     14  C   UNL     1       2.402   5.689  20.779  0.00  0.00    +0.000 C 
BRANCH  14  15
ATOM     15  C   UNL     1       1.895   7.012  20.336  0.00  0.00    +0.000 A 
ATOM     16  N   UNL     1       2.009   7.615  19.172  0.00  0.00    +0.000 NA
ATOM     17  C   UNL     1       1.434   8.838  19.420  0.00  0.00    +0.000 A 
ATOM     18  N   UNL     1       0.960   8.994  20.666  0.00  0.00    +0.000 NA
ATOM     19  O   UNL     1       1.254   7.770  21.274  0.00  0.00    +0.000 OA
BRANCH  17  20
ATOM     20  C   UNL     1       1.489   9.947  18.434  0.00  0.00    +0.000 C 
BRANCH  20  21
ATOM     21  C   UNL     1       0.093  10.496  18.299  0.00  0.00    +0.000 A 
ATOM     22  C   UNL     1      -0.217  11.783  18.769  0.00  0.00    +0.000 A 
ATOM     23  C   UNL     1      -1.510  12.291  18.645  0.00  0.00    +0.000 A 
ATOM     24  C   UNL     1      -2.508  11.523  18.049  0.00  0.00    +0.000 A 
ATOM     25  C   UNL     1      -2.213  10.249  17.569  0.00  0.00    +0.000 A 
ATOM     26  C   UNL     1      -0.921   9.736  17.694  0.00  0.00    +0.000 A 
ENDBRANCH  20  21
ENDBRANCH  17  20
ENDBRANCH  14  15
ENDBRANCH   7  14
TORSDOF 5
ENDMDL
MODEL 6
REMARK VINA RESULT:      -7.9      1.964      3.062
REMARK  Name = 
REMARK  5 active torsions:
REMARK  status: ('A' for Active; 'I' for Inactive)
REMARK    1  A    between atoms: C_5  and  C_6
REMARK    2  A    between atoms: N_13  and  C_14
REMARK    3  A    between atoms: C_14  and  C_15
REMARK    4  A    between atoms: C_17  and  C_18
REMARK    5  A    between atoms: C_18  and  C_19
REMARK                            x       y       z     vdW  Elec       q    Type
REMARK                         _______ _______ _______ _____ _____    ______ ____
ROOT
ATOM      1  O   UNL     1       0.562   3.516  20.048  0.00  0.00    +0.000 OA
ATOM      2  C   UNL     1       1.557   3.737  19.363  0.00  0.00    +0.000 A 
ATOM      3  C   UNL     1       1.758   2.955  18.130  0.00  0.00    +0.000 A 
ATOM      4  C   UNL     1       2.832   3.145  17.362  0.00  0.00    +0.000 A 
ATOM      5  C   UNL     1       3.809   4.165  17.808  0.00  0.00    +0.000 A 
ATOM      6  N   UNL     1       3.655   4.893  18.871  0.00  0.00    +0.000 NA
ATOM      7  N   UNL     1       2.533   4.679  19.650  0.00  0.00    +0.000 N 
ENDROOT
BRANCH   5   8
ATOM      8  C   UNL     1       5.016   4.366  16.951  0.00  0.00    +0.000 A 
ATOM      9  C   UNL     1       4.859   4.366  15.557  0.00  0.00    +0.000 A 
ATOM     10  C   UNL     1       5.966   4.549  14.725  0.00  0.00    +0.000 A 
ATOM     11  C   UNL     1       7.232   4.738  15.276  0.00  0.00    +0.000 A 
ATOM     12  C   UNL     1       7.393   4.755  16.660  0.00  0.00    +0.000 A 
ATOM     13  C   UNL     1       6.289   4.577  17.498  0.00  0.00    +0.000 A 
ENDBRANCH   5   8
BRANCH   7  14
ATOM     14  C   UNL     1       2.358   5.555  20.805  0.00  0.00    +0.000 C 
BRANCH  14  15
ATOM     15  C   UNL     1       1.898   6.890  20.348  0.00  0.00    +0.000 A 
ATOM     16  N   UNL     1       2.041   7.480  19.180  0.00  0.00    +0.000 NA
ATOM     17  C   UNL     1       1.504   8.723  19.414  0.00  0.00    +0.000 A 
ATOM     18  N   UNL     1       1.027   8.904  20.655  0.00  0.00    +0.000 NA
ATOM     19  O   UNL     1       1.275   7.677  21.275  0.00  0.00    +0.000 OA
BRANCH  17  20
ATOM     20  C   UNL     1       1.604   9.821  18.420  0.00  0.00    +0.000 C 
BRANCH  20  21
ATOM     21  C   UNL     1       0.233  10.434  18.290  0.00  0.00    +0.000 A 
ATOM     22  C   UNL     1      -0.817   9.713  17.698  0.00  0.00    +0.000 A 
ATOM     23  C   UNL     1      -2.086  10.279  17.577  0.00  0.00    +0.000 A 
ATOM     24  C   UNL     1      -2.322  11.570  18.046  0.00  0.00    +0.000 A 
ATOM     25  C   UNL     1      -1.292  12.293  18.644  0.00  0.00    +0.000 A 
ATOM     26  C   UNL     1      -0.020  11.730  18.765  0.00  0.00    +0.000 A 
ENDBRANCH  20  21
ENDBRANCH  17  20
ENDBRANCH  14  15
ENDBRANCH   7  14
TORSDOF 5
ENDMDL
MODEL 7
REMARK VINA RESULT:      -7.8      2.014      3.259
REMARK  Name = 
REMARK  5 active torsions:
REMARK  status: ('A' for Active; 'I' for Inactive)
REMARK    1  A    between atoms: C_5  and  C_6
REMARK    2  A    between atoms: N_13  and  C_14
REMARK    3  A    between atoms: C_14  and  C_15
REMARK    4  A    between atoms: C_17  and  C_18
REMARK    5  A    between atoms: C_18  and  C_19
REMARK                            x       y       z     vdW  Elec       q    Type
REMARK                         _______ _______ _______ _____ _____    ______ ____
ROOT
ATOM      1  O   UNL     1       0.560   4.157  20.123  0.00  0.00    +0.000 OA
ATOM      2  C   UNL     1       1.534   4.315  19.393  0.00  0.00    +0.000 A 
ATOM      3  C   UNL     1       1.637   3.508  18.164  0.00  0.00    +0.000 A 
ATOM      4  C   UNL     1       2.685   3.630  17.347  0.00  0.00    +0.000 A 
ATOM      5  C   UNL     1       3.734   4.600  17.736  0.00  0.00    +0.000 A 
ATOM      6  N   UNL     1       3.668   5.348  18.794  0.00  0.00    +0.000 NA
ATOM      7  N   UNL     1       2.571   5.205  19.624  0.00  0.00    +0.000 N 
ENDROOT
BRANCH   5   8
ATOM      8  C   UNL     1       4.912   4.724  16.824  0.00  0.00    +0.000 A 
ATOM      9  C   UNL     1       4.968   3.910  15.683  0.00  0.00    +0.000 A 
ATOM     10  C   UNL     1       6.055   3.998  14.810  0.00  0.00    +0.000 A 
ATOM     11  C   UNL     1       7.086   4.899  15.064  0.00  0.00    +0.000 A 
ATOM     12  C   UNL     1       7.029   5.723  16.187  0.00  0.00    +0.000 A 
ATOM     13  C   UNL     1       5.943   5.643  17.062  0.00  0.00    +0.000 A 
ENDBRANCH   5   8
BRANCH   7  14
ATOM     14  C   UNL     1       2.495   6.103  20.773  0.00  0.00    +0.000 C 
BRANCH  14  15
ATOM     15  C   UNL     1       1.799   7.353  20.378  0.00  0.00    +0.000 A 
ATOM     16  N   UNL     1       1.884   8.054  19.268  0.00  0.00    +0.000 NA
ATOM     17  C   UNL     1       1.092   9.142  19.548  0.00  0.00    +0.000 A 
ATOM     18  N   UNL     1       0.519   9.121  20.761  0.00  0.00    +0.000 NA
ATOM     19  O   UNL     1       0.978   7.920  21.311  0.00  0.00    +0.000 OA
BRANCH  17  20
ATOM     20  C   UNL     1       1.021  10.316  18.643  0.00  0.00    +0.000 C 
BRANCH  20  21
ATOM     21  C   UNL     1      -0.437  10.632  18.432  0.00  0.00    +0.000 A 
ATOM     22  C   UNL     1      -1.030  11.730  19.076  0.00  0.00    +0.000 A 
ATOM     23  C   UNL     1      -2.380  12.022  18.882  0.00  0.00    +0.000 A 
ATOM     24  C   UNL     1      -3.153  11.223  18.042  0.00  0.00    +0.000 A 
ATOM     25  C   UNL     1      -2.577  10.135  17.390  0.00  0.00    +0.000 A 
ATOM     26  C   UNL     1      -1.226   9.839  17.584  0.00  0.00    +0.000 A 
ENDBRANCH  20  21
ENDBRANCH  17  20
ENDBRANCH  14  15
ENDBRANCH   7  14
TORSDOF 5
ENDMDL
MODEL 8
REMARK VINA RESULT:      -7.8      1.960      8.479
REMARK  Name = 
REMARK  5 active torsions:
REMARK  status: ('A' for Active; 'I' for Inactive)
REMARK    1  A    between atoms: C_5  and  C_6
REMARK    2  A    between atoms: N_13  and  C_14
REMARK    3  A    between atoms: C_14  and  C_15
REMARK    4  A    between atoms: C_17  and  C_18
REMARK    5  A    between atoms: C_18  and  C_19
REMARK                            x       y       z     vdW  Elec       q    Type
REMARK                         _______ _______ _______ _____ _____    ______ ____
ROOT
ATOM      1  O   UNL     1       3.985   2.222  17.720  0.00  0.00    +0.000 OA
ATOM      2  C   UNL     1       3.583   3.313  18.115  0.00  0.00    +0.000 A 
ATOM      3  C   UNL     1       2.185   3.433  18.567  0.00  0.00    +0.000 A 
ATOM      4  C   UNL     1       1.695   4.599  18.988  0.00  0.00    +0.000 A 
ATOM      5  C   UNL     1       2.613   5.762  18.972  0.00  0.00    +0.000 A 
ATOM      6  N   UNL     1       3.856   5.693  18.608  0.00  0.00    +0.000 NA
ATOM      7  N   UNL     1       4.341   4.472  18.177  0.00  0.00    +0.000 N 
ENDROOT
BRANCH   5   8
ATOM      8  C   UNL     1       2.056   7.070  19.433  0.00  0.00    +0.000 A 
ATOM      9  C   UNL     1       1.622   7.185  20.761  0.00  0.00    +0.000 A 
ATOM     10  C   UNL     1       1.094   8.392  21.226  0.00  0.00    +0.000 A 
ATOM     11  C   UNL     1       1.001   9.490  20.373  0.00  0.00    +0.000 A 
ATOM     12  C   UNL     1       1.446   9.388  19.056  0.00  0.00    +0.000 A 
ATOM     13  C   UNL     1       1.979   8.185  18.586  0.00  0.00    +0.000 A 
ENDBRANCH   5   8
BRANCH   7  14
ATOM     14  C   UNL     1       5.760   4.412  17.833  0.00  0.00    +0.000 C 
BRANCH  14  15
ATOM     15  C   UNL     1       5.934   4.742  16.397  0.00  0.00    +0.000 A 
ATOM     16  N   UNL     1       6.713   4.190  15.490  0.00  0.00    +0.000 NA
ATOM     17  C   UNL     1       6.507   4.997  14.398  0.00  0.00    +0.000 A 
ATOM     18  N   UNL     1       5.629   5.993  14.593  0.00  0.00    +0.000 NA
ATOM     19  O   UNL     1       5.235   5.815  15.923  0.00  0.00    +0.000 OA
BRANCH  17  20
ATOM     20  C   UNL     1       7.320   4.870  13.162  0.00  0.00    +0.000 C 
BRANCH  20  21
ATOM     21  C   UNL     1       6.778   3.696  12.388  0.00  0.00    +0.000 A 
ATOM     22  C   UNL     1       7.650   2.768  11.796  0.00  0.00    +0.000 A 
ATOM     23  C   UNL     1       7.148   1.682  11.079  0.00  0.00    +0.000 A 
ATOM     24  C   UNL     1       5.772   1.510  10.944  0.00  0.00    +0.000 A 
ATOM     25  C   UNL     1       4.895   2.418  11.533  0.00  0.00    +0.000 A 
ATOM     26  C   UNL     1       5.394   3.507  12.250  0.00  0.00    +0.000 A 
ENDBRANCH  20  21
ENDBRANCH  17  20
ENDBRANCH  14  15
ENDBRANCH   7  14
TORSDOF 5
ENDMDL
MODEL 9
REMARK VINA RESULT:      -7.8      1.468      2.319
REMARK  Name = 
REMARK  5 active torsions:
REMARK  status: ('A' for Active; 'I' for Inactive)
REMARK    1  A    between atoms: C_5  and  C_6
REMARK    2  A    between atoms: N_13  and  C_14
REMARK    3  A    between atoms: C_14  and  C_15
REMARK    4  A    between atoms: C_17  and  C_18
REMARK    5  A    between atoms: C_18  and  C_19
REMARK                            x       y       z     vdW  Elec       q    Type
REMARK                         _______ _______ _______ _____ _____    ______ ____
ROOT
ATOM      1  O   UNL     1       6.782   5.515  19.927  0.00  0.00    +0.000 OA
ATOM      2  C   UNL     1       6.704   5.245  18.732  0.00  0.00    +0.000 A 
ATOM      3  C   UNL     1       7.592   5.945  17.787  0.00  0.00    +0.000 A 
ATOM      4  C   UNL     1       7.534   5.700  16.477  0.00  0.00    +0.000 A 
ATOM      5  C   UNL     1       6.536   4.705  16.021  0.00  0.00    +0.000 A 
ATOM      6  N   UNL     1       5.754   4.048  16.822  0.00  0.00    +0.000 NA
ATOM      7  N   UNL     1       5.836   4.319  18.175  0.00  0.00    +0.000 N 
ENDROOT
BRANCH   5   8
ATOM      8  C   UNL     1       6.466   4.443  14.551  0.00  0.00    +0.000 A 
ATOM      9  C   UNL     1       7.470   4.968  13.725  0.00  0.00    +0.000 A 
ATOM     10  C   UNL     1       7.435   4.745  12.346  0.00  0.00    +0.000 A 
ATOM     11  C   UNL     1       6.405   3.993  11.785  0.00  0.00    +0.000 A 
ATOM     12  C   UNL     1       5.412   3.454  12.602  0.00  0.00    +0.000 A 
ATOM     13  C   UNL     1       5.443   3.671  13.982  0.00  0.00    +0.000 A 
ENDBRANCH   5   8
BRANCH   7  14
ATOM     14  C   UNL     1       4.988   3.520  19.057  0.00  0.00    +0.000 C 
BRANCH  14  15
ATOM     15  C   UNL     1       3.739   4.266  19.352  0.00  0.00    +0.000 A 
ATOM     16  N   UNL     1       3.571   5.454  19.892  0.00  0.00    +0.000 NA
ATOM     17  C   UNL     1       2.204   5.535  19.998  0.00  0.00    +0.000 A 
ATOM     18  N   UNL     1       1.540   4.467  19.530  0.00  0.00    +0.000 NA
ATOM     19  O   UNL     1       2.563   3.625  19.085  0.00  0.00    +0.000 OA
BRANCH  17  20
ATOM     20  C   UNL     1       1.537   6.644  20.726  0.00  0.00    +0.000 C 
BRANCH  20  21
ATOM     21  C   UNL     1       1.586   7.859  19.835  0.00  0.00    +0.000 A 
ATOM     22  C   UNL     1       2.212   7.797  18.579  0.00  0.00    +0.000 A 
ATOM     23  C   UNL     1       2.258   8.921  17.754  0.00  0.00    +0.000 A 
ATOM     24  C   UNL     1       1.679  10.118  18.172  0.00  0.00    +0.000 A 
ATOM     25  C   UNL     1       1.047  10.191  19.411  0.00  0.00    +0.000 A 
ATOM     26  C   UNL     1       1.001   9.069  20.240  0.00  0.00    +0.000 A 
ENDBRANCH  20  21
ENDBRANCH  17  20
ENDBRANCH  14  15
ENDBRANCH   7  14
TORSDOF 5
ENDMDL
