MODEL 1
REMARK VINA RESULT:      -7.8      0.000      0.000
REMARK  Name = 
REMARK  5 active torsions:
REMARK  status: ('A' for Active; 'I' for Inactive)
REMARK    1  A    between atoms: C_1  and  C_2
REMARK    2  A    between atoms: C_7  and  N_8
REMARK    3  A    between atoms: C_12  and  C_13
REMARK    4  A    between atoms: C_17  and  C_18
REMARK    5  A    between atoms: N_20  and  C_21
REMARK                            x       y       z     vdW  Elec       q    Type
REMARK                         _______ _______ _______ _____ _____    ______ ____
ROOT
ATOM      1  C   UNL     1       4.690   4.018  18.836  0.00  0.00    +0.000 C 
ATOM      2  O   UNL     1       5.097   2.655  19.030  0.00  0.00    +0.000 OA
ATOM      3  C   UNL     1       4.253   2.039  19.998  0.00  0.00    +0.000 C 
ATOM      4  C   UNL     1       3.166   3.024  20.362  0.00  0.00    +0.000 C 
ATOM      5  C   UNL     1       3.771   4.368  20.009  0.00  0.00    +0.000 C 
ENDROOT
BRANCH   1  10
ATOM      6  N   UNL     1       6.610   5.117  17.538  0.00  0.00    +0.000 N 
ATOM      7  N   UNL     1       7.817   5.699  17.785  0.00  0.00    +0.000 NA
ATOM      8  C   UNL     1       7.876   5.852  19.100  0.00  0.00    +0.000 A 
ATOM      9  C   UNL     1       6.743   5.355  19.744  0.00  0.00    +0.000 A 
ATOM     10  C   UNL     1       5.946   4.829  18.739  0.00  0.00    +0.000 A 
BRANCH   6  17
ATOM     11  C   UNL     1       4.792   7.044  16.115  0.00  0.00    +0.000 C 
ATOM     12  C   UNL     1       5.360   5.793  15.498  0.00  0.00    +0.000 A 
ATOM     13  C   UNL     1       5.073   5.552  14.140  0.00  0.00    +0.000 A 
ATOM     14  C   UNL     1       5.576   4.432  13.479  0.00  0.00    +0.000 A 
ATOM     15  C   UNL     1       6.342   3.508  14.176  0.00  0.00    +0.000 A 
ATOM     16  C   UNL     1       6.637   3.724  15.523  0.00  0.00    +0.000 A 
ATOM     17  C   UNL     1       6.198   4.884  16.186  0.00  0.00    +0.000 A 
ENDBRANCH   6  17
ENDBRANCH   1  10
BRANCH   5  18
ATOM     18  C   UNL     1       2.692   5.342  19.567  0.00  0.00    +0.000 C 
ATOM     19  O   UNL     1       1.649   4.939  19.066  0.00  0.00    +0.000 OA
ATOM     20  N   UNL     1       2.994   6.674  19.813  0.00  0.00    +0.000 N 
ATOM     21  H   UNL     1       3.958   6.908  20.015  0.00  0.00    +0.000 HD
BRANCH  20  22
ATOM     22  C   UNL     1       2.126   7.758  19.529  0.00  0.00    +0.000 A 
ATOM     23  C   UNL     1       2.040   8.335  18.243  0.00  0.00    +0.000 A 
ATOM     24  C   UNL     1       1.235   9.450  17.990  0.00  0.00    +0.000 A 
ATOM     25  C   UNL     1       0.525   9.959  19.048  0.00  0.00    +0.000 A 
ATOM     26  C   UNL     1       0.561   9.392  20.318  0.00  0.00    +0.000 A 
ATOM     27  C   UNL     1       1.343   8.274  20.573  0.00  0.00    +0.000 A 
ATOM     28  C   UNL     1      -0.301  10.204  21.240  0.00  0.00    +0.000 C 
ATOM     29  C   UNL     1      -0.827  11.305  20.309  0.00  0.00    +0.000 C 
ATOM     30  O   UNL     1      -1.571  12.223  20.612  0.00  0.00    +0.000 OA
ATOM     31  N   UNL     1      -0.296  11.074  19.047  0.00  0.00    +0.000 N 
ATOM     32  H   UNL     1      -0.478  11.671  18.255  0.00  0.00    +0.000 HD
ENDBRANCH  20  22
ENDBRANCH   5  18
TORSDOF 4
ENDMDL
MODEL 2
REMARK VINA RESULT:      -7.8      2.816      8.745
REMARK  Name = 
REMARK  5 active torsions:
REMARK  status: ('A' for Active; 'I' for Inactive)
REMARK    1  A    between atoms: C_1  and  C_2
REMARK    2  A    between atoms: C_7  and  N_8
REMARK    3  A    between atoms: C_12  and  C_13
REMARK    4  A    between atoms: C_17  and  C_18
REMARK    5  A    between atoms: N_20  and  C_21
REMARK                            x       y       z     vdW  Elec       q    Type
REMARK                         _______ _______ _______ _____ _____    ______ ____
ROOT
ATOM      1  C   UNL     1       1.123  10.314  20.144  0.00  0.00    +0.000 C 
ATOM      2  O   UNL     1       0.970  10.698  21.519  0.00  0.00    +0.000 OA
ATOM      3  C   UNL     1       1.017   9.538  22.346  0.00  0.00    +0.000 C 
ATOM      4  C   UNL     1       1.337   8.352  21.465  0.00  0.00    +0.000 C 
ATOM      5  C   UNL     1       0.894   8.802  20.087  0.00  0.00    +0.000 C 
ENDROOT
BRANCH   1  10
ATOM      6  N   UNL     1       0.338  12.497  19.049  0.00  0.00    +0.000 N 
ATOM      7  N   UNL     1      -0.793  13.023  18.503  0.00  0.00    +0.000 NA
ATOM      8  C   UNL     1      -1.640  12.010  18.391  0.00  0.00    +0.000 A 
ATOM      9  C   UNL     1      -1.108  10.817  18.883  0.00  0.00    +0.000 A 
ATOM     10  C   UNL     1       0.152  11.141  19.359  0.00  0.00    +0.000 A 
BRANCH   6  17
ATOM     11  C   UNL     1       0.694  14.131  21.548  0.00  0.00    +0.000 C 
ATOM     12  C   UNL     1       1.681  14.086  20.411  0.00  0.00    +0.000 A 
ATOM     13  C   UNL     1       2.882  14.805  20.566  0.00  0.00    +0.000 A 
ATOM     14  C   UNL     1       3.863  14.800  19.576  0.00  0.00    +0.000 A 
ATOM     15  C   UNL     1       3.644  14.110  18.392  0.00  0.00    +0.000 A 
ATOM     16  C   UNL     1       2.460  13.393  18.215  0.00  0.00    +0.000 A 
ATOM     17  C   UNL     1       1.491  13.327  19.231  0.00  0.00    +0.000 A 
ENDBRANCH   6  17
ENDBRANCH   1  10
BRANCH   5  18
ATOM     18  C   UNL     1       1.764   8.172  19.013  0.00  0.00    +0.000 C 
ATOM     19  O   UNL     1       2.110   8.813  18.029  0.00  0.00    +0.000 OA
ATOM     20  N   UNL     1       2.130   6.860  19.277  0.00  0.00    +0.000 N 
ATOM     21  H   UNL     1       1.612   6.361  19.990  0.00  0.00    +0.000 HD
BRANCH  20  22
ATOM     22  C   UNL     1       2.973   6.080  18.445  0.00  0.00    +0.000 A 
ATOM     23  C   UNL     1       2.642   4.760  18.067  0.00  0.00    +0.000 A 
ATOM     24  C   UNL     1       3.512   3.974  17.305  0.00  0.00    +0.000 A 
ATOM     25  C   UNL     1       4.705   4.543  16.936  0.00  0.00    +0.000 A 
ATOM     26  C   UNL     1       5.044   5.853  17.263  0.00  0.00    +0.000 A 
ATOM     27  C   UNL     1       4.177   6.646  18.002  0.00  0.00    +0.000 A 
ATOM     28  C   UNL     1       6.417   6.149  16.732  0.00  0.00    +0.000 C 
ATOM     29  C   UNL     1       6.799   4.822  16.061  0.00  0.00    +0.000 C 
ATOM     30  O   UNL     1       7.847   4.569  15.489  0.00  0.00    +0.000 OA
ATOM     31  N   UNL     1       5.733   3.949  16.225  0.00  0.00    +0.000 N 
ATOM     32  H   UNL     1       5.741   2.999  15.884  0.00  0.00    +0.000 HD
ENDBRANCH  20  22
ENDBRANCH   5  18
TORSDOF 4
ENDMDL
MODEL 3
REMARK VINA RESULT:      -7.7      2.402      8.494
REMARK  Name = 
REMARK  5 active torsions:
REMARK  status: ('A' for Active; 'I' for Inactive)
REMARK    1  A    between atoms: C_1  and  C_2
REMARK    2  A    between atoms: C_7  and  N_8
REMARK    3  A    between atoms: C_12  and  C_13
REMARK    4  A    between atoms: C_17  and  C_18
REMARK    5  A    between atoms: N_20  and  C_21
REMARK                            x       y       z     vdW  Elec       q    Type
REMARK                         _______ _______ _______ _____ _____    ______ ____
ROOT
ATOM      1  C   UNL     1       0.970  10.812  21.134  0.00  0.00    +0.000 C 
ATOM      2  O   UNL     1       0.080  11.367  22.114  0.00  0.00    +0.000 OA
ATOM      3  C   UNL     1      -0.883  10.387  22.492  0.00  0.00    +0.000 C 
ATOM      4  C   UNL     1      -0.521   9.090  21.806  0.00  0.00    +0.000 C 
ATOM      5  C   UNL     1       0.303   9.536  20.615  0.00  0.00    +0.000 C 
ENDROOT
BRANCH   1  10
ATOM      6  N   UNL     1       0.344  12.131  19.025  0.00  0.00    +0.000 N 
ATOM      7  N   UNL     1       0.910  13.022  18.164  0.00  0.00    +0.000 NA
ATOM      8  C   UNL     1       2.050  13.389  18.732  0.00  0.00    +0.000 A 
ATOM      9  C   UNL     1       2.275  12.737  19.944  0.00  0.00    +0.000 A 
ATOM     10  C   UNL     1       1.197  11.880  20.110  0.00  0.00    +0.000 A 
BRANCH   6  17
ATOM     11  C   UNL     1      -2.128  13.294  20.282  0.00  0.00    +0.000 C 
ATOM     12  C   UNL     1      -2.127  12.145  19.308  0.00  0.00    +0.000 A 
ATOM     13  C   UNL     1      -3.376  11.633  18.908  0.00  0.00    +0.000 A 
ATOM     14  C   UNL     1      -3.472  10.587  17.991  0.00  0.00    +0.000 A 
ATOM     15  C   UNL     1      -2.317  10.004  17.488  0.00  0.00    +0.000 A 
ATOM     16  C   UNL     1      -1.068  10.494  17.872  0.00  0.00    +0.000 A 
ATOM     17  C   UNL     1      -0.953  11.595  18.739  0.00  0.00    +0.000 A 
ENDBRANCH   6  17
ENDBRANCH   1  10
BRANCH   5  18
ATOM     18  C   UNL     1       1.351   8.491  20.269  0.00  0.00    +0.000 C 
ATOM     19  O   UNL     1       1.966   7.903  21.149  0.00  0.00    +0.000 OA
ATOM     20  N   UNL     1       1.501   8.268  18.907  0.00  0.00    +0.000 N 
ATOM     21  H   UNL     1       1.117   8.957  18.272  0.00  0.00    +0.000 HD
BRANCH  20  22
ATOM     22  C   UNL     1       2.384   7.311  18.344  0.00  0.00    +0.000 A 
ATOM     23  C   UNL     1       2.062   5.938  18.279  0.00  0.00    +0.000 A 
ATOM     24  C   UNL     1       2.968   4.993  17.788  0.00  0.00    +0.000 A 
ATOM     25  C   UNL     1       4.188   5.461  17.366  0.00  0.00    +0.000 A 
ATOM     26  C   UNL     1       4.521   6.811  17.385  0.00  0.00    +0.000 A 
ATOM     27  C   UNL     1       3.619   7.758  17.853  0.00  0.00    +0.000 A 
ATOM     28  C   UNL     1       5.927   6.975  16.884  0.00  0.00    +0.000 C 
ATOM     29  C   UNL     1       6.335   5.526  16.582  0.00  0.00    +0.000 C 
ATOM     30  O   UNL     1       7.413   5.145  16.156  0.00  0.00    +0.000 OA
ATOM     31  N   UNL     1       5.251   4.714  16.887  0.00  0.00    +0.000 N 
ATOM     32  H   UNL     1       5.270   3.711  16.790  0.00  0.00    +0.000 HD
ENDBRANCH  20  22
ENDBRANCH   5  18
TORSDOF 4
ENDMDL
MODEL 4
REMARK VINA RESULT:      -7.6      2.526      8.937
REMARK  Name = 
REMARK  5 active torsions:
REMARK  status: ('A' for Active; 'I' for Inactive)
REMARK    1  A    between atoms: C_1  and  C_2
REMARK    2  A    between atoms: C_7  and  N_8
REMARK    3  A    between atoms: C_12  and  C_13
REMARK    4  A    between atoms: C_17  and  C_18
REMARK    5  A    between atoms: N_20  and  C_21
REMARK                            x       y       z     vdW  Elec       q    Type
REMARK                         _______ _______ _______ _____ _____    ______ ____
ROOT
ATOM      1  C   UNL     1       1.398  11.029  20.269  0.00  0.00    +0.000 C 
ATOM      2  O   UNL     1       0.815  11.168  21.573  0.00  0.00    +0.000 OA
ATOM      3  C   UNL     1      -0.059  10.070  21.823  0.00  0.00    +0.000 C 
ATOM      4  C   UNL     1       0.060   9.107  20.663  0.00  0.00    +0.000 C 
ATOM      5  C   UNL     1       0.568   9.977  19.531  0.00  0.00    +0.000 C 
ENDROOT
BRANCH   1  10
ATOM      6  N   UNL     1       0.282  12.989  19.049  0.00  0.00    +0.000 N 
ATOM      7  N   UNL     1       0.638  14.140  18.411  0.00  0.00    +0.000 NA
ATOM      8  C   UNL     1       1.925  14.312  18.679  0.00  0.00    +0.000 A 
ATOM      9  C   UNL     1       2.447  13.280  19.459  0.00  0.00    +0.000 A 
ATOM     10  C   UNL     1       1.399  12.394  19.654  0.00  0.00    +0.000 A 
BRANCH   6  17
ATOM     11  C   UNL     1      -1.571  13.559  21.348  0.00  0.00    +0.000 C 
ATOM     12  C   UNL     1      -1.971  12.837  20.088  0.00  0.00    +0.000 A 
ATOM     13  C   UNL     1      -3.324  12.468  19.955  0.00  0.00    +0.000 A 
ATOM     14  C   UNL     1      -3.790  11.818  18.812  0.00  0.00    +0.000 A 
ATOM     15  C   UNL     1      -2.902  11.486  17.799  0.00  0.00    +0.000 A 
ATOM     16  C   UNL     1      -1.557  11.838  17.910  0.00  0.00    +0.000 A 
ATOM     17  C   UNL     1      -1.083  12.558  19.022  0.00  0.00    +0.000 A 
ENDBRANCH   6  17
ENDBRANCH   1  10
BRANCH   5  18
ATOM     18  C   UNL     1       1.446   9.169  18.589  0.00  0.00    +0.000 C 
ATOM     19  O   UNL     1       1.830   9.643  17.527  0.00  0.00    +0.000 OA
ATOM     20  N   UNL     1       1.774   7.907  19.063  0.00  0.00    +0.000 N 
ATOM     21  H   UNL     1       1.227   7.535  19.830  0.00  0.00    +0.000 HD
BRANCH  20  22
ATOM     22  C   UNL     1       2.615   6.990  18.383  0.00  0.00    +0.000 A 
ATOM     23  C   UNL     1       2.268   5.631  18.219  0.00  0.00    +0.000 A 
ATOM     24  C   UNL     1       3.136   4.719  17.610  0.00  0.00    +0.000 A 
ATOM     25  C   UNL     1       4.343   5.204  17.174  0.00  0.00    +0.000 A 
ATOM     26  C   UNL     1       4.699   6.544  17.289  0.00  0.00    +0.000 A 
ATOM     27  C   UNL     1       3.835   7.459  17.874  0.00  0.00    +0.000 A 
ATOM     28  C   UNL     1       6.084   6.730  16.740  0.00  0.00    +0.000 C 
ATOM     29  C   UNL     1       6.454   5.307  16.301  0.00  0.00    +0.000 C 
ATOM     30  O   UNL     1       7.506   4.949  15.796  0.00  0.00    +0.000 OA
ATOM     31  N   UNL     1       5.371   4.486  16.587  0.00  0.00    +0.000 N 
ATOM     32  H   UNL     1       5.369   3.494  16.406  0.00  0.00    +0.000 HD
ENDBRANCH  20  22
ENDBRANCH   5  18
TORSDOF 4
ENDMDL
MODEL 5
REMARK VINA RESULT:      -7.6      7.522     10.543
REMARK  Name = 
REMARK  5 active torsions:
REMARK  status: ('A' for Active; 'I' for Inactive)
REMARK    1  A    between atoms: C_1  and  C_2
REMARK    2  A    between atoms: C_7  and  N_8
REMARK    3  A    between atoms: C_12  and  C_13
REMARK    4  A    between atoms: C_17  and  C_18
REMARK    5  A    between atoms: N_20  and  C_21
REMARK                            x       y       z     vdW  Elec       q    Type
REMARK                         _______ _______ _______ _____ _____    ______ ____
ROOT
ATOM      1  C   UNL     1      -3.594  12.665  23.093  0.00  0.00    +0.000 C 
ATOM      2  O   UNL     1      -3.758  12.267  24.463  0.00  0.00    +0.000 OA
ATOM      3  C   UNL     1      -5.127  12.395  24.836  0.00  0.00    +0.000 C 
ATOM      4  C   UNL     1      -5.911  12.784  23.602  0.00  0.00    +0.000 C 
ATOM      5  C   UNL     1      -4.868  13.419  22.704  0.00  0.00    +0.000 C 
ENDROOT
BRANCH   1  10
ATOM      6  N   UNL     1      -1.070  12.929  22.721  0.00  0.00    +0.000 N 
ATOM      7  N   UNL     1      -0.091  13.853  22.933  0.00  0.00    +0.000 NA
ATOM      8  C   UNL     1      -0.721  14.966  23.281  0.00  0.00    +0.000 A 
ATOM      9  C   UNL     1      -2.105  14.797  23.338  0.00  0.00    +0.000 A 
ATOM     10  C   UNL     1      -2.329  13.465  23.029  0.00  0.00    +0.000 A 
BRANCH   6  17
ATOM     11  C   UNL     1      -0.129  12.497  19.898  0.00  0.00    +0.000 C 
ATOM     12  C   UNL     1      -0.258  11.408  20.930  0.00  0.00    +0.000 A 
ATOM     13  C   UNL     1       0.159  10.113  20.562  0.00  0.00    +0.000 A 
ATOM     14  C   UNL     1       0.099   9.049  21.461  0.00  0.00    +0.000 A 
ATOM     15  C   UNL     1      -0.420   9.250  22.733  0.00  0.00    +0.000 A 
ATOM     16  C   UNL     1      -0.842  10.522  23.118  0.00  0.00    +0.000 A 
ATOM     17  C   UNL     1      -0.722  11.622  22.250  0.00  0.00    +0.000 A 
ENDBRANCH   6  17
ENDBRANCH   1  10
BRANCH   5  18
ATOM     18  C   UNL     1      -5.203  13.178  21.242  0.00  0.00    +0.000 C 
ATOM     19  O   UNL     1      -6.222  13.643  20.746  0.00  0.00    +0.000 OA
ATOM     20  N   UNL     1      -4.253  12.434  20.557  0.00  0.00    +0.000 N 
ATOM     21  H   UNL     1      -3.578  11.914  21.105  0.00  0.00    +0.000 HD
BRANCH  20  22
ATOM     22  C   UNL     1      -4.325  12.118  19.177  0.00  0.00    +0.000 A 
ATOM     23  C   UNL     1      -5.511  12.283  18.428  0.00  0.00    +0.000 A 
ATOM     24  C   UNL     1      -5.592  11.902  17.086  0.00  0.00    +0.000 A 
ATOM     25  C   UNL     1      -4.464  11.361  16.522  0.00  0.00    +0.000 A 
ATOM     26  C   UNL     1      -3.271  11.218  17.223  0.00  0.00    +0.000 A 
ATOM     27  C   UNL     1      -3.176  11.612  18.551  0.00  0.00    +0.000 A 
ATOM     28  C   UNL     1      -2.252  10.574  16.327  0.00  0.00    +0.000 C 
ATOM     29  C   UNL     1      -3.042  10.377  15.026  0.00  0.00    +0.000 C 
ATOM     30  O   UNL     1      -2.633   9.873  13.993  0.00  0.00    +0.000 OA
ATOM     31  N   UNL     1      -4.321  10.875  15.234  0.00  0.00    +0.000 N 
ATOM     32  H   UNL     1      -5.044  10.849  14.530  0.00  0.00    +0.000 HD
ENDBRANCH  20  22
ENDBRANCH   5  18
TORSDOF 4
ENDMDL
MODEL 6
REMARK VINA RESULT:      -7.6      2.956      8.964
REMARK  Name = 
REMARK  5 active torsions:
REMARK  status: ('A' for Active; 'I' for Inactive)
REMARK    1  A    between atoms: C_1  and  C_2
REMARK    2  A    between atoms: C_7  and  N_8
REMARK    3  A    between atoms: C_12  and  C_13
REMARK    4  A    between atoms: C_17  and  C_18
REMARK    5  A    between atoms: N_20  and  C_21
REMARK                            x       y       z     vdW  Elec       q    Type
REMARK                         _______ _______ _______ _____ _____    ______ ____
ROOT
ATOM      1  C   UNL     1      -0.202  11.040  20.908  0.00  0.00    +0.000 C 
ATOM      2  O   UNL     1      -0.917  11.998  21.704  0.00  0.00    +0.000 OA
ATOM      3  C   UNL     1      -1.219  11.429  22.976  0.00  0.00    +0.000 C 
ATOM      4  C   UNL     1      -0.557  10.072  23.048  0.00  0.00    +0.000 C 
ATOM      5  C   UNL     1      -0.384   9.684  21.593  0.00  0.00    +0.000 C 
ENDROOT
BRANCH   1  10
ATOM      6  N   UNL     1      -0.601  12.255  18.685  0.00  0.00    +0.000 N 
ATOM      7  N   UNL     1      -1.376  12.132  17.571  0.00  0.00    +0.000 NA
ATOM      8  C   UNL     1      -1.938  10.935  17.659  0.00  0.00    +0.000 A 
ATOM      9  C   UNL     1      -1.579  10.264  18.829  0.00  0.00    +0.000 A 
ATOM     10  C   UNL     1      -0.757  11.140  19.521  0.00  0.00    +0.000 A 
BRANCH   6  17
ATOM     11  C   UNL     1       2.358  12.175  18.154  0.00  0.00    +0.000 C 
ATOM     12  C   UNL     1       1.603  13.403  18.591  0.00  0.00    +0.000 A 
ATOM     13  C   UNL     1       2.326  14.608  18.688  0.00  0.00    +0.000 A 
ATOM     14  C   UNL     1       1.704  15.799  19.061  0.00  0.00    +0.000 A 
ATOM     15  C   UNL     1       0.355  15.799  19.387  0.00  0.00    +0.000 A 
ATOM     16  C   UNL     1      -0.381  14.616  19.302  0.00  0.00    +0.000 A 
ATOM     17  C   UNL     1       0.213  13.421  18.857  0.00  0.00    +0.000 A 
ENDBRANCH   6  17
ENDBRANCH   1  10
BRANCH   5  18
ATOM     18  C   UNL     1       0.858   8.826  21.413  0.00  0.00    +0.000 C 
ATOM     19  O   UNL     1       1.806   8.924  22.182  0.00  0.00    +0.000 OA
ATOM     20  N   UNL     1       0.785   7.940  20.348  0.00  0.00    +0.000 N 
ATOM     21  H   UNL     1       0.067   8.098  19.651  0.00  0.00    +0.000 HD
BRANCH  20  22
ATOM     22  C   UNL     1       1.800   7.009  20.008  0.00  0.00    +0.000 A 
ATOM     23  C   UNL     1       2.756   7.273  19.003  0.00  0.00    +0.000 A 
ATOM     24  C   UNL     1       3.708   6.321  18.627  0.00  0.00    +0.000 A 
ATOM     25  C   UNL     1       3.677   5.116  19.281  0.00  0.00    +0.000 A 
ATOM     26  C   UNL     1       2.770   4.839  20.299  0.00  0.00    +0.000 A 
ATOM     27  C   UNL     1       1.834   5.785  20.693  0.00  0.00    +0.000 A 
ATOM     28  C   UNL     1       2.989   3.433  20.779  0.00  0.00    +0.000 C 
ATOM     29  C   UNL     1       4.145   2.960  19.887  0.00  0.00    +0.000 C 
ATOM     30  O   UNL     1       4.674   1.861  19.898  0.00  0.00    +0.000 OA
ATOM     31  N   UNL     1       4.484   4.015  19.050  0.00  0.00    +0.000 N 
ATOM     32  H   UNL     1       5.211   3.954  18.353  0.00  0.00    +0.000 HD
ENDBRANCH  20  22
ENDBRANCH   5  18
TORSDOF 4
ENDMDL
MODEL 7
REMARK VINA RESULT:      -7.5      4.808      6.733
REMARK  Name = 
REMARK  5 active torsions:
REMARK  status: ('A' for Active; 'I' for Inactive)
REMARK    1  A    between atoms: C_1  and  C_2
REMARK    2  A    between atoms: C_7  and  N_8
REMARK    3  A    between atoms: C_12  and  C_13
REMARK    4  A    between atoms: C_17  and  C_18
REMARK    5  A    between atoms: N_20  and  C_21
REMARK                            x       y       z     vdW  Elec       q    Type
REMARK                         _______ _______ _______ _____ _____    ______ ____
ROOT
ATOM      1  C   UNL     1       6.500   5.974  18.049  0.00  0.00    +0.000 C 
ATOM      2  O   UNL     1       6.359   4.852  18.934  0.00  0.00    +0.000 OA
ATOM      3  C   UNL     1       7.434   4.847  19.870  0.00  0.00    +0.000 C 
ATOM      4  C   UNL     1       8.248   6.102  19.652  0.00  0.00    +0.000 C 
ATOM      5  C   UNL     1       7.932   6.486  18.220  0.00  0.00    +0.000 C 
ENDROOT
BRANCH   1  10
ATOM      6  N   UNL     1       4.995   4.752  16.369  0.00  0.00    +0.000 N 
ATOM      7  N   UNL     1       5.053   4.279  15.093  0.00  0.00    +0.000 NA
ATOM      8  C   UNL     1       6.173   4.768  14.582  0.00  0.00    +0.000 A 
ATOM      9  C   UNL     1       6.886   5.536  15.503  0.00  0.00    +0.000 A 
ATOM     10  C   UNL     1       6.153   5.482  16.678  0.00  0.00    +0.000 A 
BRANCH   6  17
ATOM     11  C   UNL     1       3.354   6.964  17.575  0.00  0.00    +0.000 C 
ATOM     12  C   UNL     1       3.058   5.497  17.738  0.00  0.00    +0.000 A 
ATOM     13  C   UNL     1       1.891   5.145  18.445  0.00  0.00    +0.000 A 
ATOM     14  C   UNL     1       1.525   3.812  18.623  0.00  0.00    +0.000 A 
ATOM     15  C   UNL     1       2.342   2.802  18.135  0.00  0.00    +0.000 A 
ATOM     16  C   UNL     1       3.503   3.126  17.434  0.00  0.00    +0.000 A 
ATOM     17  C   UNL     1       3.851   4.465  17.181  0.00  0.00    +0.000 A 
ENDBRANCH   6  17
ENDBRANCH   1  10
BRANCH   5  18
ATOM     18  C   UNL     1       7.982   7.995  18.047  0.00  0.00    +0.000 C 
ATOM     19  O   UNL     1       7.286   8.555  17.209  0.00  0.00    +0.000 OA
ATOM     20  N   UNL     1       8.842   8.638  18.927  0.00  0.00    +0.000 N 
ATOM     21  H   UNL     1       9.527   8.072  19.412  0.00  0.00    +0.000 HD
BRANCH  20  22
ATOM     22  C   UNL     1       9.024  10.043  18.985  0.00  0.00    +0.000 A 
ATOM     23  C   UNL     1       8.935  10.861  17.838  0.00  0.00    +0.000 A 
ATOM     24  C   UNL     1       9.187  12.235  17.894  0.00  0.00    +0.000 A 
ATOM     25  C   UNL     1       9.522  12.758  19.118  0.00  0.00    +0.000 A 
ATOM     26  C   UNL     1       9.583  11.984  20.273  0.00  0.00    +0.000 A 
ATOM     27  C   UNL     1       9.315  10.623  20.229  0.00  0.00    +0.000 A 
ATOM     28  C   UNL     1      10.000  12.855  21.422  0.00  0.00    +0.000 C 
ATOM     29  C   UNL     1      10.164  14.225  20.751  0.00  0.00    +0.000 C 
ATOM     30  O   UNL     1      10.507  15.265  21.288  0.00  0.00    +0.000 OA
ATOM     31  N   UNL     1       9.855  14.070  19.406  0.00  0.00    +0.000 N 
ATOM     32  H   UNL     1       9.901  14.826  18.740  0.00  0.00    +0.000 HD
ENDBRANCH  20  22
ENDBRANCH   5  18
TORSDOF 4
ENDMDL
MODEL 8
REMARK VINA RESULT:      -7.5      2.579      8.869
REMARK  Name = 
REMARK  5 active torsions:
REMARK  status: ('A' for Active; 'I' for Inactive)
REMARK    1  A    between atoms: C_1  and  C_2
REMARK    2  A    between atoms: C_7  and  N_8
REMARK    3  A    between atoms: C_12  and  C_13
REMARK    4  A    between atoms: C_17  and  C_18
REMARK    5  A    between atoms: N_20  and  C_21
REMARK                            x       y       z     vdW  Elec       q    Type
REMARK                         _______ _______ _______ _____ _____    ______ ____
ROOT
ATOM      1  C   UNL     1      -0.128  10.907  20.912  0.00  0.00    +0.000 C 
ATOM      2  O   UNL     1      -0.813  11.877  21.718  0.00  0.00    +0.000 OA
ATOM      3  C   UNL     1      -1.104  11.315  22.995  0.00  0.00    +0.000 C 
ATOM      4  C   UNL     1      -0.466   9.946  23.058  0.00  0.00    +0.000 C 
ATOM      5  C   UNL     1      -0.323   9.554  21.601  0.00  0.00    +0.000 C 
ENDROOT
BRANCH   1  10
ATOM      6  N   UNL     1      -0.536  12.125  18.693  0.00  0.00    +0.000 N 
ATOM      7  N   UNL     1      -1.332  12.016  17.591  0.00  0.00    +0.000 NA
ATOM      8  C   UNL     1      -1.918  10.832  17.691  0.00  0.00    +0.000 A 
ATOM      9  C   UNL     1      -1.554  10.156  18.857  0.00  0.00    +0.000 A 
ATOM     10  C   UNL     1      -0.702  11.015  19.533  0.00  0.00    +0.000 A 
BRANCH   6  17
ATOM     11  C   UNL     1       2.396  12.002  18.039  0.00  0.00    +0.000 C 
ATOM     12  C   UNL     1       1.682  13.235  18.525  0.00  0.00    +0.000 A 
ATOM     13  C   UNL     1       2.430  14.426  18.610  0.00  0.00    +0.000 A 
ATOM     14  C   UNL     1       1.845  15.621  19.027  0.00  0.00    +0.000 A 
ATOM     15  C   UNL     1       0.511  15.640  19.409  0.00  0.00    +0.000 A 
ATOM     16  C   UNL     1      -0.248  14.472  19.335  0.00  0.00    +0.000 A 
ATOM     17  C   UNL     1       0.305  13.274  18.849  0.00  0.00    +0.000 A 
ENDBRANCH   6  17
ENDBRANCH   1  10
BRANCH   5  18
ATOM     18  C   UNL     1       0.900   8.674  21.401  0.00  0.00    +0.000 C 
ATOM     19  O   UNL     1       1.907   8.836  22.078  0.00  0.00    +0.000 OA
ATOM     20  N   UNL     1       0.740   7.692  20.434  0.00  0.00    +0.000 N 
ATOM     21  H   UNL     1      -0.033   7.790  19.787  0.00  0.00    +0.000 HD
BRANCH  20  22
ATOM     22  C   UNL     1       1.724   6.726  20.102  0.00  0.00    +0.000 A 
ATOM     23  C   UNL     1       1.819   5.489  20.775  0.00  0.00    +0.000 A 
ATOM     24  C   UNL     1       2.837   4.573  20.490  0.00  0.00    +0.000 A 
ATOM     25  C   UNL     1       3.741   4.928  19.520  0.00  0.00    +0.000 A 
ATOM     26  C   UNL     1       3.653   6.125  18.815  0.00  0.00    +0.000 A 
ATOM     27  C   UNL     1       2.634   7.030  19.079  0.00  0.00    +0.000 A 
ATOM     28  C   UNL     1       4.804   6.211  17.855  0.00  0.00    +0.000 C 
ATOM     29  C   UNL     1       5.549   4.896  18.120  0.00  0.00    +0.000 C 
ATOM     30  O   UNL     1       6.572   4.515  17.577  0.00  0.00    +0.000 OA
ATOM     31  N   UNL     1       4.848   4.210  19.103  0.00  0.00    +0.000 N 
ATOM     32  H   UNL     1       5.143   3.317  19.468  0.00  0.00    +0.000 HD
ENDBRANCH  20  22
ENDBRANCH   5  18
TORSDOF 4
ENDMDL
MODEL 9
REMARK VINA RESULT:      -7.5      4.905      7.213
REMARK  Name = 
REMARK  5 active torsions:
REMARK  status: ('A' for Active; 'I' for Inactive)
REMARK    1  A    between atoms: C_1  and  C_2
REMARK    2  A    between atoms: C_7  and  N_8
REMARK    3  A    between atoms: C_12  and  C_13
REMARK    4  A    between atoms: C_17  and  C_18
REMARK    5  A    between atoms: N_20  and  C_21
REMARK                            x       y       z     vdW  Elec       q    Type
REMARK                         _______ _______ _______ _____ _____    ______ ____
ROOT
ATOM      1  C   UNL     1       6.331   6.056  18.572  0.00  0.00    +0.000 C 
ATOM      2  O   UNL     1       6.444   5.126  19.660  0.00  0.00    +0.000 OA
ATOM      3  C   UNL     1       7.749   5.212  20.226  0.00  0.00    +0.000 C 
ATOM      4  C   UNL     1       8.480   6.345  19.541  0.00  0.00    +0.000 C 
ATOM      5  C   UNL     1       7.757   6.485  18.217  0.00  0.00    +0.000 C 
ENDROOT
BRANCH   1  10
ATOM      6  N   UNL     1       4.384   4.648  17.676  0.00  0.00    +0.000 N 
ATOM      7  N   UNL     1       4.050   3.953  16.552  0.00  0.00    +0.000 NA
ATOM      8  C   UNL     1       4.964   4.277  15.648  0.00  0.00    +0.000 A 
ATOM      9  C   UNL     1       5.925   5.153  16.155  0.00  0.00    +0.000 A 
ATOM     10  C   UNL     1       5.582   5.351  17.483  0.00  0.00    +0.000 A 
BRANCH   6  17
ATOM     11  C   UNL     1       2.666   6.979  18.485  0.00  0.00    +0.000 C 
ATOM     12  C   UNL     1       2.710   5.660  19.211  0.00  0.00    +0.000 A 
ATOM     13  C   UNL     1       1.833   5.489  20.299  0.00  0.00    +0.000 A 
ATOM     14  C   UNL     1       1.788   4.293  21.014  0.00  0.00    +0.000 A 
ATOM     15  C   UNL     1       2.651   3.258  20.680  0.00  0.00    +0.000 A 
ATOM     16  C   UNL     1       3.531   3.406  19.608  0.00  0.00    +0.000 A 
ATOM     17  C   UNL     1       3.539   4.578  18.830  0.00  0.00    +0.000 A 
ENDBRANCH   6  17
ENDBRANCH   1  10
BRANCH   5  18
ATOM     18  C   UNL     1       7.776   7.930  17.747  0.00  0.00    +0.000 C 
ATOM     19  O   UNL     1       7.052   8.303  16.832  0.00  0.00    +0.000 OA
ATOM     20  N   UNL     1       8.643   8.746  18.460  0.00  0.00    +0.000 N 
ATOM     21  H   UNL     1       9.349   8.298  19.031  0.00  0.00    +0.000 HD
BRANCH  20  22
ATOM     22  C   UNL     1       8.802  10.138  18.235  0.00  0.00    +0.000 A 
ATOM     23  C   UNL     1       7.763  10.937  17.710  0.00  0.00    +0.000 A 
ATOM     24  C   UNL     1       7.952  12.293  17.425  0.00  0.00    +0.000 A 
ATOM     25  C   UNL     1       9.194  12.816  17.680  0.00  0.00    +0.000 A 
ATOM     26  C   UNL     1      10.227  12.063  18.230  0.00  0.00    +0.000 A 
ATOM     27  C   UNL     1      10.042  10.722  18.535  0.00  0.00    +0.000 A 
ATOM     28  C   UNL     1      11.448  12.927  18.355  0.00  0.00    +0.000 C 
ATOM     29  C   UNL     1      10.956  14.270  17.800  0.00  0.00    +0.000 C 
ATOM     30  O   UNL     1      11.606  15.296  17.686  0.00  0.00    +0.000 OA
ATOM     31  N   UNL     1       9.624  14.110  17.439  0.00  0.00    +0.000 N 
ATOM     32  H   UNL     1       9.072  14.848  17.030  0.00  0.00    +0.000 HD
ENDBRANCH  20  22
ENDBRANCH   5  18
TORSDOF 4
ENDMDL
