MODEL 1
REMARK VINA RESULT:      -8.7      0.000      0.000
REMARK  Name = 
REMARK  5 active torsions:
REMARK  status: ('A' for Active; 'I' for Inactive)
REMARK    1  A    between atoms: C_2  and  C_3
REMARK    2  A    between atoms: C_3  and  C_4
REMARK    3  A    between atoms: N_14  and  C_15
REMARK    4  A    between atoms: C_19  and  N_20
REMARK    5  A    between atoms: C_21  and  C_23
REMARK                            x       y       z     vdW  Elec       q    Type
REMARK                         _______ _______ _______ _____ _____    ______ ____
ROOT
ATOM      1  O   UNL     1       8.581   7.391  18.900  0.00  0.00    +0.000 OA
ATOM      2  C   UNL     1       8.011   8.069  18.047  0.00  0.00    +0.000 C 
ATOM      3  N   UNL     1       8.161   9.436  17.847  0.00  0.00    +0.000 N 
ATOM      4  H   UNL     1       7.506   9.895  17.219  0.00  0.00    +0.000 HD
ENDROOT
BRANCH   3   5
ATOM      5  C   UNL     1       9.080  10.271  18.539  0.00  0.00    +0.000 A 
ATOM      6  C   UNL     1      10.190  10.829  17.900  0.00  0.00    +0.000 A 
ATOM      7  C   UNL     1      11.118  11.581  18.606  0.00  0.00    +0.000 A 
ATOM      8  C   UNL     1      10.919  11.832  19.956  0.00  0.00    +0.000 A 
ATOM      9  C   UNL     1       9.767  11.388  20.610  0.00  0.00    +0.000 A 
ATOM     10  C   UNL     1       8.863  10.570  19.902  0.00  0.00    +0.000 A 
BRANCH   9  11
ATOM     11  N   UNL     1       9.489  11.759  21.959  0.00  0.00    +0.000 N 
ATOM     12  C   UNL     1       8.737  12.880  22.318  0.00  0.00    +0.000 C 
ATOM     13  O   UNL     1       8.209  13.670  21.540  0.00  0.00    +0.000 OA
ATOM     14  H   UNL     1       9.698  11.075  22.672  0.00  0.00    +0.000 HD
BRANCH  12  15
ATOM     15  C   UNL     1       8.492  13.135  23.762  0.00  0.00    +0.000 A 
ATOM     16  C   UNL     1       8.571  14.394  24.346  0.00  0.00    +0.000 A 
ATOM     17  C   UNL     1       8.223  14.499  25.685  0.00  0.00    +0.000 A 
ATOM     18  N   UNL     1       7.820  13.461  26.451  0.00  0.00    +0.000 NA
ATOM     19  C   UNL     1       7.743  12.254  25.857  0.00  0.00    +0.000 A 
ATOM     20  C   UNL     1       8.066  12.042  24.533  0.00  0.00    +0.000 A 
ENDBRANCH  12  15
ENDBRANCH   9  11
ENDBRANCH   3   5
BRANCH   2  21
ATOM     21  C   UNL     1       7.025   7.391  17.115  0.00  0.00    +0.000 C 
BRANCH  21  22
ATOM     22  C   UNL     1       7.040   5.874  17.233  0.00  0.00    +0.000 C 
ATOM     23  C   UNL     1       7.038   5.225  15.840  0.00  0.00    +0.000 C 
ATOM     24  O   UNL     1       7.758   5.530  14.902  0.00  0.00    +0.000 OA
ATOM     25  N   UNL     1       6.032   4.273  15.822  0.00  0.00    +0.000 N 
ATOM     26  C   UNL     1       5.308   4.284  17.005  0.00  0.00    +0.000 A 
ATOM     27  C   UNL     1       4.185   3.543  17.305  0.00  0.00    +0.000 A 
ATOM     28  C   UNL     1       3.592   3.757  18.552  0.00  0.00    +0.000 A 
ATOM     29  C   UNL     1       4.135   4.688  19.457  0.00  0.00    +0.000 A 
ATOM     30  C   UNL     1       5.279   5.426  19.129  0.00  0.00    +0.000 A 
ATOM     31  C   UNL     1       5.852   5.219  17.886  0.00  0.00    +0.000 A 
ATOM     32  H   UNL     1       5.806   3.721  15.009  0.00  0.00    +0.000 HD
ENDBRANCH  21  22
ENDBRANCH   2  21
TORSDOF 5
ENDMDL
MODEL 2
REMARK VINA RESULT:      -8.2      6.293      7.518
REMARK  Name = 
REMARK  5 active torsions:
REMARK  status: ('A' for Active; 'I' for Inactive)
REMARK    1  A    between atoms: C_2  and  C_3
REMARK    2  A    between atoms: C_3  and  C_4
REMARK    3  A    between atoms: N_14  and  C_15
REMARK    4  A    between atoms: C_19  and  N_20
REMARK    5  A    between atoms: C_21  and  C_23
REMARK                            x       y       z     vdW  Elec       q    Type
REMARK                         _______ _______ _______ _____ _____    ______ ____
ROOT
ATOM      1  O   UNL     1       2.491   8.580  17.418  0.00  0.00    +0.000 OA
ATOM      2  C   UNL     1       2.715   7.698  18.246  0.00  0.00    +0.000 C 
ATOM      3  N   UNL     1       2.258   7.664  19.557  0.00  0.00    +0.000 N 
ATOM      4  H   UNL     1       2.656   6.963  20.177  0.00  0.00    +0.000 HD
ENDROOT
BRANCH   3   5
ATOM      5  C   UNL     1       1.363   8.603  20.139  0.00  0.00    +0.000 A 
ATOM      6  C   UNL     1       0.582   8.281  21.252  0.00  0.00    +0.000 A 
ATOM      7  C   UNL     1      -0.341   9.183  21.762  0.00  0.00    +0.000 A 
ATOM      8  C   UNL     1      -0.457  10.445  21.199  0.00  0.00    +0.000 A 
ATOM      9  C   UNL     1       0.382  10.849  20.157  0.00  0.00    +0.000 A 
ATOM     10  C   UNL     1       1.271   9.905  19.602  0.00  0.00    +0.000 A 
BRANCH   9  11
ATOM     11  N   UNL     1       0.365  12.189  19.666  0.00  0.00    +0.000 N 
ATOM     12  C   UNL     1       1.158  13.216  20.181  0.00  0.00    +0.000 C 
ATOM     13  O   UNL     1       1.974  13.106  21.092  0.00  0.00    +0.000 OA
ATOM     14  H   UNL     1      -0.114  12.346  18.791  0.00  0.00    +0.000 HD
BRANCH  12  15
ATOM     15  C   UNL     1       1.068  14.562  19.554  0.00  0.00    +0.000 A 
ATOM     16  C   UNL     1       2.176  15.293  19.140  0.00  0.00    +0.000 A 
ATOM     17  C   UNL     1       1.938  16.493  18.484  0.00  0.00    +0.000 A 
ATOM     18  N   UNL     1       0.707  16.992  18.231  0.00  0.00    +0.000 NA
ATOM     19  C   UNL     1      -0.347  16.257  18.635  0.00  0.00    +0.000 A 
ATOM     20  C   UNL     1      -0.220  15.052  19.295  0.00  0.00    +0.000 A 
ENDBRANCH  12  15
ENDBRANCH   9  11
ENDBRANCH   3   5
BRANCH   2  21
ATOM     21  C   UNL     1       3.591   6.527  17.843  0.00  0.00    +0.000 C 
BRANCH  21  22
ATOM     22  C   UNL     1       3.767   5.505  18.957  0.00  0.00    +0.000 C 
ATOM     23  C   UNL     1       5.215   4.991  18.993  0.00  0.00    +0.000 C 
ATOM     24  O   UNL     1       6.225   5.678  18.957  0.00  0.00    +0.000 OA
ATOM     25  N   UNL     1       5.169   3.607  19.012  0.00  0.00    +0.000 N 
ATOM     26  C   UNL     1       3.866   3.146  18.895  0.00  0.00    +0.000 A 
ATOM     27  C   UNL     1       3.449   1.836  18.786  0.00  0.00    +0.000 A 
ATOM     28  C   UNL     1       2.079   1.612  18.631  0.00  0.00    +0.000 A 
ATOM     29  C   UNL     1       1.173   2.689  18.597  0.00  0.00    +0.000 A 
ATOM     30  C   UNL     1       1.622   4.010  18.713  0.00  0.00    +0.000 A 
ATOM     31  C   UNL     1       2.983   4.224  18.852  0.00  0.00    +0.000 A 
ATOM     32  H   UNL     1       5.993   3.024  19.010  0.00  0.00    +0.000 HD
ENDBRANCH  21  22
ENDBRANCH   2  21
TORSDOF 5
ENDMDL
MODEL 3
REMARK VINA RESULT:      -8.2      7.974      9.821
REMARK  Name = 
REMARK  5 active torsions:
REMARK  status: ('A' for Active; 'I' for Inactive)
REMARK    1  A    between atoms: C_2  and  C_3
REMARK    2  A    between atoms: C_3  and  C_4
REMARK    3  A    between atoms: N_14  and  C_15
REMARK    4  A    between atoms: C_19  and  N_20
REMARK    5  A    between atoms: C_21  and  C_23
REMARK                            x       y       z     vdW  Elec       q    Type
REMARK                         _______ _______ _______ _____ _____    ______ ____
ROOT
ATOM      1  O   UNL     1       2.039   8.138  20.019  0.00  0.00    +0.000 OA
ATOM      2  C   UNL     1       2.221   8.076  18.805  0.00  0.00    +0.000 C 
ATOM      3  N   UNL     1       1.822   9.018  17.864  0.00  0.00    +0.000 N 
ATOM      4  H   UNL     1       1.889   8.760  16.882  0.00  0.00    +0.000 HD
ENDROOT
BRANCH   3   5
ATOM      5  C   UNL     1       1.216  10.268  18.160  0.00  0.00    +0.000 A 
ATOM      6  C   UNL     1       1.967  11.440  18.278  0.00  0.00    +0.000 A 
ATOM      7  C   UNL     1       1.371  12.638  18.641  0.00  0.00    +0.000 A 
ATOM      8  C   UNL     1      -0.001  12.695  18.839  0.00  0.00    +0.000 A 
ATOM      9  C   UNL     1      -0.807  11.574  18.623  0.00  0.00    +0.000 A 
ATOM     10  C   UNL     1      -0.186  10.345  18.318  0.00  0.00    +0.000 A 
BRANCH   9  11
ATOM     11  N   UNL     1      -2.230  11.658  18.687  0.00  0.00    +0.000 N 
ATOM     12  C   UNL     1      -3.070  11.476  17.588  0.00  0.00    +0.000 C 
ATOM     13  O   UNL     1      -2.710  11.207  16.444  0.00  0.00    +0.000 OA
ATOM     14  H   UNL     1      -2.643  11.672  19.608  0.00  0.00    +0.000 HD
BRANCH  12  15
ATOM     15  C   UNL     1      -4.540  11.557  17.798  0.00  0.00    +0.000 A 
ATOM     16  C   UNL     1      -5.358  12.492  17.173  0.00  0.00    +0.000 A 
ATOM     17  C   UNL     1      -6.725  12.389  17.389  0.00  0.00    +0.000 A 
ATOM     18  N   UNL     1      -7.304  11.449  18.169  0.00  0.00    +0.000 NA
ATOM     19  C   UNL     1      -6.489  10.550  18.754  0.00  0.00    +0.000 A 
ATOM     20  C   UNL     1      -5.118  10.564  18.605  0.00  0.00    +0.000 A 
ENDBRANCH  12  15
ENDBRANCH   9  11
ENDBRANCH   3   5
BRANCH   2  21
ATOM     21  C   UNL     1       2.928   6.862  18.234  0.00  0.00    +0.000 C 
BRANCH  21  22
ATOM     22  C   UNL     1       3.563   5.985  19.303  0.00  0.00    +0.000 C 
ATOM     23  C   UNL     1       4.857   5.345  18.777  0.00  0.00    +0.000 C 
ATOM     24  O   UNL     1       5.759   5.922  18.188  0.00  0.00    +0.000 OA
ATOM     25  N   UNL     1       4.790   3.986  19.037  0.00  0.00    +0.000 N 
ATOM     26  C   UNL     1       3.564   3.640  19.585  0.00  0.00    +0.000 A 
ATOM     27  C   UNL     1       3.110   2.373  19.884  0.00  0.00    +0.000 A 
ATOM     28  C   UNL     1       1.813   2.262  20.390  0.00  0.00    +0.000 A 
ATOM     29  C   UNL     1       1.016   3.405  20.587  0.00  0.00    +0.000 A 
ATOM     30  C   UNL     1       1.503   4.681  20.278  0.00  0.00    +0.000 A 
ATOM     31  C   UNL     1       2.784   4.781  19.764  0.00  0.00    +0.000 A 
ATOM     32  H   UNL     1       5.509   3.333  18.765  0.00  0.00    +0.000 HD
ENDBRANCH  21  22
ENDBRANCH   2  21
TORSDOF 5
ENDMDL
MODEL 4
REMARK VINA RESULT:      -8.1      7.514      8.292
REMARK  Name = 
REMARK  5 active torsions:
REMARK  status: ('A' for Active; 'I' for Inactive)
REMARK    1  A    between atoms: C_2  and  C_3
REMARK    2  A    between atoms: C_3  and  C_4
REMARK    3  A    between atoms: N_14  and  C_15
REMARK    4  A    between atoms: C_19  and  N_20
REMARK    5  A    between atoms: C_21  and  C_23
REMARK                            x       y       z     vdW  Elec       q    Type
REMARK                         _______ _______ _______ _____ _____    ______ ____
ROOT
ATOM      1  O   UNL     1       2.213   7.970  19.774  0.00  0.00    +0.000 OA
ATOM      2  C   UNL     1       2.039   8.089  18.563  0.00  0.00    +0.000 C 
ATOM      3  N   UNL     1       1.566   9.218  17.906  0.00  0.00    +0.000 N 
ATOM      4  H   UNL     1       1.314   9.122  16.926  0.00  0.00    +0.000 HD
ENDROOT
BRANCH   3   5
ATOM      5  C   UNL     1       1.293  10.471  18.519  0.00  0.00    +0.000 A 
ATOM      6  C   UNL     1       2.143  11.568  18.359  0.00  0.00    +0.000 A 
ATOM      7  C   UNL     1       1.902  12.762  19.024  0.00  0.00    +0.000 A 
ATOM      8  C   UNL     1       0.774  12.893  19.820  0.00  0.00    +0.000 A 
ATOM      9  C   UNL     1      -0.161  11.860  19.921  0.00  0.00    +0.000 A 
ATOM     10  C   UNL     1       0.124  10.629  19.294  0.00  0.00    +0.000 A 
BRANCH   9  11
ATOM     11  N   UNL     1      -1.391  12.036  20.623  0.00  0.00    +0.000 N 
ATOM     12  C   UNL     1      -1.501  12.018  22.015  0.00  0.00    +0.000 C 
ATOM     13  O   UNL     1      -0.575  11.869  22.808  0.00  0.00    +0.000 OA
ATOM     14  H   UNL     1      -2.178  12.367  20.085  0.00  0.00    +0.000 HD
BRANCH  12  15
ATOM     15  C   UNL     1      -2.839  12.249  22.622  0.00  0.00    +0.000 A 
ATOM     16  C   UNL     1      -3.094  12.141  23.985  0.00  0.00    +0.000 A 
ATOM     17  C   UNL     1      -4.367  12.478  24.423  0.00  0.00    +0.000 A 
ATOM     18  N   UNL     1      -5.366  12.896  23.613  0.00  0.00    +0.000 NA
ATOM     19  C   UNL     1      -5.087  13.001  22.299  0.00  0.00    +0.000 A 
ATOM     20  C   UNL     1      -3.855  12.690  21.761  0.00  0.00    +0.000 A 
ENDBRANCH  12  15
ENDBRANCH   9  11
ENDBRANCH   3   5
BRANCH   2  21
ATOM     21  C   UNL     1       2.337   6.905  17.664  0.00  0.00    +0.000 C 
BRANCH  21  22
ATOM     22  C   UNL     1       3.208   5.852  18.334  0.00  0.00    +0.000 C 
ATOM     23  C   UNL     1       4.228   5.281  17.337  0.00  0.00    +0.000 C 
ATOM     24  O   UNL     1       4.942   5.928  16.586  0.00  0.00    +0.000 OA
ATOM     25  N   UNL     1       4.148   3.899  17.400  0.00  0.00    +0.000 N 
ATOM     26  C   UNL     1       3.130   3.493  18.249  0.00  0.00    +0.000 A 
ATOM     27  C   UNL     1       2.702   2.203  18.485  0.00  0.00    +0.000 A 
ATOM     28  C   UNL     1       1.620   2.037  19.352  0.00  0.00    +0.000 A 
ATOM     29  C   UNL     1       1.006   3.149  19.959  0.00  0.00    +0.000 A 
ATOM     30  C   UNL     1       1.463   4.448  19.705  0.00  0.00    +0.000 A 
ATOM     31  C   UNL     1       2.526   4.605  18.833  0.00  0.00    +0.000 A 
ATOM     32  H   UNL     1       4.700   3.285  16.820  0.00  0.00    +0.000 HD
ENDBRANCH  21  22
ENDBRANCH   2  21
TORSDOF 5
ENDMDL
MODEL 5
REMARK VINA RESULT:      -8.1      6.287      7.676
REMARK  Name = 
REMARK  5 active torsions:
REMARK  status: ('A' for Active; 'I' for Inactive)
REMARK    1  A    between atoms: C_2  and  C_3
REMARK    2  A    between atoms: C_3  and  C_4
REMARK    3  A    between atoms: N_14  and  C_15
REMARK    4  A    between atoms: C_19  and  N_20
REMARK    5  A    between atoms: C_21  and  C_23
REMARK                            x       y       z     vdW  Elec       q    Type
REMARK                         _______ _______ _______ _____ _____    ______ ____
ROOT
ATOM      1  O   UNL     1       1.836   8.316  18.936  0.00  0.00    +0.000 OA
ATOM      2  C   UNL     1       1.944   7.616  19.941  0.00  0.00    +0.000 C 
ATOM      3  N   UNL     1       1.554   7.958  21.229  0.00  0.00    +0.000 N 
ATOM      4  H   UNL     1       1.854   7.353  21.989  0.00  0.00    +0.000 HD
ENDROOT
BRANCH   3   5
ATOM      5  C   UNL     1       0.869   9.150  21.590  0.00  0.00    +0.000 A 
ATOM      6  C   UNL     1       0.051   9.214  22.721  0.00  0.00    +0.000 A 
ATOM      7  C   UNL     1      -0.670  10.362  23.018  0.00  0.00    +0.000 A 
ATOM      8  C   UNL     1      -0.541  11.485  22.214  0.00  0.00    +0.000 A 
ATOM      9  C   UNL     1       0.350  11.503  21.138  0.00  0.00    +0.000 A 
ATOM     10  C   UNL     1       1.029  10.313  20.805  0.00  0.00    +0.000 A 
BRANCH   9  11
ATOM     11  N   UNL     1       0.592  12.696  20.393  0.00  0.00    +0.000 N 
ATOM     12  C   UNL     1       1.707  13.516  20.579  0.00  0.00    +0.000 C 
ATOM     13  O   UNL     1       2.620  13.318  21.376  0.00  0.00    +0.000 OA
ATOM     14  H   UNL     1       0.017  12.847  19.577  0.00  0.00    +0.000 HD
BRANCH  12  15
ATOM     15  C   UNL     1       1.857  14.714  19.711  0.00  0.00    +0.000 A 
ATOM     16  C   UNL     1       2.980  14.963  18.930  0.00  0.00    +0.000 A 
ATOM     17  C   UNL     1       2.943  16.072  18.096  0.00  0.00    +0.000 A 
ATOM     18  N   UNL     1       1.894  16.920  18.002  0.00  0.00    +0.000 NA
ATOM     19  C   UNL     1       0.815  16.648  18.762  0.00  0.00    +0.000 A 
ATOM     20  C   UNL     1       0.750  15.573  19.624  0.00  0.00    +0.000 A 
ENDBRANCH  12  15
ENDBRANCH   9  11
ENDBRANCH   3   5
BRANCH   2  21
ATOM     21  C   UNL     1       2.579   6.244  19.809  0.00  0.00    +0.000 C 
BRANCH  21  22
ATOM     22  C   UNL     1       2.429   5.650  18.415  0.00  0.00    +0.000 C 
ATOM     23  C   UNL     1       2.062   4.161  18.501  0.00  0.00    +0.000 C 
ATOM     24  O   UNL     1       1.193   3.672  19.207  0.00  0.00    +0.000 OA
ATOM     25  N   UNL     1       2.934   3.465  17.679  0.00  0.00    +0.000 N 
ATOM     26  C   UNL     1       3.894   4.308  17.138  0.00  0.00    +0.000 A 
ATOM     27  C   UNL     1       4.970   3.953  16.353  0.00  0.00    +0.000 A 
ATOM     28  C   UNL     1       5.837   4.975  15.958  0.00  0.00    +0.000 A 
ATOM     29  C   UNL     1       5.604   6.307  16.347  0.00  0.00    +0.000 A 
ATOM     30  C   UNL     1       4.501   6.641  17.141  0.00  0.00    +0.000 A 
ATOM     31  C   UNL     1       3.655   5.621  17.540  0.00  0.00    +0.000 A 
ATOM     32  H   UNL     1       2.920   2.462  17.579  0.00  0.00    +0.000 HD
ENDBRANCH  21  22
ENDBRANCH   2  21
TORSDOF 5
ENDMDL
MODEL 6
REMARK VINA RESULT:      -8.1      8.101      9.763
REMARK  Name = 
REMARK  5 active torsions:
REMARK  status: ('A' for Active; 'I' for Inactive)
REMARK    1  A    between atoms: C_2  and  C_3
REMARK    2  A    between atoms: C_3  and  C_4
REMARK    3  A    between atoms: N_14  and  C_15
REMARK    4  A    between atoms: C_19  and  N_20
REMARK    5  A    between atoms: C_21  and  C_23
REMARK                            x       y       z     vdW  Elec       q    Type
REMARK                         _______ _______ _______ _____ _____    ______ ____
ROOT
ATOM      1  O   UNL     1       1.229   8.070  21.081  0.00  0.00    +0.000 OA
ATOM      2  C   UNL     1       1.782   7.838  20.008  0.00  0.00    +0.000 C 
ATOM      3  N   UNL     1       1.792   8.663  18.890  0.00  0.00    +0.000 N 
ATOM      4  H   UNL     1       2.145   8.274  18.019  0.00  0.00    +0.000 HD
ENDROOT
BRANCH   3   5
ATOM      5  C   UNL     1       1.240   9.972  18.831  0.00  0.00    +0.000 A 
ATOM      6  C   UNL     1       2.006  11.076  18.451  0.00  0.00    +0.000 A 
ATOM      7  C   UNL     1       1.474  12.357  18.471  0.00  0.00    +0.000 A 
ATOM      8  C   UNL     1       0.145  12.546  18.820  0.00  0.00    +0.000 A 
ATOM      9  C   UNL     1      -0.689  11.461  19.100  0.00  0.00    +0.000 A 
ATOM     10  C   UNL     1      -0.123  10.169  19.141  0.00  0.00    +0.000 A 
BRANCH   9  11
ATOM     11  N   UNL     1      -2.088  11.635  19.323  0.00  0.00    +0.000 N 
ATOM     12  C   UNL     1      -3.052  11.552  18.317  0.00  0.00    +0.000 C 
ATOM     13  O   UNL     1      -2.837  11.304  17.134  0.00  0.00    +0.000 OA
ATOM     14  H   UNL     1      -2.397  11.641  20.284  0.00  0.00    +0.000 HD
BRANCH  12  15
ATOM     15  C   UNL     1      -4.481  11.720  18.691  0.00  0.00    +0.000 A 
ATOM     16  C   UNL     1      -4.930  12.658  19.614  0.00  0.00    +0.000 A 
ATOM     17  C   UNL     1      -6.302  12.769  19.795  0.00  0.00    +0.000 A 
ATOM     18  N   UNL     1      -7.219  12.024  19.138  0.00  0.00    +0.000 NA
ATOM     19  C   UNL     1      -6.756  11.131  18.242  0.00  0.00    +0.000 A 
ATOM     20  C   UNL     1      -5.414  10.942  17.988  0.00  0.00    +0.000 A 
ENDBRANCH  12  15
ENDBRANCH   9  11
ENDBRANCH   3   5
BRANCH   2  21
ATOM     21  C   UNL     1       2.520   6.523  19.837  0.00  0.00    +0.000 C 
BRANCH  21  22
ATOM     22  C   UNL     1       2.328   5.907  18.459  0.00  0.00    +0.000 C 
ATOM     23  C   UNL     1       1.928   4.428  18.581  0.00  0.00    +0.000 C 
ATOM     24  O   UNL     1       1.061   3.974  19.313  0.00  0.00    +0.000 OA
ATOM     25  N   UNL     1       2.766   3.697  17.756  0.00  0.00    +0.000 N 
ATOM     26  C   UNL     1       3.734   4.505  17.179  0.00  0.00    +0.000 A 
ATOM     27  C   UNL     1       4.786   4.109  16.381  0.00  0.00    +0.000 A 
ATOM     28  C   UNL     1       5.669   5.102  15.949  0.00  0.00    +0.000 A 
ATOM     29  C   UNL     1       5.476   6.447  16.315  0.00  0.00    +0.000 A 
ATOM     30  C   UNL     1       4.397   6.822  17.125  0.00  0.00    +0.000 A 
ATOM     31  C   UNL     1       3.535   5.831  17.561  0.00  0.00    +0.000 A 
ATOM     32  H   UNL     1       2.726   2.692  17.675  0.00  0.00    +0.000 HD
ENDBRANCH  21  22
ENDBRANCH   2  21
TORSDOF 5
ENDMDL
MODEL 7
REMARK VINA RESULT:      -8.0      5.445      6.632
REMARK  Name = 
REMARK  5 active torsions:
REMARK  status: ('A' for Active; 'I' for Inactive)
REMARK    1  A    between atoms: C_2  and  C_3
REMARK    2  A    between atoms: C_3  and  C_4
REMARK    3  A    between atoms: N_14  and  C_15
REMARK    4  A    between atoms: C_19  and  N_20
REMARK    5  A    between atoms: C_21  and  C_23
REMARK                            x       y       z     vdW  Elec       q    Type
REMARK                         _______ _______ _______ _____ _____    ______ ____
ROOT
ATOM      1  O   UNL     1       2.196   7.588  19.907  0.00  0.00    +0.000 OA
ATOM      2  C   UNL     1       2.567   7.680  18.739  0.00  0.00    +0.000 C 
ATOM      3  N   UNL     1       2.227   8.685  17.843  0.00  0.00    +0.000 N 
ATOM      4  H   UNL     1       2.469   8.547  16.865  0.00  0.00    +0.000 HD
ENDROOT
BRANCH   3   5
ATOM      5  C   UNL     1       1.463   9.842  18.158  0.00  0.00    +0.000 A 
ATOM      6  C   UNL     1       0.083   9.777  18.366  0.00  0.00    +0.000 A 
ATOM      7  C   UNL     1      -0.659  10.925  18.599  0.00  0.00    +0.000 A 
ATOM      8  C   UNL     1      -0.022  12.155  18.681  0.00  0.00    +0.000 A 
ATOM      9  C   UNL     1       1.369  12.253  18.590  0.00  0.00    +0.000 A 
ATOM     10  C   UNL     1       2.109  11.091  18.289  0.00  0.00    +0.000 A 
BRANCH   9  11
ATOM     11  N   UNL     1       2.042  13.491  18.812  0.00  0.00    +0.000 N 
ATOM     12  C   UNL     1       2.565  13.881  20.046  0.00  0.00    +0.000 C 
ATOM     13  O   UNL     1       2.535  13.220  21.081  0.00  0.00    +0.000 OA
ATOM     14  H   UNL     1       2.303  14.020  17.993  0.00  0.00    +0.000 HD
BRANCH  12  15
ATOM     15  C   UNL     1       3.276  15.185  20.134  0.00  0.00    +0.000 A 
ATOM     16  C   UNL     1       4.658  15.315  20.057  0.00  0.00    +0.000 A 
ATOM     17  C   UNL     1       5.178  16.602  20.059  0.00  0.00    +0.000 A 
ATOM     18  N   UNL     1       4.430  17.726  20.135  0.00  0.00    +0.000 NA
ATOM     19  C   UNL     1       3.093  17.569  20.198  0.00  0.00    +0.000 A 
ATOM     20  C   UNL     1       2.476  16.336  20.204  0.00  0.00    +0.000 A 
ENDBRANCH  12  15
ENDBRANCH   9  11
ENDBRANCH   3   5
BRANCH   2  21
ATOM     21  C   UNL     1       3.469   6.599  18.174  0.00  0.00    +0.000 C 
BRANCH  21  22
ATOM     22  C   UNL     1       3.746   5.476  19.163  0.00  0.00    +0.000 C 
ATOM     23  C   UNL     1       5.182   4.956  19.000  0.00  0.00    +0.000 C 
ATOM     24  O   UNL     1       6.192   5.640  18.924  0.00  0.00    +0.000 OA
ATOM     25  N   UNL     1       5.120   3.576  18.895  0.00  0.00    +0.000 N 
ATOM     26  C   UNL     1       3.806   3.133  18.873  0.00  0.00    +0.000 A 
ATOM     27  C   UNL     1       3.363   1.841  18.686  0.00  0.00    +0.000 A 
ATOM     28  C   UNL     1       1.981   1.637  18.654  0.00  0.00    +0.000 A 
ATOM     29  C   UNL     1       1.090   2.715  18.814  0.00  0.00    +0.000 A 
ATOM     30  C   UNL     1       1.567   4.018  19.006  0.00  0.00    +0.000 A 
ATOM     31  C   UNL     1       2.938   4.213  19.022  0.00  0.00    +0.000 A 
ATOM     32  H   UNL     1       5.931   2.994  18.754  0.00  0.00    +0.000 HD
ENDBRANCH  21  22
ENDBRANCH   2  21
TORSDOF 5
ENDMDL
MODEL 8
REMARK VINA RESULT:      -8.0      8.311      9.879
REMARK  Name = 
REMARK  5 active torsions:
REMARK  status: ('A' for Active; 'I' for Inactive)
REMARK    1  A    between atoms: C_2  and  C_3
REMARK    2  A    between atoms: C_3  and  C_4
REMARK    3  A    between atoms: N_14  and  C_15
REMARK    4  A    between atoms: C_19  and  N_20
REMARK    5  A    between atoms: C_21  and  C_23
REMARK                            x       y       z     vdW  Elec       q    Type
REMARK                         _______ _______ _______ _____ _____    ______ ____
ROOT
ATOM      1  O   UNL     1       2.394   8.746  17.211  0.00  0.00    +0.000 OA
ATOM      2  C   UNL     1       2.154   8.375  18.359  0.00  0.00    +0.000 C 
ATOM      3  N   UNL     1       1.503   9.109  19.343  0.00  0.00    +0.000 N 
ATOM      4  H   UNL     1       1.522   8.745  20.292  0.00  0.00    +0.000 HD
ENDROOT
BRANCH   3   5
ATOM      5  C   UNL     1       0.913  10.389  19.157  0.00  0.00    +0.000 A 
ATOM      6  C   UNL     1       1.657  11.483  18.710  0.00  0.00    +0.000 A 
ATOM      7  C   UNL     1       1.084  12.743  18.605  0.00  0.00    +0.000 A 
ATOM      8  C   UNL     1      -0.262  12.915  18.896  0.00  0.00    +0.000 A 
ATOM      9  C   UNL     1      -1.070  11.828  19.239  0.00  0.00    +0.000 A 
ATOM     10  C   UNL     1      -0.466  10.565  19.406  0.00  0.00    +0.000 A 
BRANCH   9  11
ATOM     11  N   UNL     1      -2.480  11.973  19.402  0.00  0.00    +0.000 N 
ATOM     12  C   UNL     1      -3.404  11.799  18.371  0.00  0.00    +0.000 C 
ATOM     13  O   UNL     1      -3.139  11.486  17.213  0.00  0.00    +0.000 OA
ATOM     14  H   UNL     1      -2.824  12.027  20.350  0.00  0.00    +0.000 HD
BRANCH  12  15
ATOM     15  C   UNL     1      -4.851  11.945  18.684  0.00  0.00    +0.000 A 
ATOM     16  C   UNL     1      -5.337  12.246  19.951  0.00  0.00    +0.000 A 
ATOM     17  C   UNL     1      -6.705  12.448  20.077  0.00  0.00    +0.000 A 
ATOM     18  N   UNL     1      -7.585  12.364  19.054  0.00  0.00    +0.000 NA
ATOM     19  C   UNL     1      -7.084  12.082  17.836  0.00  0.00    +0.000 A 
ATOM     20  C   UNL     1      -5.742  11.863  17.603  0.00  0.00    +0.000 A 
ENDBRANCH  12  15
ENDBRANCH   9  11
ENDBRANCH   3   5
BRANCH   2  21
ATOM     21  C   UNL     1       2.615   6.996  18.791  0.00  0.00    +0.000 C 
BRANCH  21  22
ATOM     22  C   UNL     1       3.151   6.159  17.638  0.00  0.00    +0.000 C 
ATOM     23  C   UNL     1       2.747   4.687  17.808  0.00  0.00    +0.000 C 
ATOM     24  O   UNL     1       1.630   4.272  18.077  0.00  0.00    +0.000 OA
ATOM     25  N   UNL     1       3.890   3.918  17.659  0.00  0.00    +0.000 N 
ATOM     26  C   UNL     1       5.015   4.714  17.508  0.00  0.00    +0.000 A 
ATOM     27  C   UNL     1       6.328   4.300  17.428  0.00  0.00    +0.000 A 
ATOM     28  C   UNL     1       7.306   5.292  17.323  0.00  0.00    +0.000 A 
ATOM     29  C   UNL     1       6.950   6.654  17.296  0.00  0.00    +0.000 A 
ATOM     30  C   UNL     1       5.609   7.047  17.375  0.00  0.00    +0.000 A 
ATOM     31  C   UNL     1       4.647   6.059  17.493  0.00  0.00    +0.000 A 
ATOM     32  H   UNL     1       3.898   2.913  17.752  0.00  0.00    +0.000 HD
ENDBRANCH  21  22
ENDBRANCH   2  21
TORSDOF 5
ENDMDL
MODEL 9
REMARK VINA RESULT:      -8.0      8.114      9.769
REMARK  Name = 
REMARK  5 active torsions:
REMARK  status: ('A' for Active; 'I' for Inactive)
REMARK    1  A    between atoms: C_2  and  C_3
REMARK    2  A    between atoms: C_3  and  C_4
REMARK    3  A    between atoms: N_14  and  C_15
REMARK    4  A    between atoms: C_19  and  N_20
REMARK    5  A    between atoms: C_21  and  C_23
REMARK                            x       y       z     vdW  Elec       q    Type
REMARK                         _______ _______ _______ _____ _____    ______ ____
ROOT
ATOM      1  O   UNL     1       1.362   8.141  20.981  0.00  0.00    +0.000 OA
ATOM      2  C   UNL     1       1.845   7.861  19.885  0.00  0.00    +0.000 C 
ATOM      3  N   UNL     1       1.758   8.625  18.727  0.00  0.00    +0.000 N 
ATOM      4  H   UNL     1       2.059   8.195  17.856  0.00  0.00    +0.000 HD
ENDROOT
BRANCH   3   5
ATOM      5  C   UNL     1       1.172   9.916  18.638  0.00  0.00    +0.000 A 
ATOM      6  C   UNL     1       1.952  11.073  18.558  0.00  0.00    +0.000 A 
ATOM      7  C   UNL     1       1.366  12.330  18.547  0.00  0.00    +0.000 A 
ATOM      8  C   UNL     1      -0.016  12.448  18.560  0.00  0.00    +0.000 A 
ATOM      9  C   UNL     1      -0.837  11.317  18.526  0.00  0.00    +0.000 A 
ATOM     10  C   UNL     1      -0.234  10.045  18.604  0.00  0.00    +0.000 A 
BRANCH   9  11
ATOM     11  N   UNL     1      -2.253  11.430  18.398  0.00  0.00    +0.000 N 
ATOM     12  C   UNL     1      -3.081  11.979  19.379  0.00  0.00    +0.000 C 
ATOM     13  O   UNL     1      -2.712  12.446  20.454  0.00  0.00    +0.000 OA
ATOM     14  H   UNL     1      -2.641  11.267  17.481  0.00  0.00    +0.000 HD
BRANCH  12  15
ATOM     15  C   UNL     1      -4.540  12.068  19.105  0.00  0.00    +0.000 A 
ATOM     16  C   UNL     1      -5.155  11.478  18.006  0.00  0.00    +0.000 A 
ATOM     17  C   UNL     1      -6.538  11.563  17.928  0.00  0.00    +0.000 A 
ATOM     18  N   UNL     1      -7.317  12.183  18.843  0.00  0.00    +0.000 NA
ATOM     19  C   UNL     1      -6.695  12.737  19.902  0.00  0.00    +0.000 A 
ATOM     20  C   UNL     1      -5.326  12.709  20.075  0.00  0.00    +0.000 A 
ENDBRANCH  12  15
ENDBRANCH   9  11
ENDBRANCH   3   5
BRANCH   2  21
ATOM     21  C   UNL     1       2.601   6.555  19.734  0.00  0.00    +0.000 C 
BRANCH  21  22
ATOM     22  C   UNL     1       2.431   5.924  18.359  0.00  0.00    +0.000 C 
ATOM     23  C   UNL     1       2.007   4.453  18.490  0.00  0.00    +0.000 C 
ATOM     24  O   UNL     1       1.118   4.020  19.208  0.00  0.00    +0.000 OA
ATOM     25  N   UNL     1       2.853   3.700  17.693  0.00  0.00    +0.000 N 
ATOM     26  C   UNL     1       3.845   4.487  17.128  0.00  0.00    +0.000 A 
ATOM     27  C   UNL     1       4.909   4.067  16.358  0.00  0.00    +0.000 A 
ATOM     28  C   UNL     1       5.815   5.042  15.934  0.00  0.00    +0.000 A 
ATOM     29  C   UNL     1       5.633   6.394  16.281  0.00  0.00    +0.000 A 
ATOM     30  C   UNL     1       4.542   6.794  17.062  0.00  0.00    +0.000 A 
ATOM     31  C   UNL     1       3.656   5.820  17.489  0.00  0.00    +0.000 A 
ATOM     32  H   UNL     1       2.800   2.695  17.623  0.00  0.00    +0.000 HD
ENDBRANCH  21  22
ENDBRANCH   2  21
TORSDOF 5
ENDMDL
