MODEL 1
REMARK VINA RESULT:      -9.4      0.000      0.000
REMARK  Name = 
REMARK  4 active torsions:
REMARK  status: ('A' for Active; 'I' for Inactive)
REMARK    1  A    between atoms: C_2  and  C_19
REMARK    2  A    between atoms: N_3  and  C_4
REMARK    3  A    between atoms: C_8  and  S_9
REMARK    4  A    between atoms: S_9  and  N_12
REMARK                            x       y       z     vdW  Elec       q    Type
REMARK                         _______ _______ _______ _____ _____    ______ ____
ROOT
ATOM      1  C   UNL     1       2.854   5.601  20.002  0.00  0.00    +0.000 A 
ATOM      2  C   UNL     1       2.532   4.325  20.460  0.00  0.00    +0.000 A 
ATOM      3  C   UNL     1       3.357   3.232  20.155  0.00  0.00    +0.000 A 
ATOM      4  C   UNL     1       4.521   3.405  19.403  0.00  0.00    +0.000 A 
ATOM      5  C   UNL     1       4.855   4.679  18.952  0.00  0.00    +0.000 A 
ATOM      6  C   UNL     1       4.008   5.764  19.223  0.00  0.00    +0.000 A 
ENDROOT
BRANCH   1   9
ATOM      7  O   UNL     1       2.584   8.148  18.462  0.00  0.00    +0.000 OA
ATOM      8  C   UNL     1       2.005   7.939  19.525  0.00  0.00    +0.000 C 
ATOM      9  N   UNL     1       2.089   6.759  20.249  0.00  0.00    +0.000 N 
ATOM     10  H   UNL     1       1.516   6.732  21.084  0.00  0.00    +0.000 HD
BRANCH   8  11
ATOM     11  C   UNL     1       1.162   8.967  20.157  0.00  0.00    +0.000 A 
ATOM     12  C   UNL     1       0.731   9.026  21.471  0.00  0.00    +0.000 A 
ATOM     13  C   UNL     1      -0.182  10.110  21.730  0.00  0.00    +0.000 A 
ATOM     14  C   UNL     1      -0.884  10.481  22.904  0.00  0.00    +0.000 A 
ATOM     15  C   UNL     1      -1.772  11.558  22.872  0.00  0.00    +0.000 A 
ATOM     16  F   UNL     1      -2.453  11.882  23.979  0.00  0.00    +0.000 F 
ATOM     17  C   UNL     1      -1.976  12.292  21.717  0.00  0.00    +0.000 A 
ATOM     18  C   UNL     1      -1.275  11.969  20.555  0.00  0.00    +0.000 A 
ATOM     19  C   UNL     1      -0.388  10.873  20.579  0.00  0.00    +0.000 A 
ATOM     20  S   UNL     1       0.551  10.295  19.265  0.00  0.00    +0.000 S 
ENDBRANCH   8  11
ENDBRANCH   1   9
BRANCH   5  21
ATOM     21  S   UNL     1       6.258   4.921  17.887  0.00  0.00    +0.000 S 
ATOM     22  O   UNL     1       6.208   6.288  17.406  0.00  0.00    +0.000 OA
ATOM     23  O   UNL     1       7.441   4.426  18.555  0.00  0.00    +0.000 OA
BRANCH  21  24
ATOM     24  N   UNL     1       5.987   3.982  16.531  0.00  0.00    +0.000 N 
ATOM     25  C   UNL     1       6.406   4.314  15.247  0.00  0.00    +0.000 C 
ATOM     26  N   UNL     1       7.454   5.029  15.019  0.00  0.00    +0.000 NA
ATOM     27  C   UNL     1       7.548   5.153  13.558  0.00  0.00    +0.000 C 
ATOM     28  C   UNL     1       6.670   4.054  12.986  0.00  0.00    +0.000 C 
ATOM     29  C   UNL     1       5.629   3.843  14.063  0.00  0.00    +0.000 C 
ATOM     30  H   UNL     1       5.229   3.322  16.684  0.00  0.00    +0.000 HD
ENDBRANCH  21  24
ENDBRANCH   5  21
TORSDOF 4
ENDMDL
MODEL 2
REMARK VINA RESULT:      -9.2      1.443      1.664
REMARK  Name = 
REMARK  4 active torsions:
REMARK  status: ('A' for Active; 'I' for Inactive)
REMARK    1  A    between atoms: C_2  and  C_19
REMARK    2  A    between atoms: N_3  and  C_4
REMARK    3  A    between atoms: C_8  and  S_9
REMARK    4  A    between atoms: S_9  and  N_12
REMARK                            x       y       z     vdW  Elec       q    Type
REMARK                         _______ _______ _______ _____ _____    ______ ____
ROOT
ATOM      1  C   UNL     1       3.256   5.779  18.102  0.00  0.00    +0.000 A 
ATOM      2  C   UNL     1       2.714   4.543  17.753  0.00  0.00    +0.000 A 
ATOM      3  C   UNL     1       3.527   3.541  17.204  0.00  0.00    +0.000 A 
ATOM      4  C   UNL     1       4.894   3.756  17.013  0.00  0.00    +0.000 A 
ATOM      5  C   UNL     1       5.444   4.984  17.370  0.00  0.00    +0.000 A 
ATOM      6  C   UNL     1       4.622   6.000  17.881  0.00  0.00    +0.000 A 
ENDROOT
BRANCH   1   9
ATOM      7  O   UNL     1       2.756   8.548  17.095  0.00  0.00    +0.000 OA
ATOM      8  C   UNL     1       2.331   8.136  18.172  0.00  0.00    +0.000 C 
ATOM      9  N   UNL     1       2.523   6.849  18.654  0.00  0.00    +0.000 N 
ATOM     10  H   UNL     1       2.071   6.656  19.540  0.00  0.00    +0.000 HD
BRANCH   8  11
ATOM     11  C   UNL     1       1.575   9.007  19.085  0.00  0.00    +0.000 A 
ATOM     12  C   UNL     1       1.174   8.738  20.382  0.00  0.00    +0.000 A 
ATOM     13  C   UNL     1       0.345   9.768  20.954  0.00  0.00    +0.000 A 
ATOM     14  C   UNL     1      -0.307   9.855  22.210  0.00  0.00    +0.000 A 
ATOM     15  C   UNL     1      -1.118  10.954  22.499  0.00  0.00    +0.000 A 
ATOM     16  F   UNL     1      -1.753  11.012  23.677  0.00  0.00    +0.000 F 
ATOM     17  C   UNL     1      -1.289  11.983  21.589  0.00  0.00    +0.000 A 
ATOM     18  C   UNL     1      -0.635  11.940  20.359  0.00  0.00    +0.000 A 
ATOM     19  C   UNL     1       0.172  10.825  20.057  0.00  0.00    +0.000 A 
ATOM     20  S   UNL     1       1.043  10.562  18.603  0.00  0.00    +0.000 S 
ENDBRANCH   8  11
ENDBRANCH   1   9
BRANCH   5  21
ATOM     21  S   UNL     1       7.151   5.343  17.025  0.00  0.00    +0.000 S 
ATOM     22  O   UNL     1       7.506   6.530  17.779  0.00  0.00    +0.000 OA
ATOM     23  O   UNL     1       7.921   4.128  17.174  0.00  0.00    +0.000 OA
BRANCH  21  24
ATOM     24  N   UNL     1       7.219   5.817  15.425  0.00  0.00    +0.000 N 
ATOM     25  C   UNL     1       7.037   4.962  14.342  0.00  0.00    +0.000 C 
ATOM     26  N   UNL     1       6.297   3.909  14.402  0.00  0.00    +0.000 NA
ATOM     27  C   UNL     1       6.371   3.287  13.072  0.00  0.00    +0.000 C 
ATOM     28  C   UNL     1       6.894   4.362  12.136  0.00  0.00    +0.000 C 
ATOM     29  C   UNL     1       7.719   5.246  13.045  0.00  0.00    +0.000 C 
ATOM     30  H   UNL     1       7.709   6.702  15.322  0.00  0.00    +0.000 HD
ENDBRANCH  21  24
ENDBRANCH   5  21
TORSDOF 4
ENDMDL
MODEL 3
REMARK VINA RESULT:      -9.2      1.550      1.768
REMARK  Name = 
REMARK  4 active torsions:
REMARK  status: ('A' for Active; 'I' for Inactive)
REMARK    1  A    between atoms: C_2  and  C_19
REMARK    2  A    between atoms: N_3  and  C_4
REMARK    3  A    between atoms: C_8  and  S_9
REMARK    4  A    between atoms: S_9  and  N_12
REMARK                            x       y       z     vdW  Elec       q    Type
REMARK                         _______ _______ _______ _____ _____    ______ ____
ROOT
ATOM      1  C   UNL     1       3.365   5.821  18.238  0.00  0.00    +0.000 A 
ATOM      2  C   UNL     1       2.744   4.665  17.769  0.00  0.00    +0.000 A 
ATOM      3  C   UNL     1       3.482   3.696  17.073  0.00  0.00    +0.000 A 
ATOM      4  C   UNL     1       4.851   3.864  16.852  0.00  0.00    +0.000 A 
ATOM      5  C   UNL     1       5.479   5.012  17.328  0.00  0.00    +0.000 A 
ATOM      6  C   UNL     1       4.732   5.999  17.988  0.00  0.00    +0.000 A 
ENDROOT
BRANCH   1   9
ATOM      7  O   UNL     1       1.892   5.804  20.838  0.00  0.00    +0.000 OA
ATOM      8  C   UNL     1       2.012   6.807  20.139  0.00  0.00    +0.000 C 
ATOM      9  N   UNL     1       2.711   6.853  18.942  0.00  0.00    +0.000 N 
ATOM     10  H   UNL     1       2.751   7.768  18.508  0.00  0.00    +0.000 HD
BRANCH   8  11
ATOM     11  C   UNL     1       1.384   8.085  20.511  0.00  0.00    +0.000 A 
ATOM     12  C   UNL     1       0.901   8.468  21.751  0.00  0.00    +0.000 A 
ATOM     13  C   UNL     1       0.240   9.747  21.742  0.00  0.00    +0.000 A 
ATOM     14  C   UNL     1      -0.429  10.462  22.767  0.00  0.00    +0.000 A 
ATOM     15  C   UNL     1      -1.051  11.677  22.476  0.00  0.00    +0.000 A 
ATOM     16  F   UNL     1      -1.705  12.331  23.445  0.00  0.00    +0.000 F 
ATOM     17  C   UNL     1      -1.018  12.218  21.202  0.00  0.00    +0.000 A 
ATOM     18  C   UNL     1      -0.341  11.553  20.181  0.00  0.00    +0.000 A 
ATOM     19  C   UNL     1       0.276  10.318  20.468  0.00  0.00    +0.000 A 
ATOM     20  S   UNL     1       1.137   9.329  19.361  0.00  0.00    +0.000 S 
ENDBRANCH   8  11
ENDBRANCH   1   9
BRANCH   5  21
ATOM     21  S   UNL     1       7.190   5.325  16.957  0.00  0.00    +0.000 S 
ATOM     22  O   UNL     1       7.594   6.490  17.720  0.00  0.00    +0.000 OA
ATOM     23  O   UNL     1       7.925   4.085  17.074  0.00  0.00    +0.000 OA
BRANCH  21  24
ATOM     24  N   UNL     1       7.244   5.820  15.362  0.00  0.00    +0.000 N 
ATOM     25  C   UNL     1       7.084   4.973  14.269  0.00  0.00    +0.000 C 
ATOM     26  N   UNL     1       6.373   3.900  14.317  0.00  0.00    +0.000 NA
ATOM     27  C   UNL     1       6.463   3.296  12.980  0.00  0.00    +0.000 C 
ATOM     28  C   UNL     1       6.955   4.396  12.056  0.00  0.00    +0.000 C 
ATOM     29  C   UNL     1       7.757   5.291  12.975  0.00  0.00    +0.000 C 
ATOM     30  H   UNL     1       7.709   6.718  15.269  0.00  0.00    +0.000 HD
ENDBRANCH  21  24
ENDBRANCH   5  21
TORSDOF 4
ENDMDL
MODEL 4
REMARK VINA RESULT:      -9.1      1.506      1.538
REMARK  Name = 
REMARK  4 active torsions:
REMARK  status: ('A' for Active; 'I' for Inactive)
REMARK    1  A    between atoms: C_2  and  C_19
REMARK    2  A    between atoms: N_3  and  C_4
REMARK    3  A    between atoms: C_8  and  S_9
REMARK    4  A    between atoms: S_9  and  N_12
REMARK                            x       y       z     vdW  Elec       q    Type
REMARK                         _______ _______ _______ _____ _____    ______ ____
ROOT
ATOM      1  C   UNL     1       2.660   5.753  18.352  0.00  0.00    +0.000 A 
ATOM      2  C   UNL     1       1.953   4.582  18.086  0.00  0.00    +0.000 A 
ATOM      3  C   UNL     1       2.559   3.532  17.379  0.00  0.00    +0.000 A 
ATOM      4  C   UNL     1       3.883   3.634  16.946  0.00  0.00    +0.000 A 
ATOM      5  C   UNL     1       4.598   4.797  17.219  0.00  0.00    +0.000 A 
ATOM      6  C   UNL     1       3.978   5.862  17.889  0.00  0.00    +0.000 A 
ENDROOT
BRANCH   1   9
ATOM      7  O   UNL     1       1.784   6.062  21.192  0.00  0.00    +0.000 OA
ATOM      8  C   UNL     1       1.717   6.967  20.365  0.00  0.00    +0.000 C 
ATOM      9  N   UNL     1       2.140   6.863  19.048  0.00  0.00    +0.000 N 
ATOM     10  H   UNL     1       2.055   7.715  18.506  0.00  0.00    +0.000 HD
BRANCH   8  11
ATOM     11  C   UNL     1       1.142   8.279  20.704  0.00  0.00    +0.000 A 
ATOM     12  C   UNL     1       0.635   8.698  21.922  0.00  0.00    +0.000 A 
ATOM     13  C   UNL     1       0.041  10.010  21.878  0.00  0.00    +0.000 A 
ATOM     14  C   UNL     1      -0.626  10.768  22.873  0.00  0.00    +0.000 A 
ATOM     15  C   UNL     1      -1.175  12.010  22.549  0.00  0.00    +0.000 A 
ATOM     16  F   UNL     1      -1.829  12.705  23.489  0.00  0.00    +0.000 F 
ATOM     17  C   UNL     1      -1.068  12.536  21.273  0.00  0.00    +0.000 A 
ATOM     18  C   UNL     1      -0.390  11.827  20.283  0.00  0.00    +0.000 A 
ATOM     19  C   UNL     1       0.153  10.565  20.602  0.00  0.00    +0.000 A 
ATOM     20  S   UNL     1       1.001   9.523  19.535  0.00  0.00    +0.000 S 
ENDBRANCH   8  11
ENDBRANCH   1   9
BRANCH   5  21
ATOM     21  S   UNL     1       6.241   5.018  16.575  0.00  0.00    +0.000 S 
ATOM     22  O   UNL     1       6.313   6.356  16.020  0.00  0.00    +0.000 OA
ATOM     23  O   UNL     1       7.194   4.591  17.575  0.00  0.00    +0.000 OA
BRANCH  21  24
ATOM     24  N   UNL     1       6.370   4.001  15.256  0.00  0.00    +0.000 N 
ATOM     25  C   UNL     1       6.812   4.397  13.997  0.00  0.00    +0.000 C 
ATOM     26  N   UNL     1       7.647   5.364  13.824  0.00  0.00    +0.000 NA
ATOM     27  C   UNL     1       7.851   5.465  12.372  0.00  0.00    +0.000 C 
ATOM     28  C   UNL     1       7.363   4.152  11.787  0.00  0.00    +0.000 C 
ATOM     29  C   UNL     1       6.314   3.697  12.777  0.00  0.00    +0.000 C 
ATOM     30  H   UNL     1       5.807   3.164  15.377  0.00  0.00    +0.000 HD
ENDBRANCH  21  24
ENDBRANCH   5  21
TORSDOF 4
ENDMDL
MODEL 5
REMARK VINA RESULT:      -9.1      1.154      1.531
REMARK  Name = 
REMARK  4 active torsions:
REMARK  status: ('A' for Active; 'I' for Inactive)
REMARK    1  A    between atoms: C_2  and  C_19
REMARK    2  A    between atoms: N_3  and  C_4
REMARK    3  A    between atoms: C_8  and  S_9
REMARK    4  A    between atoms: S_9  and  N_12
REMARK                            x       y       z     vdW  Elec       q    Type
REMARK                         _______ _______ _______ _____ _____    ______ ____
ROOT
ATOM      1  C   UNL     1       3.127   5.749  19.314  0.00  0.00    +0.000 A 
ATOM      2  C   UNL     1       3.054   4.429  19.754  0.00  0.00    +0.000 A 
ATOM      3  C   UNL     1       3.965   3.472  19.284  0.00  0.00    +0.000 A 
ATOM      4  C   UNL     1       4.971   3.827  18.381  0.00  0.00    +0.000 A 
ATOM      5  C   UNL     1       5.057   5.147  17.947  0.00  0.00    +0.000 A 
ATOM      6  C   UNL     1       4.119   6.094  18.386  0.00  0.00    +0.000 A 
ENDROOT
BRANCH   1   9
ATOM      7  O   UNL     1       2.563   8.432  18.126  0.00  0.00    +0.000 OA
ATOM      8  C   UNL     1       2.037   8.030  19.161  0.00  0.00    +0.000 C 
ATOM      9  N   UNL     1       2.257   6.780  19.722  0.00  0.00    +0.000 N 
ATOM     10  H   UNL     1       1.712   6.586  20.554  0.00  0.00    +0.000 HD
BRANCH   8  11
ATOM     11  C   UNL     1       1.112   8.874  19.933  0.00  0.00    +0.000 A 
ATOM     12  C   UNL     1       0.308   9.902  19.470  0.00  0.00    +0.000 A 
ATOM     13  C   UNL     1      -0.391  10.603  20.517  0.00  0.00    +0.000 A 
ATOM     14  C   UNL     1      -1.252  11.729  20.476  0.00  0.00    +0.000 A 
ATOM     15  C   UNL     1      -1.759  12.260  21.663  0.00  0.00    +0.000 A 
ATOM     16  F   UNL     1      -2.547  13.342  21.615  0.00  0.00    +0.000 F 
ATOM     17  C   UNL     1      -1.456  11.700  22.892  0.00  0.00    +0.000 A 
ATOM     18  C   UNL     1      -0.637  10.574  22.960  0.00  0.00    +0.000 A 
ATOM     19  C   UNL     1      -0.111  10.043  21.765  0.00  0.00    +0.000 A 
ATOM     20  S   UNL     1       0.927   8.684  21.625  0.00  0.00    +0.000 S 
ENDBRANCH   8  11
ENDBRANCH   1   9
BRANCH   5  21
ATOM     21  S   UNL     1       6.240   5.612  16.703  0.00  0.00    +0.000 S 
ATOM     22  O   UNL     1       5.716   6.779  16.021  0.00  0.00    +0.000 OA
ATOM     23  O   UNL     1       7.556   5.647  17.302  0.00  0.00    +0.000 OA
BRANCH  21  24
ATOM     24  N   UNL     1       6.216   4.399  15.554  0.00  0.00    +0.000 N 
ATOM     25  C   UNL     1       6.667   4.546  14.246  0.00  0.00    +0.000 C 
ATOM     26  N   UNL     1       7.601   5.370  13.919  0.00  0.00    +0.000 NA
ATOM     27  C   UNL     1       7.776   5.227  12.467  0.00  0.00    +0.000 C 
ATOM     28  C   UNL     1       7.126   3.906  12.095  0.00  0.00    +0.000 C 
ATOM     29  C   UNL     1       6.058   3.732  13.152  0.00  0.00    +0.000 C 
ATOM     30  H   UNL     1       5.564   3.662  15.808  0.00  0.00    +0.000 HD
ENDBRANCH  21  24
ENDBRANCH   5  21
TORSDOF 4
ENDMDL
MODEL 6
REMARK VINA RESULT:      -9.1      1.261      1.287
REMARK  Name = 
REMARK  4 active torsions:
REMARK  status: ('A' for Active; 'I' for Inactive)
REMARK    1  A    between atoms: C_2  and  C_19
REMARK    2  A    between atoms: N_3  and  C_4
REMARK    3  A    between atoms: C_8  and  S_9
REMARK    4  A    between atoms: S_9  and  N_12
REMARK                            x       y       z     vdW  Elec       q    Type
REMARK                         _______ _______ _______ _____ _____    ______ ____
ROOT
ATOM      1  C   UNL     1       2.572   5.893  18.478  0.00  0.00    +0.000 A 
ATOM      2  C   UNL     1       1.923   4.660  18.457  0.00  0.00    +0.000 A 
ATOM      3  C   UNL     1       2.568   3.527  17.938  0.00  0.00    +0.000 A 
ATOM      4  C   UNL     1       3.874   3.611  17.449  0.00  0.00    +0.000 A 
ATOM      5  C   UNL     1       4.532   4.838  17.478  0.00  0.00    +0.000 A 
ATOM      6  C   UNL     1       3.871   5.978  17.959  0.00  0.00    +0.000 A 
ENDROOT
BRANCH   1   9
ATOM      7  O   UNL     1       2.511   8.657  17.343  0.00  0.00    +0.000 OA
ATOM      8  C   UNL     1       2.021   8.365  18.431  0.00  0.00    +0.000 C 
ATOM      9  N   UNL     1       2.009   7.087  18.972  0.00  0.00    +0.000 N 
ATOM     10  H   UNL     1       1.526   7.006  19.859  0.00  0.00    +0.000 HD
BRANCH   8  11
ATOM     11  C   UNL     1       1.401   9.383  19.295  0.00  0.00    +0.000 A 
ATOM     12  C   UNL     1       0.884   9.220  20.568  0.00  0.00    +0.000 A 
ATOM     13  C   UNL     1       0.244  10.401  21.087  0.00  0.00    +0.000 A 
ATOM     14  C   UNL     1      -0.447  10.634  22.302  0.00  0.00    +0.000 A 
ATOM     15  C   UNL     1      -1.040  11.876  22.538  0.00  0.00    +0.000 A 
ATOM     16  F   UNL     1      -1.715  12.077  23.678  0.00  0.00    +0.000 F 
ATOM     17  C   UNL     1      -0.955  12.904  21.615  0.00  0.00    +0.000 A 
ATOM     18  C   UNL     1      -0.255  12.713  20.424  0.00  0.00    +0.000 A 
ATOM     19  C   UNL     1       0.332  11.456  20.175  0.00  0.00    +0.000 A 
ATOM     20  S   UNL     1       1.213  11.003  18.774  0.00  0.00    +0.000 S 
ENDBRANCH   8  11
ENDBRANCH   1   9
BRANCH   5  21
ATOM     21  S   UNL     1       6.144   5.014  16.750  0.00  0.00    +0.000 S 
ATOM     22  O   UNL     1       6.230   6.355  16.204  0.00  0.00    +0.000 OA
ATOM     23  O   UNL     1       7.135   4.547  17.695  0.00  0.00    +0.000 OA
BRANCH  21  24
ATOM     24  N   UNL     1       6.172   4.007  15.417  0.00  0.00    +0.000 N 
ATOM     25  C   UNL     1       6.673   4.366  14.170  0.00  0.00    +0.000 C 
ATOM     26  N   UNL     1       7.616   5.232  14.020  0.00  0.00    +0.000 NA
ATOM     27  C   UNL     1       7.849   5.329  12.572  0.00  0.00    +0.000 C 
ATOM     28  C   UNL     1       7.220   4.089  11.963  0.00  0.00    +0.000 C 
ATOM     29  C   UNL     1       6.112   3.746  12.933  0.00  0.00    +0.000 C 
ATOM     30  H   UNL     1       5.514   3.239  15.520  0.00  0.00    +0.000 HD
ENDBRANCH  21  24
ENDBRANCH   5  21
TORSDOF 4
ENDMDL
MODEL 7
REMARK VINA RESULT:      -8.9      2.137      2.552
REMARK  Name = 
REMARK  4 active torsions:
REMARK  status: ('A' for Active; 'I' for Inactive)
REMARK    1  A    between atoms: C_2  and  C_19
REMARK    2  A    between atoms: N_3  and  C_4
REMARK    3  A    between atoms: C_8  and  S_9
REMARK    4  A    between atoms: S_9  and  N_12
REMARK                            x       y       z     vdW  Elec       q    Type
REMARK                         _______ _______ _______ _____ _____    ______ ____
ROOT
ATOM      1  C   UNL     1       2.601   6.361  18.137  0.00  0.00    +0.000 A 
ATOM      2  C   UNL     1       1.907   5.155  18.209  0.00  0.00    +0.000 A 
ATOM      3  C   UNL     1       2.538   3.951  17.864  0.00  0.00    +0.000 A 
ATOM      4  C   UNL     1       3.874   3.936  17.459  0.00  0.00    +0.000 A 
ATOM      5  C   UNL     1       4.577   5.136  17.396  0.00  0.00    +0.000 A 
ATOM      6  C   UNL     1       3.933   6.344  17.701  0.00  0.00    +0.000 A 
ENDROOT
BRANCH   1   9
ATOM      7  O   UNL     1       1.839   7.568  20.762  0.00  0.00    +0.000 OA
ATOM      8  C   UNL     1       1.688   8.144  19.687  0.00  0.00    +0.000 C 
ATOM      9  N   UNL     1       2.057   7.621  18.456  0.00  0.00    +0.000 N 
ATOM     10  H   UNL     1       1.903   8.241  17.669  0.00  0.00    +0.000 HD
BRANCH   8  11
ATOM     11  C   UNL     1       1.062   9.473  19.607  0.00  0.00    +0.000 A 
ATOM     12  C   UNL     1       1.374  10.511  18.747  0.00  0.00    +0.000 A 
ATOM     13  C   UNL     1       0.641  11.722  19.015  0.00  0.00    +0.000 A 
ATOM     14  C   UNL     1       0.703  13.005  18.415  0.00  0.00    +0.000 A 
ATOM     15  C   UNL     1      -0.086  14.044  18.913  0.00  0.00    +0.000 A 
ATOM     16  F   UNL     1       0.001  15.260  18.358  0.00  0.00    +0.000 F 
ATOM     17  C   UNL     1      -0.949  13.849  19.977  0.00  0.00    +0.000 A 
ATOM     18  C   UNL     1      -1.054  12.590  20.567  0.00  0.00    +0.000 A 
ATOM     19  C   UNL     1      -0.248  11.541  20.076  0.00  0.00    +0.000 A 
ATOM     20  S   UNL     1      -0.203   9.931  20.666  0.00  0.00    +0.000 S 
ENDBRANCH   8  11
ENDBRANCH   1   9
BRANCH   5  21
ATOM     21  S   UNL     1       6.239   5.176  16.763  0.00  0.00    +0.000 S 
ATOM     22  O   UNL     1       6.443   6.480  16.162  0.00  0.00    +0.000 OA
ATOM     23  O   UNL     1       7.139   4.697  17.789  0.00  0.00    +0.000 OA
BRANCH  21  24
ATOM     24  N   UNL     1       6.281   4.104  15.482  0.00  0.00    +0.000 N 
ATOM     25  C   UNL     1       6.734   4.420  14.205  0.00  0.00    +0.000 C 
ATOM     26  N   UNL     1       7.632   5.319  13.987  0.00  0.00    +0.000 NA
ATOM     27  C   UNL     1       7.825   5.352  12.530  0.00  0.00    +0.000 C 
ATOM     28  C   UNL     1       7.240   4.054  12.001  0.00  0.00    +0.000 C 
ATOM     29  C   UNL     1       6.173   3.711  13.017  0.00  0.00    +0.000 C 
ATOM     30  H   UNL     1       5.662   3.313  15.641  0.00  0.00    +0.000 HD
ENDBRANCH  21  24
ENDBRANCH   5  21
TORSDOF 4
ENDMDL
MODEL 8
REMARK VINA RESULT:      -8.9      4.479      9.528
REMARK  Name = 
REMARK  4 active torsions:
REMARK  status: ('A' for Active; 'I' for Inactive)
REMARK    1  A    between atoms: C_2  and  C_19
REMARK    2  A    between atoms: N_3  and  C_4
REMARK    3  A    between atoms: C_8  and  S_9
REMARK    4  A    between atoms: S_9  and  N_12
REMARK                            x       y       z     vdW  Elec       q    Type
REMARK                         _______ _______ _______ _____ _____    ______ ____
ROOT
ATOM      1  C   UNL     1       1.126   8.895  20.448  0.00  0.00    +0.000 A 
ATOM      2  C   UNL     1       1.023   8.842  21.837  0.00  0.00    +0.000 A 
ATOM      3  C   UNL     1       0.220   9.765  22.525  0.00  0.00    +0.000 A 
ATOM      4  C   UNL     1      -0.501  10.740  21.831  0.00  0.00    +0.000 A 
ATOM      5  C   UNL     1      -0.411  10.790  20.442  0.00  0.00    +0.000 A 
ATOM      6  C   UNL     1       0.424   9.893  19.760  0.00  0.00    +0.000 A 
ENDROOT
BRANCH   1   9
ATOM      7  O   UNL     1       1.633   5.960  20.697  0.00  0.00    +0.000 OA
ATOM      8  C   UNL     1       2.144   6.661  19.826  0.00  0.00    +0.000 C 
ATOM      9  N   UNL     1       1.907   8.019  19.669  0.00  0.00    +0.000 N 
ATOM     10  H   UNL     1       2.374   8.441  18.874  0.00  0.00    +0.000 HD
BRANCH   8  11
ATOM     11  C   UNL     1       3.101   6.106  18.855  0.00  0.00    +0.000 A 
ATOM     12  C   UNL     1       3.757   6.768  17.832  0.00  0.00    +0.000 A 
ATOM     13  C   UNL     1       4.539   5.899  16.990  0.00  0.00    +0.000 A 
ATOM     14  C   UNL     1       5.301   6.163  15.824  0.00  0.00    +0.000 A 
ATOM     15  C   UNL     1       5.924   5.112  15.149  0.00  0.00    +0.000 A 
ATOM     16  F   UNL     1       6.618   5.368  14.032  0.00  0.00    +0.000 F 
ATOM     17  C   UNL     1       5.832   3.807  15.601  0.00  0.00    +0.000 A 
ATOM     18  C   UNL     1       5.115   3.522  16.763  0.00  0.00    +0.000 A 
ATOM     19  C   UNL     1       4.472   4.579  17.440  0.00  0.00    +0.000 A 
ATOM     20  S   UNL     1       3.526   4.447  18.865  0.00  0.00    +0.000 S 
ENDBRANCH   8  11
ENDBRANCH   1   9
BRANCH   5  21
ATOM     21  S   UNL     1      -1.210  12.093  19.533  0.00  0.00    +0.000 S 
ATOM     22  O   UNL     1      -2.598  12.128  19.953  0.00  0.00    +0.000 OA
ATOM     23  O   UNL     1      -0.394  13.285  19.614  0.00  0.00    +0.000 OA
BRANCH  21  24
ATOM     24  N   UNL     1      -1.258  11.595  17.939  0.00  0.00    +0.000 N 
ATOM     25  C   UNL     1      -2.420  11.251  17.257  0.00  0.00    +0.000 C 
ATOM     26  N   UNL     1      -3.569  11.762  17.537  0.00  0.00    +0.000 NA
ATOM     27  C   UNL     1      -4.524  11.144  16.605  0.00  0.00    +0.000 C 
ATOM     28  C   UNL     1      -3.690  10.552  15.483  0.00  0.00    +0.000 C 
ATOM     29  C   UNL     1      -2.368  10.248  16.152  0.00  0.00    +0.000 C 
ATOM     30  H   UNL     1      -0.347  11.271  17.626  0.00  0.00    +0.000 HD
ENDBRANCH  21  24
ENDBRANCH   5  21
TORSDOF 4
ENDMDL
MODEL 9
REMARK VINA RESULT:      -8.8      1.631      2.077
REMARK  Name = 
REMARK  4 active torsions:
REMARK  status: ('A' for Active; 'I' for Inactive)
REMARK    1  A    between atoms: C_2  and  C_19
REMARK    2  A    between atoms: N_3  and  C_4
REMARK    3  A    between atoms: C_8  and  S_9
REMARK    4  A    between atoms: S_9  and  N_12
REMARK                            x       y       z     vdW  Elec       q    Type
REMARK                         _______ _______ _______ _____ _____    ______ ____
ROOT
ATOM      1  C   UNL     1       3.225   5.748  18.130  0.00  0.00    +0.000 A 
ATOM      2  C   UNL     1       2.709   4.508  17.759  0.00  0.00    +0.000 A 
ATOM      3  C   UNL     1       3.548   3.523  17.217  0.00  0.00    +0.000 A 
ATOM      4  C   UNL     1       4.915   3.760  17.055  0.00  0.00    +0.000 A 
ATOM      5  C   UNL     1       5.439   4.993  17.435  0.00  0.00    +0.000 A 
ATOM      6  C   UNL     1       4.592   5.992  17.938  0.00  0.00    +0.000 A 
ENDROOT
BRANCH   1   9
ATOM      7  O   UNL     1       2.716   8.524  17.145  0.00  0.00    +0.000 OA
ATOM      8  C   UNL     1       2.270   8.093  18.206  0.00  0.00    +0.000 C 
ATOM      9  N   UNL     1       2.466   6.802  18.676  0.00  0.00    +0.000 N 
ATOM     10  H   UNL     1       1.994   6.592  19.548  0.00  0.00    +0.000 HD
BRANCH   8  11
ATOM     11  C   UNL     1       1.480   8.943  19.110  0.00  0.00    +0.000 A 
ATOM     12  C   UNL     1       0.973  10.208  18.866  0.00  0.00    +0.000 A 
ATOM     13  C   UNL     1       0.343  10.808  20.013  0.00  0.00    +0.000 A 
ATOM     14  C   UNL     1      -0.240  12.087  20.198  0.00  0.00    +0.000 A 
ATOM     15  C   UNL     1      -0.736  12.451  21.452  0.00  0.00    +0.000 A 
ATOM     16  F   UNL     1      -1.258  13.672  21.623  0.00  0.00    +0.000 F 
ATOM     17  C   UNL     1      -0.689  11.581  22.527  0.00  0.00    +0.000 A 
ATOM     18  C   UNL     1      -0.150  10.305  22.366  0.00  0.00    +0.000 A 
ATOM     19  C   UNL     1       0.365   9.939  21.106  0.00  0.00    +0.000 A 
ATOM     20  S   UNL     1       1.088   8.437  20.699  0.00  0.00    +0.000 S 
ENDBRANCH   8  11
ENDBRANCH   1   9
BRANCH   5  21
ATOM     21  S   UNL     1       7.147   5.380  17.127  0.00  0.00    +0.000 S 
ATOM     22  O   UNL     1       7.469   6.566  17.899  0.00  0.00    +0.000 OA
ATOM     23  O   UNL     1       7.932   4.175  17.280  0.00  0.00    +0.000 OA
BRANCH  21  24
ATOM     24  N   UNL     1       7.240   5.870  15.533  0.00  0.00    +0.000 N 
ATOM     25  C   UNL     1       7.067   5.028  14.439  0.00  0.00    +0.000 C 
ATOM     26  N   UNL     1       6.318   3.980  14.479  0.00  0.00    +0.000 NA
ATOM     27  C   UNL     1       6.406   3.371  13.143  0.00  0.00    +0.000 C 
ATOM     28  C   UNL     1       6.949   4.451  12.225  0.00  0.00    +0.000 C 
ATOM     29  C   UNL     1       7.767   5.320  13.154  0.00  0.00    +0.000 C 
ATOM     30  H   UNL     1       7.737   6.753  15.445  0.00  0.00    +0.000 HD
ENDBRANCH  21  24
ENDBRANCH   5  21
TORSDOF 4
ENDMDL
