MODEL 1
REMARK VINA RESULT:      -7.8      0.000      0.000
REMARK  Name = 
REMARK  7 active torsions:
REMARK  status: ('A' for Active; 'I' for Inactive)
REMARK    1  A    between atoms: C_1  and  N_2
REMARK    2  A    between atoms: C_3  and  C_4
REMARK    3  A    between atoms: C_10  and  C_11
REMARK    4  A    between atoms: C_11  and  N_12
REMARK    5  A    between atoms: C_13  and  C_15
REMARK    6  A    between atoms: C_15  and  C_16
REMARK    7  A    between atoms: C_16  and  C_17
REMARK                            x       y       z     vdW  Elec       q    Type
REMARK                         _______ _______ _______ _____ _____    ______ ____
ROOT
ATOM      1  C   UNL     1       3.203   7.767  17.427  0.00  0.00    +0.000 C 
ENDROOT
BRANCH   1   8
ATOM      2  C   UNL     1      -0.303   9.311  22.908  0.00  0.00    +0.000 C 
ATOM      3  N   UNL     1      -0.034   9.736  21.560  0.00  0.00    +0.000 N 
ATOM      4  C   UNL     1      -0.458  10.877  20.913  0.00  0.00    +0.000 A 
ATOM      5  N   UNL     1       0.066  10.955  19.710  0.00  0.00    +0.000 NA
ATOM      6  C   UNL     1       0.820   9.824  19.553  0.00  0.00    +0.000 A 
ATOM      7  C   UNL     1       1.593   9.407  18.464  0.00  0.00    +0.000 A 
ATOM      8  C   UNL     1       2.312   8.202  18.554  0.00  0.00    +0.000 A 
ATOM      9  C   UNL     1       2.205   7.406  19.706  0.00  0.00    +0.000 A 
ATOM     10  C   UNL     1       1.433   7.803  20.800  0.00  0.00    +0.000 A 
ATOM     11  C   UNL     1       0.763   9.028  20.689  0.00  0.00    +0.000 A 
BRANCH   4  12
ATOM     12  C   UNL     1      -1.418  11.933  21.458  0.00  0.00    +0.000 C 
ATOM     13  C   UNL     1      -1.154  13.379  21.072  0.00  0.00    +0.000 C 
ATOM     14  C   UNL     1      -0.886  12.939  22.469  0.00  0.00    +0.000 C 
ENDBRANCH   4  12
ENDBRANCH   1   8
BRANCH   1  15
ATOM     15  N   UNL     1       4.161   6.783  17.857  0.00  0.00    +0.000 N 
ATOM     16  C   UNL     1       4.875   6.095  16.906  0.00  0.00    +0.000 C 
ATOM     17  O   UNL     1       4.907   6.383  15.722  0.00  0.00    +0.000 OA
ATOM     18  H   UNL     1       4.067   6.388  18.782  0.00  0.00    +0.000 HD
BRANCH  16  19
ATOM     19  C   UNL     1       5.605   4.886  17.410  0.00  0.00    +0.000 C 
ATOM     20  C   UNL     1       6.720   5.027  18.449  0.00  0.00    +0.000 C 
ATOM     21  C   UNL     1       7.085   4.859  17.011  0.00  0.00    +0.000 C 
BRANCH  19  22
ATOM     22  C   UNL     1       4.785   3.616  17.571  0.00  0.00    +0.000 C 
BRANCH  22  23
ATOM     23  C   UNL     1       3.472   3.724  18.315  0.00  0.00    +0.000 A 
ATOM     24  C   UNL     1       2.221   3.645  17.695  0.00  0.00    +0.000 A 
ATOM     25  C   UNL     1       1.049   3.599  18.460  0.00  0.00    +0.000 A 
ATOM     26  C   UNL     1       1.115   3.613  19.853  0.00  0.00    +0.000 A 
ATOM     27  C   UNL     1       2.349   3.705  20.485  0.00  0.00    +0.000 A 
ATOM     28  C   UNL     1       3.518   3.765  19.721  0.00  0.00    +0.000 A 
ENDBRANCH  22  23
ENDBRANCH  19  22
ENDBRANCH  16  19
ENDBRANCH   1  15
TORSDOF 6
ENDMDL
MODEL 2
REMARK VINA RESULT:      -7.8      0.370      1.028
REMARK  Name = 
REMARK  7 active torsions:
REMARK  status: ('A' for Active; 'I' for Inactive)
REMARK    1  A    between atoms: C_1  and  N_2
REMARK    2  A    between atoms: C_3  and  C_4
REMARK    3  A    between atoms: C_10  and  C_11
REMARK    4  A    between atoms: C_11  and  N_12
REMARK    5  A    between atoms: C_13  and  C_15
REMARK    6  A    between atoms: C_15  and  C_16
REMARK    7  A    between atoms: C_16  and  C_17
REMARK                            x       y       z     vdW  Elec       q    Type
REMARK                         _______ _______ _______ _____ _____    ______ ____
ROOT
ATOM      1  C   UNL     1       3.226   7.822  17.235  0.00  0.00    +0.000 C 
ENDROOT
BRANCH   1   8
ATOM      2  C   UNL     1      -0.216   9.362  22.757  0.00  0.00    +0.000 C 
ATOM      3  N   UNL     1       0.004   9.762  21.393  0.00  0.00    +0.000 N 
ATOM      4  C   UNL     1      -0.483  10.867  20.727  0.00  0.00    +0.000 A 
ATOM      5  N   UNL     1       0.010  10.935  19.510  0.00  0.00    +0.000 NA
ATOM      6  C   UNL     1       0.807   9.833  19.364  0.00  0.00    +0.000 A 
ATOM      7  C   UNL     1       1.572   9.421  18.268  0.00  0.00    +0.000 A 
ATOM      8  C   UNL     1       2.343   8.249  18.371  0.00  0.00    +0.000 A 
ATOM      9  C   UNL     1       2.297   7.480  19.545  0.00  0.00    +0.000 A 
ATOM     10  C   UNL     1       1.534   7.873  20.646  0.00  0.00    +0.000 A 
ATOM     11  C   UNL     1       0.811   9.065  20.521  0.00  0.00    +0.000 A 
BRANCH   4  12
ATOM     12  C   UNL     1      -1.474  11.895  21.268  0.00  0.00    +0.000 C 
ATOM     13  C   UNL     1      -2.105  12.848  20.266  0.00  0.00    +0.000 C 
ATOM     14  C   UNL     1      -1.086  13.367  21.220  0.00  0.00    +0.000 C 
ENDBRANCH   4  12
ENDBRANCH   1   8
BRANCH   1  15
ATOM     15  N   UNL     1       4.142   6.786  17.633  0.00  0.00    +0.000 N 
ATOM     16  C   UNL     1       4.960   6.225  16.683  0.00  0.00    +0.000 C 
ATOM     17  O   UNL     1       5.116   6.665  15.557  0.00  0.00    +0.000 OA
ATOM     18  H   UNL     1       3.953   6.274  18.483  0.00  0.00    +0.000 HD
BRANCH  16  19
ATOM     19  C   UNL     1       5.643   4.957  17.101  0.00  0.00    +0.000 C 
ATOM     20  C   UNL     1       6.704   4.972  18.205  0.00  0.00    +0.000 C 
ATOM     21  C   UNL     1       7.142   4.938  16.778  0.00  0.00    +0.000 C 
BRANCH  19  22
ATOM     22  C   UNL     1       4.796   3.694  17.092  0.00  0.00    +0.000 C 
BRANCH  22  23
ATOM     23  C   UNL     1       3.628   3.633  18.052  0.00  0.00    +0.000 A 
ATOM     24  C   UNL     1       3.766   3.663  19.443  0.00  0.00    +0.000 A 
ATOM     25  C   UNL     1       2.639   3.758  20.268  0.00  0.00    +0.000 A 
ATOM     26  C   UNL     1       1.362   3.840  19.712  0.00  0.00    +0.000 A 
ATOM     27  C   UNL     1       1.206   3.797  18.332  0.00  0.00    +0.000 A 
ATOM     28  C   UNL     1       2.331   3.690  17.509  0.00  0.00    +0.000 A 
ENDBRANCH  22  23
ENDBRANCH  19  22
ENDBRANCH  16  19
ENDBRANCH   1  15
TORSDOF 6
ENDMDL
MODEL 3
REMARK VINA RESULT:      -7.7      0.805      1.263
REMARK  Name = 
REMARK  7 active torsions:
REMARK  status: ('A' for Active; 'I' for Inactive)
REMARK    1  A    between atoms: C_1  and  N_2
REMARK    2  A    between atoms: C_3  and  C_4
REMARK    3  A    between atoms: C_10  and  C_11
REMARK    4  A    between atoms: C_11  and  N_12
REMARK    5  A    between atoms: C_13  and  C_15
REMARK    6  A    between atoms: C_15  and  C_16
REMARK    7  A    between atoms: C_16  and  C_17
REMARK                            x       y       z     vdW  Elec       q    Type
REMARK                         _______ _______ _______ _____ _____    ______ ____
ROOT
ATOM      1  C   UNL     1       2.945   7.869  17.537  0.00  0.00    +0.000 C 
ENDROOT
BRANCH   1   8
ATOM      2  C   UNL     1      -0.261   9.537  23.164  0.00  0.00    +0.000 C 
ATOM      3  N   UNL     1      -0.091   9.912  21.786  0.00  0.00    +0.000 N 
ATOM      4  C   UNL     1      -0.592  11.012  21.122  0.00  0.00    +0.000 A 
ATOM      5  N   UNL     1      -0.147  11.054  19.886  0.00  0.00    +0.000 NA
ATOM      6  C   UNL     1       0.633   9.941  19.726  0.00  0.00    +0.000 A 
ATOM      7  C   UNL     1       1.350   9.503  18.608  0.00  0.00    +0.000 A 
ATOM      8  C   UNL     1       2.112   8.325  18.701  0.00  0.00    +0.000 A 
ATOM      9  C   UNL     1       2.104   7.575  19.888  0.00  0.00    +0.000 A 
ATOM     10  C   UNL     1       1.389   7.995  21.011  0.00  0.00    +0.000 A 
ATOM     11  C   UNL     1       0.674   9.193  20.895  0.00  0.00    +0.000 A 
BRANCH   4  12
ATOM     12  C   UNL     1      -1.550  12.059  21.684  0.00  0.00    +0.000 C 
ATOM     13  C   UNL     1      -1.381  13.490  21.197  0.00  0.00    +0.000 C 
ATOM     14  C   UNL     1      -0.983  13.143  22.590  0.00  0.00    +0.000 C 
ENDBRANCH   4  12
ENDBRANCH   1   8
BRANCH   1  15
ATOM     15  N   UNL     1       3.370   6.503  17.691  0.00  0.00    +0.000 N 
ATOM     16  C   UNL     1       4.709   6.212  17.594  0.00  0.00    +0.000 C 
ATOM     17  O   UNL     1       5.599   7.045  17.581  0.00  0.00    +0.000 OA
ATOM     18  H   UNL     1       2.695   5.767  17.540  0.00  0.00    +0.000 HD
BRANCH  16  19
ATOM     19  C   UNL     1       5.034   4.756  17.446  0.00  0.00    +0.000 C 
ATOM     20  C   UNL     1       6.170   4.301  16.525  0.00  0.00    +0.000 C 
ATOM     21  C   UNL     1       4.761   4.211  16.039  0.00  0.00    +0.000 C 
BRANCH  19  22
ATOM     22  C   UNL     1       4.884   3.897  18.692  0.00  0.00    +0.000 C 
BRANCH  22  23
ATOM     23  C   UNL     1       3.480   3.630  19.189  0.00  0.00    +0.000 A 
ATOM     24  C   UNL     1       2.965   4.161  20.375  0.00  0.00    +0.000 A 
ATOM     25  C   UNL     1       1.612   4.000  20.698  0.00  0.00    +0.000 A 
ATOM     26  C   UNL     1       0.755   3.322  19.830  0.00  0.00    +0.000 A 
ATOM     27  C   UNL     1       1.254   2.777  18.654  0.00  0.00    +0.000 A 
ATOM     28  C   UNL     1       2.608   2.926  18.339  0.00  0.00    +0.000 A 
ENDBRANCH  22  23
ENDBRANCH  19  22
ENDBRANCH  16  19
ENDBRANCH   1  15
TORSDOF 6
ENDMDL
MODEL 4
REMARK VINA RESULT:      -7.6      0.891      1.121
REMARK  Name = 
REMARK  7 active torsions:
REMARK  status: ('A' for Active; 'I' for Inactive)
REMARK    1  A    between atoms: C_1  and  N_2
REMARK    2  A    between atoms: C_3  and  C_4
REMARK    3  A    between atoms: C_10  and  C_11
REMARK    4  A    between atoms: C_11  and  N_12
REMARK    5  A    between atoms: C_13  and  C_15
REMARK    6  A    between atoms: C_15  and  C_16
REMARK    7  A    between atoms: C_16  and  C_17
REMARK                            x       y       z     vdW  Elec       q    Type
REMARK                         _______ _______ _______ _____ _____    ______ ____
ROOT
ATOM      1  C   UNL     1       2.800   7.872  17.547  0.00  0.00    +0.000 C 
ENDROOT
BRANCH   1   8
ATOM      2  C   UNL     1      -0.011   9.525  23.386  0.00  0.00    +0.000 C 
ATOM      3  N   UNL     1       0.173   9.976  22.032  0.00  0.00    +0.000 N 
ATOM      4  C   UNL     1      -0.193  11.178  21.465  0.00  0.00    +0.000 A 
ATOM      5  N   UNL     1       0.223  11.253  20.220  0.00  0.00    +0.000 NA
ATOM      6  C   UNL     1       0.842  10.062  19.956  0.00  0.00    +0.000 A 
ATOM      7  C   UNL     1       1.465   9.617  18.785  0.00  0.00    +0.000 A 
ATOM      8  C   UNL     1       2.065   8.346  18.768  0.00  0.00    +0.000 A 
ATOM      9  C   UNL     1       1.987   7.518  19.899  0.00  0.00    +0.000 A 
ATOM     10  C   UNL     1       1.363   7.943  21.074  0.00  0.00    +0.000 A 
ATOM     11  C   UNL     1       0.812   9.230  21.067  0.00  0.00    +0.000 A 
BRANCH   4  12
ATOM     12  C   UNL     1      -0.987  12.298  22.133  0.00  0.00    +0.000 C 
ATOM     13  C   UNL     1      -2.232  11.900  22.910  0.00  0.00    +0.000 C 
ATOM     14  C   UNL     1      -2.382  12.606  21.607  0.00  0.00    +0.000 C 
ENDBRANCH   4  12
ENDBRANCH   1   8
BRANCH   1  15
ATOM     15  N   UNL     1       3.291   6.529  17.710  0.00  0.00    +0.000 N 
ATOM     16  C   UNL     1       4.626   6.283  17.503  0.00  0.00    +0.000 C 
ATOM     17  O   UNL     1       5.478   7.147  17.381  0.00  0.00    +0.000 OA
ATOM     18  H   UNL     1       2.635   5.764  17.646  0.00  0.00    +0.000 HD
BRANCH  16  19
ATOM     19  C   UNL     1       4.994   4.836  17.378  0.00  0.00    +0.000 C 
ATOM     20  C   UNL     1       6.226   4.412  16.573  0.00  0.00    +0.000 C 
ATOM     21  C   UNL     1       4.875   4.298  15.947  0.00  0.00    +0.000 C 
BRANCH  19  22
ATOM     22  C   UNL     1       4.737   3.962  18.596  0.00  0.00    +0.000 C 
BRANCH  22  23
ATOM     23  C   UNL     1       3.295   3.729  18.994  0.00  0.00    +0.000 A 
ATOM     24  C   UNL     1       2.372   3.047  18.196  0.00  0.00    +0.000 A 
ATOM     25  C   UNL     1       1.100   2.734  18.690  0.00  0.00    +0.000 A 
ATOM     26  C   UNL     1       0.742   3.084  19.992  0.00  0.00    +0.000 A 
ATOM     27  C   UNL     1       1.643   3.776  20.793  0.00  0.00    +0.000 A 
ATOM     28  C   UNL     1       2.908   4.099  20.295  0.00  0.00    +0.000 A 
ENDBRANCH  22  23
ENDBRANCH  19  22
ENDBRANCH  16  19
ENDBRANCH   1  15
TORSDOF 6
ENDMDL
MODEL 5
REMARK VINA RESULT:      -7.6      2.209      4.057
REMARK  Name = 
REMARK  7 active torsions:
REMARK  status: ('A' for Active; 'I' for Inactive)
REMARK    1  A    between atoms: C_1  and  N_2
REMARK    2  A    between atoms: C_3  and  C_4
REMARK    3  A    between atoms: C_10  and  C_11
REMARK    4  A    between atoms: C_11  and  N_12
REMARK    5  A    between atoms: C_13  and  C_15
REMARK    6  A    between atoms: C_15  and  C_16
REMARK    7  A    between atoms: C_16  and  C_17
REMARK                            x       y       z     vdW  Elec       q    Type
REMARK                         _______ _______ _______ _____ _____    ______ ____
ROOT
ATOM      1  C   UNL     1       2.982   6.150  18.929  0.00  0.00    +0.000 C 
ENDROOT
BRANCH   1   8
ATOM      2  C   UNL     1      -0.120  12.072  18.765  0.00  0.00    +0.000 C 
ATOM      3  N   UNL     1       0.327  11.034  19.656  0.00  0.00    +0.000 N 
ATOM      4  C   UNL     1       0.119  10.913  21.013  0.00  0.00    +0.000 A 
ATOM      5  N   UNL     1       0.612   9.780  21.462  0.00  0.00    +0.000 NA
ATOM      6  C   UNL     1       1.185   9.164  20.384  0.00  0.00    +0.000 A 
ATOM      7  C   UNL     1       1.846   7.934  20.302  0.00  0.00    +0.000 A 
ATOM      8  C   UNL     1       2.330   7.496  19.056  0.00  0.00    +0.000 A 
ATOM      9  C   UNL     1       2.195   8.315  17.924  0.00  0.00    +0.000 A 
ATOM     10  C   UNL     1       1.544   9.549  17.989  0.00  0.00    +0.000 A 
ATOM     11  C   UNL     1       1.041   9.933  19.237  0.00  0.00    +0.000 A 
BRANCH   4  12
ATOM     12  C   UNL     1      -0.565  11.927  21.926  0.00  0.00    +0.000 C 
ATOM     13  C   UNL     1      -1.421  11.380  23.057  0.00  0.00    +0.000 C 
ATOM     14  C   UNL     1      -2.084  12.024  21.889  0.00  0.00    +0.000 C 
ENDBRANCH   4  12
ENDBRANCH   1   8
BRANCH   1  15
ATOM     15  N   UNL     1       4.013   6.151  17.924  0.00  0.00    +0.000 N 
ATOM     16  C   UNL     1       4.980   5.177  17.967  0.00  0.00    +0.000 C 
ATOM     17  O   UNL     1       4.933   4.187  18.676  0.00  0.00    +0.000 OA
ATOM     18  H   UNL     1       4.202   7.010  17.426  0.00  0.00    +0.000 HD
BRANCH  16  19
ATOM     19  C   UNL     1       6.175   5.429  17.098  0.00  0.00    +0.000 C 
ATOM     20  C   UNL     1       7.391   4.501  17.158  0.00  0.00    +0.000 C 
ATOM     21  C   UNL     1       7.436   5.802  17.889  0.00  0.00    +0.000 C 
BRANCH  19  22
ATOM     22  C   UNL     1       5.900   5.977  15.707  0.00  0.00    +0.000 C 
BRANCH  22  23
ATOM     23  C   UNL     1       6.226   5.084  14.529  0.00  0.00    +0.000 A 
ATOM     24  C   UNL     1       5.368   4.087  14.054  0.00  0.00    +0.000 A 
ATOM     25  C   UNL     1       5.662   3.402  12.869  0.00  0.00    +0.000 A 
ATOM     26  C   UNL     1       6.808   3.716  12.138  0.00  0.00    +0.000 A 
ATOM     27  C   UNL     1       7.678   4.694  12.604  0.00  0.00    +0.000 A 
ATOM     28  C   UNL     1       7.391   5.369  13.794  0.00  0.00    +0.000 A 
ENDBRANCH  22  23
ENDBRANCH  19  22
ENDBRANCH  16  19
ENDBRANCH   1  15
TORSDOF 6
ENDMDL
MODEL 6
REMARK VINA RESULT:      -7.6      0.882      1.216
REMARK  Name = 
REMARK  7 active torsions:
REMARK  status: ('A' for Active; 'I' for Inactive)
REMARK    1  A    between atoms: C_1  and  N_2
REMARK    2  A    between atoms: C_3  and  C_4
REMARK    3  A    between atoms: C_10  and  C_11
REMARK    4  A    between atoms: C_11  and  N_12
REMARK    5  A    between atoms: C_13  and  C_15
REMARK    6  A    between atoms: C_15  and  C_16
REMARK    7  A    between atoms: C_16  and  C_17
REMARK                            x       y       z     vdW  Elec       q    Type
REMARK                         _______ _______ _______ _____ _____    ______ ____
ROOT
ATOM      1  C   UNL     1       2.886   8.105  17.795  0.00  0.00    +0.000 C 
ENDROOT
BRANCH   1   8
ATOM      2  C   UNL     1      -0.757  10.046  23.056  0.00  0.00    +0.000 C 
ATOM      3  N   UNL     1      -0.504  10.328  21.668  0.00  0.00    +0.000 N 
ATOM      4  C   UNL     1      -0.995  11.356  20.893  0.00  0.00    +0.000 A 
ATOM      5  N   UNL     1      -0.467  11.328  19.689  0.00  0.00    +0.000 NA
ATOM      6  C   UNL     1       0.359  10.237  19.665  0.00  0.00    +0.000 A 
ATOM      7  C   UNL     1       1.166   9.748  18.633  0.00  0.00    +0.000 A 
ATOM      8  C   UNL     1       1.960   8.610  18.863  0.00  0.00    +0.000 A 
ATOM      9  C   UNL     1       1.895   7.948  20.099  0.00  0.00    +0.000 A 
ATOM     10  C   UNL     1       1.090   8.419  21.139  0.00  0.00    +0.000 A 
ATOM     11  C   UNL     1       0.344   9.576  20.886  0.00  0.00    +0.000 A 
BRANCH   4  12
ATOM     12  C   UNL     1      -2.025  12.403  21.311  0.00  0.00    +0.000 C 
ATOM     13  C   UNL     1      -1.933  13.771  20.653  0.00  0.00    +0.000 C 
ATOM     14  C   UNL     1      -1.541  13.624  22.082  0.00  0.00    +0.000 C 
ENDBRANCH   4  12
ENDBRANCH   1   8
BRANCH   1  15
ATOM     15  N   UNL     1       3.567   6.906  18.205  0.00  0.00    +0.000 N 
ATOM     16  C   UNL     1       4.301   6.210  17.275  0.00  0.00    +0.000 C 
ATOM     17  O   UNL     1       4.586   6.628  16.166  0.00  0.00    +0.000 OA
ATOM     18  H   UNL     1       3.247   6.428  19.036  0.00  0.00    +0.000 HD
BRANCH  16  19
ATOM     19  C   UNL     1       4.707   4.829  17.690  0.00  0.00    +0.000 C 
ATOM     20  C   UNL     1       5.710   4.621  18.829  0.00  0.00    +0.000 C 
ATOM     21  C   UNL     1       6.185   4.521  17.417  0.00  0.00    +0.000 C 
BRANCH  19  22
ATOM     22  C   UNL     1       3.631   3.756  17.628  0.00  0.00    +0.000 C 
BRANCH  22  23
ATOM     23  C   UNL     1       2.826   3.504  18.884  0.00  0.00    +0.000 A 
ATOM     24  C   UNL     1       3.191   2.578  19.866  0.00  0.00    +0.000 A 
ATOM     25  C   UNL     1       2.485   2.505  21.073  0.00  0.00    +0.000 A 
ATOM     26  C   UNL     1       1.417   3.368  21.319  0.00  0.00    +0.000 A 
ATOM     27  C   UNL     1       1.033   4.284  20.348  0.00  0.00    +0.000 A 
ATOM     28  C   UNL     1       1.729   4.348  19.138  0.00  0.00    +0.000 A 
ENDBRANCH  22  23
ENDBRANCH  19  22
ENDBRANCH  16  19
ENDBRANCH   1  15
TORSDOF 6
ENDMDL
MODEL 7
REMARK VINA RESULT:      -7.5      2.227      3.907
REMARK  Name = 
REMARK  7 active torsions:
REMARK  status: ('A' for Active; 'I' for Inactive)
REMARK    1  A    between atoms: C_1  and  N_2
REMARK    2  A    between atoms: C_3  and  C_4
REMARK    3  A    between atoms: C_10  and  C_11
REMARK    4  A    between atoms: C_11  and  N_12
REMARK    5  A    between atoms: C_13  and  C_15
REMARK    6  A    between atoms: C_15  and  C_16
REMARK    7  A    between atoms: C_16  and  C_17
REMARK                            x       y       z     vdW  Elec       q    Type
REMARK                         _______ _______ _______ _____ _____    ______ ____
ROOT
ATOM      1  C   UNL     1       3.154   5.820  17.831  0.00  0.00    +0.000 C 
ENDROOT
BRANCH   1   8
ATOM      2  C   UNL     1       0.356  10.357  21.869  0.00  0.00    +0.000 C 
ATOM      3  N   UNL     1       0.712  10.105  20.498  0.00  0.00    +0.000 N 
ATOM      4  C   UNL     1       0.628  10.953  19.414  0.00  0.00    +0.000 A 
ATOM      5  N   UNL     1       1.130  10.387  18.338  0.00  0.00    +0.000 NA
ATOM      6  C   UNL     1       1.517   9.131  18.718  0.00  0.00    +0.000 A 
ATOM      7  C   UNL     1       2.114   8.113  17.967  0.00  0.00    +0.000 A 
ATOM      8  C   UNL     1       2.450   6.902  18.597  0.00  0.00    +0.000 A 
ATOM      9  C   UNL     1       2.137   6.706  19.952  0.00  0.00    +0.000 A 
ATOM     10  C   UNL     1       1.535   7.709  20.715  0.00  0.00    +0.000 A 
ATOM     11  C   UNL     1       1.251   8.915  20.063  0.00  0.00    +0.000 A 
BRANCH   4  12
ATOM     12  C   UNL     1       0.030  12.357  19.397  0.00  0.00    +0.000 C 
ATOM     13  C   UNL     1       0.656  13.369  18.452  0.00  0.00    +0.000 C 
ATOM     14  C   UNL     1       0.878  13.509  19.918  0.00  0.00    +0.000 C 
ENDBRANCH   4  12
ENDBRANCH   1   8
BRANCH   1  15
ATOM     15  N   UNL     1       4.581   5.886  18.006  0.00  0.00    +0.000 N 
ATOM     16  C   UNL     1       5.356   6.323  16.960  0.00  0.00    +0.000 C 
ATOM     17  O   UNL     1       4.922   6.849  15.950  0.00  0.00    +0.000 OA
ATOM     18  H   UNL     1       5.005   5.325  18.731  0.00  0.00    +0.000 HD
BRANCH  16  19
ATOM     19  C   UNL     1       6.825   6.064  17.106  0.00  0.00    +0.000 C 
ATOM     20  C   UNL     1       7.541   6.360  18.427  0.00  0.00    +0.000 C 
ATOM     21  C   UNL     1       7.652   7.340  17.306  0.00  0.00    +0.000 C 
BRANCH  19  22
ATOM     22  C   UNL     1       7.376   4.848  16.378  0.00  0.00    +0.000 C 
BRANCH  22  23
ATOM     23  C   UNL     1       7.060   4.716  14.904  0.00  0.00    +0.000 A 
ATOM     24  C   UNL     1       7.813   5.320  13.893  0.00  0.00    +0.000 A 
ATOM     25  C   UNL     1       7.558   5.032  12.547  0.00  0.00    +0.000 A 
ATOM     26  C   UNL     1       6.558   4.125  12.196  0.00  0.00    +0.000 A 
ATOM     27  C   UNL     1       5.790   3.526  13.188  0.00  0.00    +0.000 A 
ATOM     28  C   UNL     1       6.037   3.824  14.531  0.00  0.00    +0.000 A 
ENDBRANCH  22  23
ENDBRANCH  19  22
ENDBRANCH  16  19
ENDBRANCH   1  15
TORSDOF 6
ENDMDL
MODEL 8
REMARK VINA RESULT:      -7.5      0.867      1.046
REMARK  Name = 
REMARK  7 active torsions:
REMARK  status: ('A' for Active; 'I' for Inactive)
REMARK    1  A    between atoms: C_1  and  N_2
REMARK    2  A    between atoms: C_3  and  C_4
REMARK    3  A    between atoms: C_10  and  C_11
REMARK    4  A    between atoms: C_11  and  N_12
REMARK    5  A    between atoms: C_13  and  C_15
REMARK    6  A    between atoms: C_15  and  C_16
REMARK    7  A    between atoms: C_16  and  C_17
REMARK                            x       y       z     vdW  Elec       q    Type
REMARK                         _______ _______ _______ _____ _____    ______ ____
ROOT
ATOM      1  C   UNL     1       3.100   7.513  17.552  0.00  0.00    +0.000 C 
ENDROOT
BRANCH   1   8
ATOM      2  C   UNL     1      -0.313  10.181  22.647  0.00  0.00    +0.000 C 
ATOM      3  N   UNL     1      -0.001  10.362  21.254  0.00  0.00    +0.000 N 
ATOM      4  C   UNL     1      -0.329  11.414  20.425  0.00  0.00    +0.000 A 
ATOM      5  N   UNL     1       0.209  11.258  19.236  0.00  0.00    +0.000 NA
ATOM      6  C   UNL     1       0.872  10.062  19.276  0.00  0.00    +0.000 A 
ATOM      7  C   UNL     1       1.618   9.418  18.283  0.00  0.00    +0.000 A 
ATOM      8  C   UNL     1       2.238   8.191  18.577  0.00  0.00    +0.000 A 
ATOM      9  C   UNL     1       2.060   7.600  19.839  0.00  0.00    +0.000 A 
ATOM     10  C   UNL     1       1.314   8.226  20.840  0.00  0.00    +0.000 A 
ATOM     11  C   UNL     1       0.744   9.465  20.522  0.00  0.00    +0.000 A 
BRANCH   4  12
ATOM     12  C   UNL     1      -1.206  12.614  20.776  0.00  0.00    +0.000 C 
ATOM     13  C   UNL     1      -2.507  12.334  21.511  0.00  0.00    +0.000 C 
ATOM     14  C   UNL     1      -2.553  12.751  20.082  0.00  0.00    +0.000 C 
ENDBRANCH   4  12
ENDBRANCH   1   8
BRANCH   1  15
ATOM     15  N   UNL     1       4.180   6.785  18.163  0.00  0.00    +0.000 N 
ATOM     16  C   UNL     1       4.596   5.610  17.586  0.00  0.00    +0.000 C 
ATOM     17  O   UNL     1       4.255   5.223  16.481  0.00  0.00    +0.000 OA
ATOM     18  H   UNL     1       4.387   6.954  19.137  0.00  0.00    +0.000 HD
BRANCH  16  19
ATOM     19  C   UNL     1       5.490   4.763  18.441  0.00  0.00    +0.000 C 
ATOM     20  C   UNL     1       6.556   5.408  19.330  0.00  0.00    +0.000 C 
ATOM     21  C   UNL     1       6.964   4.816  18.021  0.00  0.00    +0.000 C 
BRANCH  19  22
ATOM     22  C   UNL     1       4.866   3.517  19.050  0.00  0.00    +0.000 C 
BRANCH  22  23
ATOM     23  C   UNL     1       3.371   3.532  19.287  0.00  0.00    +0.000 A 
ATOM     24  C   UNL     1       2.455   2.828  18.500  0.00  0.00    +0.000 A 
ATOM     25  C   UNL     1       1.105   2.761  18.867  0.00  0.00    +0.000 A 
ATOM     26  C   UNL     1       0.659   3.383  20.033  0.00  0.00    +0.000 A 
ATOM     27  C   UNL     1       1.554   4.099  20.819  0.00  0.00    +0.000 A 
ATOM     28  C   UNL     1       2.899   4.176  20.446  0.00  0.00    +0.000 A 
ENDBRANCH  22  23
ENDBRANCH  19  22
ENDBRANCH  16  19
ENDBRANCH   1  15
TORSDOF 6
ENDMDL
MODEL 9
REMARK VINA RESULT:      -7.4      1.080      1.302
REMARK  Name = 
REMARK  7 active torsions:
REMARK  status: ('A' for Active; 'I' for Inactive)
REMARK    1  A    between atoms: C_1  and  N_2
REMARK    2  A    between atoms: C_3  and  C_4
REMARK    3  A    between atoms: C_10  and  C_11
REMARK    4  A    between atoms: C_11  and  N_12
REMARK    5  A    between atoms: C_13  and  C_15
REMARK    6  A    between atoms: C_15  and  C_16
REMARK    7  A    between atoms: C_16  and  C_17
REMARK                            x       y       z     vdW  Elec       q    Type
REMARK                         _______ _______ _______ _____ _____    ______ ____
ROOT
ATOM      1  C   UNL     1       3.454   7.873  17.573  0.00  0.00    +0.000 C 
ENDROOT
BRANCH   1   8
ATOM      2  C   UNL     1      -0.546   9.315  22.735  0.00  0.00    +0.000 C 
ATOM      3  N   UNL     1      -0.187   9.739  21.408  0.00  0.00    +0.000 N 
ATOM      4  C   UNL     1      -0.604  10.855  20.715  0.00  0.00    +0.000 A 
ATOM      5  N   UNL     1       0.012  10.945  19.557  0.00  0.00    +0.000 NA
ATOM      6  C   UNL     1       0.823   9.846  19.475  0.00  0.00    +0.000 A 
ATOM      7  C   UNL     1       1.698   9.453  18.457  0.00  0.00    +0.000 A 
ATOM      8  C   UNL     1       2.457   8.280  18.619  0.00  0.00    +0.000 A 
ATOM      9  C   UNL     1       2.291   7.490  19.768  0.00  0.00    +0.000 A 
ATOM     10  C   UNL     1       1.417   7.864  20.791  0.00  0.00    +0.000 A 
ATOM     11  C   UNL     1       0.708   9.058  20.612  0.00  0.00    +0.000 A 
BRANCH   4  12
ATOM     12  C   UNL     1      -1.648  11.873  21.168  0.00  0.00    +0.000 C 
ATOM     13  C   UNL     1      -2.165  12.851  20.125  0.00  0.00    +0.000 C 
ATOM     14  C   UNL     1      -1.257  13.344  21.198  0.00  0.00    +0.000 C 
ENDBRANCH   4  12
ENDBRANCH   1   8
BRANCH   1  15
ATOM     15  N   UNL     1       3.345   6.475  17.250  0.00  0.00    +0.000 N 
ATOM     16  C   UNL     1       4.361   5.629  17.619  0.00  0.00    +0.000 C 
ATOM     17  O   UNL     1       5.269   5.928  18.376  0.00  0.00    +0.000 OA
ATOM     18  H   UNL     1       2.722   6.199  16.503  0.00  0.00    +0.000 HD
BRANCH  16  19
ATOM     19  C   UNL     1       4.326   4.275  16.978  0.00  0.00    +0.000 C 
ATOM     20  C   UNL     1       5.622   3.500  16.723  0.00  0.00    +0.000 C 
ATOM     21  C   UNL     1       4.985   4.240  15.593  0.00  0.00    +0.000 C 
BRANCH  19  22
ATOM     22  C   UNL     1       3.148   3.383  17.337  0.00  0.00    +0.000 C 
BRANCH  22  23
ATOM     23  C   UNL     1       2.635   3.447  18.760  0.00  0.00    +0.000 A 
ATOM     24  C   UNL     1       1.409   4.017  19.115  0.00  0.00    +0.000 A 
ATOM     25  C   UNL     1       0.925   3.907  20.424  0.00  0.00    +0.000 A 
ATOM     26  C   UNL     1       1.654   3.211  21.389  0.00  0.00    +0.000 A 
ATOM     27  C   UNL     1       2.882   2.651  21.056  0.00  0.00    +0.000 A 
ATOM     28  C   UNL     1       3.369   2.773  19.752  0.00  0.00    +0.000 A 
ENDBRANCH  22  23
ENDBRANCH  19  22
ENDBRANCH  16  19
ENDBRANCH   1  15
TORSDOF 6
ENDMDL
