MODEL 1
REMARK VINA RESULT:      -8.9      0.000      0.000
REMARK  Name = 
REMARK  5 active torsions:
REMARK  status: ('A' for Active; 'I' for Inactive)
REMARK    1  A    between atoms: C_2  and  C_14
REMARK    2  A    between atoms: N_3  and  C_4
REMARK    3  A    between atoms: C_4  and  C_5
REMARK    4  A    between atoms: C_19  and  S_20
REMARK    5  A    between atoms: S_20  and  N_23
REMARK                            x       y       z     vdW  Elec       q    Type
REMARK                         _______ _______ _______ _____ _____    ______ ____
ROOT
ATOM      1  O   UNL     1       2.541  10.044  17.672  0.00  0.00    +0.000 OA
ATOM      2  C   UNL     1       2.184   9.098  18.368  0.00  0.00    +0.000 C 
ATOM      3  N   UNL     1       1.288   9.229  19.398  0.00  0.00    +0.000 N 
ATOM      4  H   UNL     1       0.863   8.430  19.864  0.00  0.00    +0.000 HD
ENDROOT
BRANCH   2   5
ATOM      5  C   UNL     1       2.604   7.715  18.023  0.00  0.00    +0.000 A 
ATOM      6  C   UNL     1       1.823   6.681  18.545  0.00  0.00    +0.000 A 
ATOM      7  C   UNL     1       2.302   5.379  18.521  0.00  0.00    +0.000 A 
ATOM      8  C   UNL     1       3.543   5.094  17.939  0.00  0.00    +0.000 A 
ATOM      9 CL   UNL     1       4.202   3.555  18.344  0.00  0.00    +0.000 Cl
ATOM     10  C   UNL     1       4.226   6.093  17.228  0.00  0.00    +0.000 A 
ATOM     11  C   UNL     1       3.759   7.417  17.284  0.00  0.00    +0.000 A 
BRANCH  10  12
ATOM     12  S   UNL     1       5.430   5.659  15.969  0.00  0.00    +0.000 S 
ATOM     13  O   UNL     1       5.184   4.294  15.567  0.00  0.00    +0.000 OA
ATOM     14  O   UNL     1       5.364   6.721  14.994  0.00  0.00    +0.000 OA
BRANCH  12  15
ATOM     15  N   UNL     1       6.950   5.745  16.675  0.00  0.00    +0.000 NA
ATOM     16  C   UNL     1       7.431   4.683  17.561  0.00  0.00    +0.000 C 
ATOM     17  C   UNL     1       7.416   5.351  18.922  0.00  0.00    +0.000 C 
ATOM     18  C   UNL     1       7.886   6.768  18.618  0.00  0.00    +0.000 C 
ATOM     19  C   UNL     1       7.476   7.032  17.170  0.00  0.00    +0.000 C 
ENDBRANCH  12  15
ENDBRANCH  10  12
ENDBRANCH   2   5
BRANCH   3  20
ATOM     20  C   UNL     1       0.664  10.508  19.605  0.00  0.00    +0.000 C 
BRANCH  20  21
ATOM     21  C   UNL     1      -0.578  10.589  18.782  0.00  0.00    +0.000 A 
ATOM     22  N   UNL     1      -1.720  11.177  19.093  0.00  0.00    +0.000 NA
ATOM     23  C   UNL     1      -2.533  10.992  18.004  0.00  0.00    +0.000 A 
ATOM     24  C   UNL     1      -3.851  11.413  17.782  0.00  0.00    +0.000 A 
ATOM     25  C   UNL     1      -4.469  11.084  16.569  0.00  0.00    +0.000 A 
ATOM     26  C   UNL     1      -3.787  10.349  15.594  0.00  0.00    +0.000 A 
ATOM     27  C   UNL     1      -2.475   9.924  15.791  0.00  0.00    +0.000 A 
ATOM     28  C   UNL     1      -1.878  10.264  17.010  0.00  0.00    +0.000 A 
ATOM     29  N   UNL     1      -0.641  10.030  17.532  0.00  0.00    +0.000 N 
ATOM     30  H   UNL     1       0.111   9.522  17.071  0.00  0.00    +0.000 HD
ENDBRANCH  20  21
ENDBRANCH   3  20
TORSDOF 5
ENDMDL
MODEL 2
REMARK VINA RESULT:      -8.9      1.029      1.157
REMARK  Name = 
REMARK  5 active torsions:
REMARK  status: ('A' for Active; 'I' for Inactive)
REMARK    1  A    between atoms: C_2  and  C_14
REMARK    2  A    between atoms: N_3  and  C_4
REMARK    3  A    between atoms: C_4  and  C_5
REMARK    4  A    between atoms: C_19  and  S_20
REMARK    5  A    between atoms: S_20  and  N_23
REMARK                            x       y       z     vdW  Elec       q    Type
REMARK                         _______ _______ _______ _____ _____    ______ ____
ROOT
ATOM      1  O   UNL     1       1.839   7.776  20.110  0.00  0.00    +0.000 OA
ATOM      2  C   UNL     1       1.988   7.789  18.891  0.00  0.00    +0.000 C 
ATOM      3  N   UNL     1       1.771   8.908  18.128  0.00  0.00    +0.000 N 
ATOM      4  H   UNL     1       2.054   8.973  17.152  0.00  0.00    +0.000 HD
ENDROOT
BRANCH   2   5
ATOM      5  C   UNL     1       2.564   6.610  18.195  0.00  0.00    +0.000 A 
ATOM      6  C   UNL     1       1.872   5.406  18.338  0.00  0.00    +0.000 A 
ATOM      7  C   UNL     1       2.484   4.214  17.976  0.00  0.00    +0.000 A 
ATOM      8  C   UNL     1       3.774   4.221  17.431  0.00  0.00    +0.000 A 
ATOM      9 CL   UNL     1       4.569   2.693  17.423  0.00  0.00    +0.000 Cl
ATOM     10  C   UNL     1       4.382   5.439  17.089  0.00  0.00    +0.000 A 
ATOM     11  C   UNL     1       3.778   6.643  17.490  0.00  0.00    +0.000 A 
BRANCH  10  12
ATOM     12  S   UNL     1       5.681   5.499  15.852  0.00  0.00    +0.000 S 
ATOM     13  O   UNL     1       5.693   4.234  15.156  0.00  0.00    +0.000 OA
ATOM     14  O   UNL     1       5.457   6.722  15.121  0.00  0.00    +0.000 OA
BRANCH  12  15
ATOM     15  N   UNL     1       7.139   5.681  16.662  0.00  0.00    +0.000 NA
ATOM     16  C   UNL     1       7.618   4.656  17.593  0.00  0.00    +0.000 C 
ATOM     17  C   UNL     1       7.467   5.334  18.941  0.00  0.00    +0.000 C 
ATOM     18  C   UNL     1       7.874   6.773  18.654  0.00  0.00    +0.000 C 
ATOM     19  C   UNL     1       7.552   7.000  17.177  0.00  0.00    +0.000 C 
ENDBRANCH  12  15
ENDBRANCH  10  12
ENDBRANCH   2   5
BRANCH   3  20
ATOM     20  C   UNL     1       1.455  10.142  18.795  0.00  0.00    +0.000 C 
BRANCH  20  21
ATOM     21  C   UNL     1       0.019  10.475  18.562  0.00  0.00    +0.000 A 
ATOM     22  N   UNL     1      -0.778  11.203  19.325  0.00  0.00    +0.000 NA
ATOM     23  C   UNL     1      -1.983  11.229  18.670  0.00  0.00    +0.000 A 
ATOM     24  C   UNL     1      -3.184  11.861  19.018  0.00  0.00    +0.000 A 
ATOM     25  C   UNL     1      -4.289  11.727  18.168  0.00  0.00    +0.000 A 
ATOM     26  C   UNL     1      -4.200  10.976  16.992  0.00  0.00    +0.000 A 
ATOM     27  C   UNL     1      -3.015  10.343  16.623  0.00  0.00    +0.000 A 
ATOM     28  C   UNL     1      -1.925  10.491  17.487  0.00  0.00    +0.000 A 
ATOM     29  N   UNL     1      -0.642  10.032  17.446  0.00  0.00    +0.000 N 
ATOM     30  H   UNL     1      -0.242   9.455  16.710  0.00  0.00    +0.000 HD
ENDBRANCH  20  21
ENDBRANCH   3  20
TORSDOF 5
ENDMDL
MODEL 3
REMARK VINA RESULT:      -8.6      0.221      1.118
REMARK  Name = 
REMARK  5 active torsions:
REMARK  status: ('A' for Active; 'I' for Inactive)
REMARK    1  A    between atoms: C_2  and  C_14
REMARK    2  A    between atoms: N_3  and  C_4
REMARK    3  A    between atoms: C_4  and  C_5
REMARK    4  A    between atoms: C_19  and  S_20
REMARK    5  A    between atoms: S_20  and  N_23
REMARK                            x       y       z     vdW  Elec       q    Type
REMARK                         _______ _______ _______ _____ _____    ______ ____
ROOT
ATOM      1  O   UNL     1       2.507   9.966  17.946  0.00  0.00    +0.000 OA
ATOM      2  C   UNL     1       2.118   8.972  18.553  0.00  0.00    +0.000 C 
ATOM      3  N   UNL     1       1.145   9.026  19.519  0.00  0.00    +0.000 N 
ATOM      4  H   UNL     1       0.702   8.192  19.901  0.00  0.00    +0.000 HD
ENDROOT
BRANCH   2   5
ATOM      5  C   UNL     1       2.590   7.621  18.158  0.00  0.00    +0.000 A 
ATOM      6  C   UNL     1       1.886   6.538  18.688  0.00  0.00    +0.000 A 
ATOM      7  C   UNL     1       2.427   5.262  18.613  0.00  0.00    +0.000 A 
ATOM      8  C   UNL     1       3.654   5.053  17.971  0.00  0.00    +0.000 A 
ATOM      9 CL   UNL     1       4.405   3.541  18.310  0.00  0.00    +0.000 Cl
ATOM     10  C   UNL     1       4.254   6.100  17.255  0.00  0.00    +0.000 A 
ATOM     11  C   UNL     1       3.725   7.397  17.363  0.00  0.00    +0.000 A 
BRANCH  10  12
ATOM     12  S   UNL     1       5.421   5.754  15.935  0.00  0.00    +0.000 S 
ATOM     13  O   UNL     1       5.224   4.389  15.510  0.00  0.00    +0.000 OA
ATOM     14  O   UNL     1       5.262   6.834  14.991  0.00  0.00    +0.000 OA
BRANCH  12  15
ATOM     15  N   UNL     1       6.965   5.899  16.577  0.00  0.00    +0.000 NA
ATOM     16  C   UNL     1       7.587   4.789  17.302  0.00  0.00    +0.000 C 
ATOM     17  C   UNL     1       7.589   5.285  18.735  0.00  0.00    +0.000 C 
ATOM     18  C   UNL     1       7.914   6.766  18.589  0.00  0.00    +0.000 C 
ATOM     19  C   UNL     1       7.401   7.161  17.205  0.00  0.00    +0.000 C 
ENDBRANCH  12  15
ENDBRANCH  10  12
ENDBRANCH   2   5
BRANCH   3  20
ATOM     20  C   UNL     1       0.482  10.279  19.755  0.00  0.00    +0.000 C 
BRANCH  20  21
ATOM     21  C   UNL     1      -0.669  10.413  18.814  0.00  0.00    +0.000 A 
ATOM     22  N   UNL     1      -0.813   9.854  17.625  0.00  0.00    +0.000 NA
ATOM     23  C   UNL     1      -2.041  10.266  17.175  0.00  0.00    +0.000 A 
ATOM     24  C   UNL     1      -2.709   9.971  15.979  0.00  0.00    +0.000 A 
ATOM     25  C   UNL     1      -3.972  10.533  15.755  0.00  0.00    +0.000 A 
ATOM     26  C   UNL     1      -4.561  11.374  16.705  0.00  0.00    +0.000 A 
ATOM     27  C   UNL     1      -3.918  11.677  17.903  0.00  0.00    +0.000 A 
ATOM     28  C   UNL     1      -2.657  11.105  18.106  0.00  0.00    +0.000 A 
ATOM     29  N   UNL     1      -1.765  11.172  19.133  0.00  0.00    +0.000 N 
ATOM     30  H   UNL     1      -1.890  11.700  19.994  0.00  0.00    +0.000 HD
ENDBRANCH  20  21
ENDBRANCH   3  20
TORSDOF 5
ENDMDL
MODEL 4
REMARK VINA RESULT:      -8.1      1.847      2.251
REMARK  Name = 
REMARK  5 active torsions:
REMARK  status: ('A' for Active; 'I' for Inactive)
REMARK    1  A    between atoms: C_2  and  C_14
REMARK    2  A    between atoms: N_3  and  C_4
REMARK    3  A    between atoms: C_4  and  C_5
REMARK    4  A    between atoms: C_19  and  S_20
REMARK    5  A    between atoms: S_20  and  N_23
REMARK                            x       y       z     vdW  Elec       q    Type
REMARK                         _______ _______ _______ _____ _____    ______ ____
ROOT
ATOM      1  O   UNL     1       2.611   8.748  18.091  0.00  0.00    +0.000 OA
ATOM      2  C   UNL     1       2.059   8.275  19.081  0.00  0.00    +0.000 C 
ATOM      3  N   UNL     1       1.288   9.025  19.932  0.00  0.00    +0.000 N 
ATOM      4  H   UNL     1       0.695   8.611  20.648  0.00  0.00    +0.000 HD
ENDROOT
BRANCH   2   5
ATOM      5  C   UNL     1       2.081   6.809  19.321  0.00  0.00    +0.000 A 
ATOM      6  C   UNL     1       1.482   6.364  20.501  0.00  0.00    +0.000 A 
ATOM      7  C   UNL     1       1.712   5.069  20.943  0.00  0.00    +0.000 A 
ATOM      8  C   UNL     1       2.506   4.197  20.189  0.00  0.00    +0.000 A 
ATOM      9 CL   UNL     1       3.054   2.798  21.031  0.00  0.00    +0.000 Cl
ATOM     10  C   UNL     1       2.929   4.571  18.904  0.00  0.00    +0.000 A 
ATOM     11  C   UNL     1       2.727   5.895  18.474  0.00  0.00    +0.000 A 
BRANCH  10  12
ATOM     12  S   UNL     1       3.366   3.328  17.685  0.00  0.00    +0.000 S 
ATOM     13  O   UNL     1       3.506   2.064  18.367  0.00  0.00    +0.000 OA
ATOM     14  O   UNL     1       2.396   3.473  16.627  0.00  0.00    +0.000 OA
BRANCH  12  15
ATOM     15  N   UNL     1       4.853   3.758  17.039  0.00  0.00    +0.000 NA
ATOM     16  C   UNL     1       5.877   4.403  17.865  0.00  0.00    +0.000 C 
ATOM     17  C   UNL     1       5.900   5.819  17.322  0.00  0.00    +0.000 C 
ATOM     18  C   UNL     1       5.725   5.618  15.822  0.00  0.00    +0.000 C 
ATOM     19  C   UNL     1       4.947   4.312  15.674  0.00  0.00    +0.000 C 
ENDBRANCH  12  15
ENDBRANCH  10  12
ENDBRANCH   2   5
BRANCH   3  20
ATOM     20  C   UNL     1       1.034  10.399  19.595  0.00  0.00    +0.000 C 
BRANCH  20  21
ATOM     21  C   UNL     1      -0.277  10.499  18.889  0.00  0.00    +0.000 A 
ATOM     22  N   UNL     1      -1.396  11.047  19.330  0.00  0.00    +0.000 NA
ATOM     23  C   UNL     1      -2.299  10.904  18.309  0.00  0.00    +0.000 A 
ATOM     24  C   UNL     1      -3.638  11.310  18.225  0.00  0.00    +0.000 A 
ATOM     25  C   UNL     1      -4.356  11.034  17.055  0.00  0.00    +0.000 A 
ATOM     26  C   UNL     1      -3.752  10.364  15.986  0.00  0.00    +0.000 A 
ATOM     27  C   UNL     1      -2.421   9.956  16.044  0.00  0.00    +0.000 A 
ATOM     28  C   UNL     1      -1.724  10.243  17.223  0.00  0.00    +0.000 A 
ATOM     29  N   UNL     1      -0.442  10.006  17.621  0.00  0.00    +0.000 N 
ATOM     30  H   UNL     1       0.274   9.538  17.069  0.00  0.00    +0.000 HD
ENDBRANCH  20  21
ENDBRANCH   3  20
TORSDOF 5
ENDMDL
MODEL 5
REMARK VINA RESULT:      -8.1      1.953      2.332
REMARK  Name = 
REMARK  5 active torsions:
REMARK  status: ('A' for Active; 'I' for Inactive)
REMARK    1  A    between atoms: C_2  and  C_14
REMARK    2  A    between atoms: N_3  and  C_4
REMARK    3  A    between atoms: C_4  and  C_5
REMARK    4  A    between atoms: C_19  and  S_20
REMARK    5  A    between atoms: S_20  and  N_23
REMARK                            x       y       z     vdW  Elec       q    Type
REMARK                         _______ _______ _______ _____ _____    ______ ____
ROOT
ATOM      1  O   UNL     1       1.662   8.491  21.381  0.00  0.00    +0.000 OA
ATOM      2  C   UNL     1       1.560   7.947  20.285  0.00  0.00    +0.000 C 
ATOM      3  N   UNL     1       1.205   8.628  19.148  0.00  0.00    +0.000 N 
ATOM      4  H   UNL     1       1.284   8.224  18.217  0.00  0.00    +0.000 HD
ENDROOT
BRANCH   2   5
ATOM      5  C   UNL     1       1.969   6.530  20.111  0.00  0.00    +0.000 A 
ATOM      6  C   UNL     1       1.133   5.568  20.681  0.00  0.00    +0.000 A 
ATOM      7  C   UNL     1       1.582   4.263  20.822  0.00  0.00    +0.000 A 
ATOM      8  C   UNL     1       2.852   3.899  20.358  0.00  0.00    +0.000 A 
ATOM      9 CL   UNL     1       3.447   2.399  20.960  0.00  0.00    +0.000 Cl
ATOM     10  C   UNL     1       3.603   4.808  19.596  0.00  0.00    +0.000 A 
ATOM     11  C   UNL     1       3.164   6.139  19.486  0.00  0.00    +0.000 A 
BRANCH  10  12
ATOM     12  S   UNL     1       4.877   4.228  18.473  0.00  0.00    +0.000 S 
ATOM     13  O   UNL     1       6.044   3.894  19.254  0.00  0.00    +0.000 OA
ATOM     14  O   UNL     1       4.240   3.219  17.661  0.00  0.00    +0.000 OA
BRANCH  12  15
ATOM     15  N   UNL     1       5.262   5.500  17.448  0.00  0.00    +0.000 NA
ATOM     16  C   UNL     1       5.253   5.325  15.994  0.00  0.00    +0.000 C 
ATOM     17  C   UNL     1       6.727   5.378  15.642  0.00  0.00    +0.000 C 
ATOM     18  C   UNL     1       7.268   6.455  16.574  0.00  0.00    +0.000 C 
ATOM     19  C   UNL     1       6.346   6.439  17.793  0.00  0.00    +0.000 C 
ENDBRANCH  12  15
ENDBRANCH  10  12
ENDBRANCH   2   5
BRANCH   3  20
ATOM     20  C   UNL     1       1.045  10.055  19.225  0.00  0.00    +0.000 C 
BRANCH  20  21
ATOM     21  C   UNL     1      -0.314  10.426  18.735  0.00  0.00    +0.000 A 
ATOM     22  N   UNL     1      -1.291  11.002  19.413  0.00  0.00    +0.000 NA
ATOM     23  C   UNL     1      -2.319  11.150  18.517  0.00  0.00    +0.000 A 
ATOM     24  C   UNL     1      -3.592  11.708  18.690  0.00  0.00    +0.000 A 
ATOM     25  C   UNL     1      -4.472  11.734  17.600  0.00  0.00    +0.000 A 
ATOM     26  C   UNL     1      -4.091  11.212  16.360  0.00  0.00    +0.000 A 
ATOM     27  C   UNL     1      -2.828  10.657  16.163  0.00  0.00    +0.000 A 
ATOM     28  C   UNL     1      -1.966  10.642  17.266  0.00  0.00    +0.000 A 
ATOM     29  N   UNL     1      -0.690  10.197  17.436  0.00  0.00    +0.000 N 
ATOM     30  H   UNL     1      -0.112   9.764  16.720  0.00  0.00    +0.000 HD
ENDBRANCH  20  21
ENDBRANCH   3  20
TORSDOF 5
ENDMDL
MODEL 6
REMARK VINA RESULT:      -8.1      2.365      3.430
REMARK  Name = 
REMARK  5 active torsions:
REMARK  status: ('A' for Active; 'I' for Inactive)
REMARK    1  A    between atoms: C_2  and  C_14
REMARK    2  A    between atoms: N_3  and  C_4
REMARK    3  A    between atoms: C_4  and  C_5
REMARK    4  A    between atoms: C_19  and  S_20
REMARK    5  A    between atoms: S_20  and  N_23
REMARK                            x       y       z     vdW  Elec       q    Type
REMARK                         _______ _______ _______ _____ _____    ______ ____
ROOT
ATOM      1  O   UNL     1       1.655   7.870  20.437  0.00  0.00    +0.000 OA
ATOM      2  C   UNL     1       1.965   7.982  19.254  0.00  0.00    +0.000 C 
ATOM      3  N   UNL     1       1.645   9.084  18.502  0.00  0.00    +0.000 N 
ATOM      4  H   UNL     1       2.042   9.257  17.581  0.00  0.00    +0.000 HD
ENDROOT
BRANCH   2   5
ATOM      5  C   UNL     1       2.846   6.972  18.612  0.00  0.00    +0.000 A 
ATOM      6  C   UNL     1       4.047   7.445  18.079  0.00  0.00    +0.000 A 
ATOM      7  C   UNL     1       4.780   6.642  17.217  0.00  0.00    +0.000 A 
ATOM      8  C   UNL     1       4.342   5.347  16.915  0.00  0.00    +0.000 A 
ATOM      9 CL   UNL     1       5.087   4.628  15.538  0.00  0.00    +0.000 Cl
ATOM     10  C   UNL     1       3.257   4.796  17.614  0.00  0.00    +0.000 A 
ATOM     11  C   UNL     1       2.494   5.622  18.458  0.00  0.00    +0.000 A 
BRANCH  10  12
ATOM     12  S   UNL     1       3.061   3.017  17.746  0.00  0.00    +0.000 S 
ATOM     13  O   UNL     1       1.973   2.622  16.884  0.00  0.00    +0.000 OA
ATOM     14  O   UNL     1       4.380   2.470  17.538  0.00  0.00    +0.000 OA
BRANCH  12  15
ATOM     15  N   UNL     1       2.641   2.673  19.334  0.00  0.00    +0.000 NA
ATOM     16  C   UNL     1       1.241   2.481  19.718  0.00  0.00    +0.000 C 
ATOM     17  C   UNL     1       0.945   3.723  20.536  0.00  0.00    +0.000 C 
ATOM     18  C   UNL     1       2.235   3.940  21.316  0.00  0.00    +0.000 C 
ATOM     19  C   UNL     1       3.340   3.331  20.455  0.00  0.00    +0.000 C 
ENDBRANCH  12  15
ENDBRANCH  10  12
ENDBRANCH   2   5
BRANCH   3  20
ATOM     20  C   UNL     1       1.011  10.197  19.155  0.00  0.00    +0.000 C 
BRANCH  20  21
ATOM     21  C   UNL     1      -0.336  10.419  18.553  0.00  0.00    +0.000 A 
ATOM     22  N   UNL     1      -1.361  11.070  19.076  0.00  0.00    +0.000 NA
ATOM     23  C   UNL     1      -2.351  11.012  18.130  0.00  0.00    +0.000 A 
ATOM     24  C   UNL     1      -3.648  11.541  18.148  0.00  0.00    +0.000 A 
ATOM     25  C   UNL     1      -4.479  11.333  17.040  0.00  0.00    +0.000 A 
ATOM     26  C   UNL     1      -4.026  10.609  15.932  0.00  0.00    +0.000 A 
ATOM     27  C   UNL     1      -2.739  10.077  15.889  0.00  0.00    +0.000 A 
ATOM     28  C   UNL     1      -1.927  10.298  17.008  0.00  0.00    +0.000 A 
ATOM     29  N   UNL     1      -0.646   9.942  17.306  0.00  0.00    +0.000 N 
ATOM     30  H   UNL     1      -0.023   9.409  16.703  0.00  0.00    +0.000 HD
ENDBRANCH  20  21
ENDBRANCH   3  20
TORSDOF 5
ENDMDL
MODEL 7
REMARK VINA RESULT:      -8.1      2.388      3.847
REMARK  Name = 
REMARK  5 active torsions:
REMARK  status: ('A' for Active; 'I' for Inactive)
REMARK    1  A    between atoms: C_2  and  C_14
REMARK    2  A    between atoms: N_3  and  C_4
REMARK    3  A    between atoms: C_4  and  C_5
REMARK    4  A    between atoms: C_19  and  S_20
REMARK    5  A    between atoms: S_20  and  N_23
REMARK                            x       y       z     vdW  Elec       q    Type
REMARK                         _______ _______ _______ _____ _____    ______ ____
ROOT
ATOM      1  O   UNL     1       2.122   9.724  17.327  0.00  0.00    +0.000 OA
ATOM      2  C   UNL     1       1.946   8.957  18.270  0.00  0.00    +0.000 C 
ATOM      3  N   UNL     1       1.080   9.229  19.298  0.00  0.00    +0.000 N 
ATOM      4  H   UNL     1       0.804   8.531  19.986  0.00  0.00    +0.000 HD
ENDROOT
BRANCH   2   5
ATOM      5  C   UNL     1       2.566   7.607  18.262  0.00  0.00    +0.000 A 
ATOM      6  C   UNL     1       2.057   6.685  19.179  0.00  0.00    +0.000 A 
ATOM      7  C   UNL     1       2.759   5.517  19.441  0.00  0.00    +0.000 A 
ATOM      8  C   UNL     1       3.951   5.242  18.760  0.00  0.00    +0.000 A 
ATOM      9 CL   UNL     1       4.924   4.007  19.463  0.00  0.00    +0.000 Cl
ATOM     10  C   UNL     1       4.348   6.059  17.690  0.00  0.00    +0.000 A 
ATOM     11  C   UNL     1       3.657   7.260  17.450  0.00  0.00    +0.000 A 
BRANCH  10  12
ATOM     12  S   UNL     1       5.448   5.431  16.418  0.00  0.00    +0.000 S 
ATOM     13  O   UNL     1       5.265   4.002  16.335  0.00  0.00    +0.000 OA
ATOM     14  O   UNL     1       5.205   6.258  15.260  0.00  0.00    +0.000 OA
BRANCH  12  15
ATOM     15  N   UNL     1       7.021   5.745  16.913  0.00  0.00    +0.000 NA
ATOM     16  C   UNL     1       7.711   4.848  17.843  0.00  0.00    +0.000 C 
ATOM     17  C   UNL     1       7.780   5.674  19.113  0.00  0.00    +0.000 C 
ATOM     18  C   UNL     1       8.058   7.080  18.599  0.00  0.00    +0.000 C 
ATOM     19  C   UNL     1       7.458   7.126  17.194  0.00  0.00    +0.000 C 
ENDBRANCH  12  15
ENDBRANCH  10  12
ENDBRANCH   2   5
BRANCH   3  20
ATOM     20  C   UNL     1       0.270  10.414  19.216  0.00  0.00    +0.000 C 
BRANCH  20  21
ATOM     21  C   UNL     1       1.131  11.615  19.415  0.00  0.00    +0.000 A 
ATOM     22  N   UNL     1       1.567  12.120  20.556  0.00  0.00    +0.000 NA
ATOM     23  C   UNL     1       2.334  13.203  20.206  0.00  0.00    +0.000 A 
ATOM     24  C   UNL     1       3.047  14.100  21.012  0.00  0.00    +0.000 A 
ATOM     25  C   UNL     1       3.756  15.141  20.399  0.00  0.00    +0.000 A 
ATOM     26  C   UNL     1       3.756  15.285  19.008  0.00  0.00    +0.000 A 
ATOM     27  C   UNL     1       3.059  14.402  18.187  0.00  0.00    +0.000 A 
ATOM     28  C   UNL     1       2.357  13.370  18.821  0.00  0.00    +0.000 A 
ATOM     29  N   UNL     1       1.591  12.346  18.350  0.00  0.00    +0.000 N 
ATOM     30  H   UNL     1       1.392  12.156  17.371  0.00  0.00    +0.000 HD
ENDBRANCH  20  21
ENDBRANCH   3  20
TORSDOF 5
ENDMDL
MODEL 8
REMARK VINA RESULT:      -8.1      1.917      2.604
REMARK  Name = 
REMARK  5 active torsions:
REMARK  status: ('A' for Active; 'I' for Inactive)
REMARK    1  A    between atoms: C_2  and  C_14
REMARK    2  A    between atoms: N_3  and  C_4
REMARK    3  A    between atoms: C_4  and  C_5
REMARK    4  A    between atoms: C_19  and  S_20
REMARK    5  A    between atoms: S_20  and  N_23
REMARK                            x       y       z     vdW  Elec       q    Type
REMARK                         _______ _______ _______ _____ _____    ______ ____
ROOT
ATOM      1  O   UNL     1       2.653   8.907  18.516  0.00  0.00    +0.000 OA
ATOM      2  C   UNL     1       2.025   8.351  19.412  0.00  0.00    +0.000 C 
ATOM      3  N   UNL     1       1.120   9.011  20.205  0.00  0.00    +0.000 N 
ATOM      4  H   UNL     1       0.477   8.526  20.828  0.00  0.00    +0.000 HD
ENDROOT
BRANCH   2   5
ATOM      5  C   UNL     1       2.111   6.878  19.585  0.00  0.00    +0.000 A 
ATOM      6  C   UNL     1       1.100   6.282  20.341  0.00  0.00    +0.000 A 
ATOM      7  C   UNL     1       1.257   4.979  20.794  0.00  0.00    +0.000 A 
ATOM      8  C   UNL     1       2.405   4.251  20.461  0.00  0.00    +0.000 A 
ATOM      9 CL   UNL     1       2.675   2.840  21.412  0.00  0.00    +0.000 Cl
ATOM     10  C   UNL     1       3.317   4.771  19.529  0.00  0.00    +0.000 A 
ATOM     11  C   UNL     1       3.175   6.102  19.100  0.00  0.00    +0.000 A 
BRANCH  10  12
ATOM     12  S   UNL     1       4.404   3.681  18.605  0.00  0.00    +0.000 S 
ATOM     13  O   UNL     1       5.398   3.165  19.516  0.00  0.00    +0.000 OA
ATOM     14  O   UNL     1       3.530   2.773  17.903  0.00  0.00    +0.000 OA
BRANCH  12  15
ATOM     15  N   UNL     1       5.174   4.609  17.438  0.00  0.00    +0.000 NA
ATOM     16  C   UNL     1       4.874   4.432  16.015  0.00  0.00    +0.000 C 
ATOM     17  C   UNL     1       6.140   3.787  15.485  0.00  0.00    +0.000 C 
ATOM     18  C   UNL     1       7.243   4.507  16.251  0.00  0.00    +0.000 C 
ATOM     19  C   UNL     1       6.605   4.945  17.569  0.00  0.00    +0.000 C 
ENDBRANCH  12  15
ENDBRANCH  10  12
ENDBRANCH   2   5
BRANCH   3  20
ATOM     20  C   UNL     1       0.819  10.384  19.905  0.00  0.00    +0.000 C 
BRANCH  20  21
ATOM     21  C   UNL     1      -0.363  10.444  18.997  0.00  0.00    +0.000 A 
ATOM     22  N   UNL     1      -0.497   9.891  17.803  0.00  0.00    +0.000 NA
ATOM     23  C   UNL     1      -1.765  10.216  17.393  0.00  0.00    +0.000 A 
ATOM     24  C   UNL     1      -2.441   9.887  16.210  0.00  0.00    +0.000 A 
ATOM     25  C   UNL     1      -3.748  10.355  16.027  0.00  0.00    +0.000 A 
ATOM     26  C   UNL     1      -4.372  11.138  17.005  0.00  0.00    +0.000 A 
ATOM     27  C   UNL     1      -3.721  11.473  18.190  0.00  0.00    +0.000 A 
ATOM     28  C   UNL     1      -2.416  10.994  18.351  0.00  0.00    +0.000 A 
ATOM     29  N   UNL     1      -1.503  11.115  19.356  0.00  0.00    +0.000 N 
ATOM     30  H   UNL     1      -1.644  11.621  20.227  0.00  0.00    +0.000 HD
ENDBRANCH  20  21
ENDBRANCH   3  20
TORSDOF 5
ENDMDL
MODEL 9
REMARK VINA RESULT:      -8.0      1.767      2.224
REMARK  Name = 
REMARK  5 active torsions:
REMARK  status: ('A' for Active; 'I' for Inactive)
REMARK    1  A    between atoms: C_2  and  C_14
REMARK    2  A    between atoms: N_3  and  C_4
REMARK    3  A    between atoms: C_4  and  C_5
REMARK    4  A    between atoms: C_19  and  S_20
REMARK    5  A    between atoms: S_20  and  N_23
REMARK                            x       y       z     vdW  Elec       q    Type
REMARK                         _______ _______ _______ _____ _____    ______ ____
ROOT
ATOM      1  O   UNL     1       0.993   7.885  20.670  0.00  0.00    +0.000 OA
ATOM      2  C   UNL     1       1.584   8.089  19.613  0.00  0.00    +0.000 C 
ATOM      3  N   UNL     1       1.486   9.269  18.922  0.00  0.00    +0.000 N 
ATOM      4  H   UNL     1       2.099   9.506  18.145  0.00  0.00    +0.000 HD
ENDROOT
BRANCH   2   5
ATOM      5  C   UNL     1       2.566   7.099  19.102  0.00  0.00    +0.000 A 
ATOM      6  C   UNL     1       2.568   5.848  19.724  0.00  0.00    +0.000 A 
ATOM      7  C   UNL     1       3.630   4.979  19.517  0.00  0.00    +0.000 A 
ATOM      8  C   UNL     1       4.675   5.334  18.656  0.00  0.00    +0.000 A 
ATOM      9 CL   UNL     1       6.103   4.383  18.812  0.00  0.00    +0.000 Cl
ATOM     10  C   UNL     1       4.569   6.491  17.869  0.00  0.00    +0.000 A 
ATOM     11  C   UNL     1       3.513   7.388  18.107  0.00  0.00    +0.000 A 
BRANCH  10  12
ATOM     12  S   UNL     1       5.510   6.654  16.349  0.00  0.00    +0.000 S 
ATOM     13  O   UNL     1       4.661   7.281  15.364  0.00  0.00    +0.000 OA
ATOM     14  O   UNL     1       6.752   7.280  16.733  0.00  0.00    +0.000 OA
BRANCH  12  15
ATOM     15  N   UNL     1       5.891   5.107  15.825  0.00  0.00    +0.000 NA
ATOM     16  C   UNL     1       7.242   4.779  15.363  0.00  0.00    +0.000 C 
ATOM     17  C   UNL     1       7.049   4.594  13.870  0.00  0.00    +0.000 C 
ATOM     18  C   UNL     1       5.701   3.890  13.779  0.00  0.00    +0.000 C 
ATOM     19  C   UNL     1       4.928   4.327  15.023  0.00  0.00    +0.000 C 
ENDBRANCH  12  15
ENDBRANCH  10  12
ENDBRANCH   2   5
BRANCH   3  20
ATOM     20  C   UNL     1       0.743  10.349  19.513  0.00  0.00    +0.000 C 
BRANCH  20  21
ATOM     21  C   UNL     1      -0.536  10.534  18.766  0.00  0.00    +0.000 A 
ATOM     22  N   UNL     1      -1.629  11.156  19.172  0.00  0.00    +0.000 NA
ATOM     23  C   UNL     1      -2.507  11.071  18.122  0.00  0.00    +0.000 A 
ATOM     24  C   UNL     1      -3.813  11.565  17.997  0.00  0.00    +0.000 A 
ATOM     25  C   UNL     1      -4.510  11.334  16.804  0.00  0.00    +0.000 A 
ATOM     26  C   UNL     1      -3.919  10.624  15.754  0.00  0.00    +0.000 A 
ATOM     27  C   UNL     1      -2.620  10.128  15.855  0.00  0.00    +0.000 A 
ATOM     28  C   UNL     1      -1.943  10.371  17.055  0.00  0.00    +0.000 A 
ATOM     29  N   UNL     1      -0.693  10.050  17.493  0.00  0.00    +0.000 N 
ATOM     30  H   UNL     1       0.007   9.535  16.964  0.00  0.00    +0.000 HD
ENDBRANCH  20  21
ENDBRANCH   3  20
TORSDOF 5
ENDMDL
