MODEL 1
REMARK VINA RESULT:      -9.1      0.000      0.000
REMARK  Name = 
REMARK  8 active torsions:
REMARK  status: ('A' for Active; 'I' for Inactive)
REMARK    1  A    between atoms: C_1  and  N_2
REMARK    2  A    between atoms: N_2  and  C_3
REMARK    3  A    between atoms: C_7  and  C_8
REMARK    4  A    between atoms: N_14  and  C_15
REMARK    5  A    between atoms: C_19  and  C_20
REMARK    6  A    between atoms: C_20  and  O_21
REMARK    7  A    between atoms: O_21  and  C_22
REMARK    8  A    between atoms: N_26  and  C_27
REMARK                            x       y       z     vdW  Elec       q    Type
REMARK                         _______ _______ _______ _____ _____    ______ ____
ROOT
ATOM      1  C   UNL     1      -0.362  11.081  19.144  0.00  0.00    +0.000 A 
ATOM      2  C   UNL     1       0.504  10.221  18.474  0.00  0.00    +0.000 A 
ATOM      3  C   UNL     1       1.038   9.156  19.169  0.00  0.00    +0.000 A 
ATOM      4  C   UNL     1       0.802   8.926  20.518  0.00  0.00    +0.000 A 
ATOM      5  C   UNL     1       0.015   9.810  21.243  0.00  0.00    +0.000 A 
ATOM      6  C   UNL     1      -0.553  10.896  20.534  0.00  0.00    +0.000 A 
ATOM      7  C   UNL     1       1.514   7.674  20.920  0.00  0.00    +0.000 C 
ATOM      8  N   UNL     1       2.187   7.251  19.694  0.00  0.00    +0.000 N 
ATOM      9  C   UNL     1       1.916   8.118  18.640  0.00  0.00    +0.000 C 
ATOM     10  O   UNL     1       2.268   8.108  17.475  0.00  0.00    +0.000 OA
ENDROOT
BRANCH   8  11
ATOM     11  C   UNL     1       3.063   6.137  19.642  0.00  0.00    +0.000 A 
ATOM     12  C   UNL     1       2.659   4.851  20.002  0.00  0.00    +0.000 A 
ATOM     13  C   UNL     1       3.527   3.769  19.872  0.00  0.00    +0.000 A 
ATOM     14  C   UNL     1       4.808   3.951  19.353  0.00  0.00    +0.000 A 
ATOM     15  C   UNL     1       5.265   5.222  18.968  0.00  0.00    +0.000 A 
ATOM     16  C   UNL     1       4.372   6.300  19.176  0.00  0.00    +0.000 A 
BRANCH  15  17
ATOM     17  C   UNL     1       6.714   5.481  18.287  0.00  0.00    +0.000 C 
ATOM     18  C   UNL     1       7.824   5.820  19.353  0.00  0.00    +0.000 C 
ATOM     19  O   UNL     1       8.307   6.931  18.564  0.00  0.00    +0.000 OA
ATOM     20  C   UNL     1       7.057   6.938  17.825  0.00  0.00    +0.000 C 
BRANCH  17  21
ATOM     21  O   UNL     1       7.116   4.373  17.422  0.00  0.00    +0.000 OA
BRANCH  21  22
ATOM     22  C   UNL     1       6.877   4.575  16.132  0.00  0.00    +0.000 A 
ATOM     23  N   UNL     1       7.628   5.219  15.267  0.00  0.00    +0.000 NA
ATOM     24  N   UNL     1       7.011   5.149  14.037  0.00  0.00    +0.000 NA
ATOM     25  C   UNL     1       5.897   4.470  14.192  0.00  0.00    +0.000 A 
ATOM     26  N   UNL     1       5.773   4.091  15.493  0.00  0.00    +0.000 N 
ATOM     27  C   UNL     1       4.679   3.367  16.075  0.00  0.00    +0.000 C 
ENDBRANCH  21  22
ENDBRANCH  17  21
ENDBRANCH  15  17
ENDBRANCH   8  11
BRANCH   5  28
ATOM     28  C   UNL     1      -0.255   9.650  22.713  0.00  0.00    +0.000 C 
ATOM     29  F   UNL     1      -0.905  10.713  23.265  0.00  0.00    +0.000 F 
ATOM     30  F   UNL     1      -1.024   8.561  22.990  0.00  0.00    +0.000 F 
ATOM     31  F   UNL     1       0.886   9.500  23.443  0.00  0.00    +0.000 F 
ENDBRANCH   5  28
BRANCH   1  33
ATOM     32  C   UNL     1      -1.974  11.897  17.513  0.00  0.00    +0.000 C 
ATOM     33  N   UNL     1      -0.945  12.187  18.508  0.00  0.00    +0.000 N 
ATOM     34  H   UNL     1      -1.246  12.898  19.170  0.00  0.00    +0.000 HD
ENDBRANCH   1  33
TORSDOF 6
ENDMDL
MODEL 2
REMARK VINA RESULT:      -8.7      1.517      2.610
REMARK  Name = 
REMARK  8 active torsions:
REMARK  status: ('A' for Active; 'I' for Inactive)
REMARK    1  A    between atoms: C_1  and  N_2
REMARK    2  A    between atoms: N_2  and  C_3
REMARK    3  A    between atoms: C_7  and  C_8
REMARK    4  A    between atoms: N_14  and  C_15
REMARK    5  A    between atoms: C_19  and  C_20
REMARK    6  A    between atoms: C_20  and  O_21
REMARK    7  A    between atoms: O_21  and  C_22
REMARK    8  A    between atoms: N_26  and  C_27
REMARK                            x       y       z     vdW  Elec       q    Type
REMARK                         _______ _______ _______ _____ _____    ______ ____
ROOT
ATOM      1  C   UNL     1       0.583  11.689  19.299  0.00  0.00    +0.000 A 
ATOM      2  C   UNL     1       1.272  10.774  18.507  0.00  0.00    +0.000 A 
ATOM      3  C   UNL     1       1.480   9.504  19.003  0.00  0.00    +0.000 A 
ATOM      4  C   UNL     1       1.086   9.104  20.273  0.00  0.00    +0.000 A 
ATOM      5  C   UNL     1       0.475  10.012  21.126  0.00  0.00    +0.000 A 
ATOM      6  C   UNL     1       0.241  11.313  20.619  0.00  0.00    +0.000 A 
ATOM      7  C   UNL     1       1.445   7.664  20.453  0.00  0.00    +0.000 C 
ATOM      8  N   UNL     1       2.096   7.311  19.192  0.00  0.00    +0.000 N 
ATOM      9  C   UNL     1       2.126   8.391  18.316  0.00  0.00    +0.000 C 
ATOM     10  O   UNL     1       2.559   8.501  17.184  0.00  0.00    +0.000 OA
ENDROOT
BRANCH   8  11
ATOM     11  C   UNL     1       2.684   6.043  18.959  0.00  0.00    +0.000 A 
ATOM     12  C   UNL     1       2.181   4.870  19.524  0.00  0.00    +0.000 A 
ATOM     13  C   UNL     1       2.743   3.632  19.217  0.00  0.00    +0.000 A 
ATOM     14  C   UNL     1       3.803   3.544  18.315  0.00  0.00    +0.000 A 
ATOM     15  C   UNL     1       4.345   4.690  17.711  0.00  0.00    +0.000 A 
ATOM     16  C   UNL     1       3.784   5.929  18.101  0.00  0.00    +0.000 A 
BRANCH  15  17
ATOM     17  C   UNL     1       5.524   4.640  16.599  0.00  0.00    +0.000 C 
ATOM     18  C   UNL     1       5.352   5.753  15.495  0.00  0.00    +0.000 C 
ATOM     19  O   UNL     1       5.605   4.804  14.434  0.00  0.00    +0.000 OA
ATOM     20  C   UNL     1       5.317   3.716  15.352  0.00  0.00    +0.000 C 
BRANCH  17  21
ATOM     21  O   UNL     1       6.852   4.685  17.209  0.00  0.00    +0.000 OA
BRANCH  21  22
ATOM     22  C   UNL     1       7.314   5.912  17.416  0.00  0.00    +0.000 A 
ATOM     23  N   UNL     1       7.487   6.866  16.528  0.00  0.00    +0.000 NA
ATOM     24  N   UNL     1       7.950   7.981  17.191  0.00  0.00    +0.000 NA
ATOM     25  C   UNL     1       8.053   7.671  18.463  0.00  0.00    +0.000 A 
ATOM     26  N   UNL     1       7.664   6.380  18.648  0.00  0.00    +0.000 N 
ATOM     27  C   UNL     1       7.667   5.653  19.886  0.00  0.00    +0.000 C 
ENDBRANCH  21  22
ENDBRANCH  17  21
ENDBRANCH  15  17
ENDBRANCH   8  11
BRANCH   5  28
ATOM     28  C   UNL     1       0.055   9.666  22.527  0.00  0.00    +0.000 C 
ATOM     29  F   UNL     1      -0.875   8.671  22.587  0.00  0.00    +0.000 F 
ATOM     30  F   UNL     1       1.096   9.247  23.299  0.00  0.00    +0.000 F 
ATOM     31  F   UNL     1      -0.499  10.724  23.186  0.00  0.00    +0.000 F 
ENDBRANCH   5  28
BRANCH   1  33
ATOM     32  C   UNL     1      -0.078  13.955  19.892  0.00  0.00    +0.000 C 
ATOM     33  N   UNL     1       0.333  13.000  18.867  0.00  0.00    +0.000 N 
ATOM     34  H   UNL     1       1.083  13.364  18.286  0.00  0.00    +0.000 HD
ENDBRANCH   1  33
TORSDOF 6
ENDMDL
MODEL 3
REMARK VINA RESULT:      -8.6      2.990      8.621
REMARK  Name = 
REMARK  8 active torsions:
REMARK  status: ('A' for Active; 'I' for Inactive)
REMARK    1  A    between atoms: C_1  and  N_2
REMARK    2  A    between atoms: N_2  and  C_3
REMARK    3  A    between atoms: C_7  and  C_8
REMARK    4  A    between atoms: N_14  and  C_15
REMARK    5  A    between atoms: C_19  and  C_20
REMARK    6  A    between atoms: C_20  and  O_21
REMARK    7  A    between atoms: O_21  and  C_22
REMARK    8  A    between atoms: N_26  and  C_27
REMARK                            x       y       z     vdW  Elec       q    Type
REMARK                         _______ _______ _______ _____ _____    ______ ____
ROOT
ATOM      1  C   UNL     1       4.001   4.659  17.834  0.00  0.00    +0.000 A 
ATOM      2  C   UNL     1       3.595   5.990  17.776  0.00  0.00    +0.000 A 
ATOM      3  C   UNL     1       2.786   6.473  18.783  0.00  0.00    +0.000 A 
ATOM      4  C   UNL     1       2.309   5.690  19.825  0.00  0.00    +0.000 A 
ATOM      5  C   UNL     1       2.618   4.338  19.870  0.00  0.00    +0.000 A 
ATOM      6  C   UNL     1       3.463   3.836  18.851  0.00  0.00    +0.000 A 
ATOM      7  C   UNL     1       1.495   6.551  20.736  0.00  0.00    +0.000 C 
ATOM      8  N   UNL     1       1.536   7.865  20.098  0.00  0.00    +0.000 N 
ATOM      9  C   UNL     1       2.300   7.841  18.935  0.00  0.00    +0.000 C 
ATOM     10  O   UNL     1       2.586   8.715  18.138  0.00  0.00    +0.000 OA
ENDROOT
BRANCH   8  11
ATOM     11  C   UNL     1       0.810   8.980  20.585  0.00  0.00    +0.000 A 
ATOM     12  C   UNL     1       0.544   9.163  21.942  0.00  0.00    +0.000 A 
ATOM     13  C   UNL     1      -0.113  10.307  22.393  0.00  0.00    +0.000 A 
ATOM     14  C   UNL     1      -0.490  11.303  21.493  0.00  0.00    +0.000 A 
ATOM     15  C   UNL     1      -0.240  11.176  20.117  0.00  0.00    +0.000 A 
ATOM     16  C   UNL     1       0.372   9.971  19.699  0.00  0.00    +0.000 A 
BRANCH  15  17
ATOM     17  C   UNL     1      -0.585  12.335  19.036  0.00  0.00    +0.000 C 
ATOM     18  C   UNL     1       0.678  13.204  18.667  0.00  0.00    +0.000 C 
ATOM     19  O   UNL     1      -0.069  14.433  18.811  0.00  0.00    +0.000 OA
ATOM     20  C   UNL     1      -1.077  13.720  19.577  0.00  0.00    +0.000 C 
BRANCH  17  21
ATOM     21  O   UNL     1      -1.234  11.792  17.843  0.00  0.00    +0.000 OA
BRANCH  21  22
ATOM     22  C   UNL     1      -2.551  11.663  17.951  0.00  0.00    +0.000 A 
ATOM     23  N   UNL     1      -3.294  11.882  19.013  0.00  0.00    +0.000 NA
ATOM     24  N   UNL     1      -4.607  11.660  18.662  0.00  0.00    +0.000 NA
ATOM     25  C   UNL     1      -4.624  11.303  17.398  0.00  0.00    +0.000 A 
ATOM     26  N   UNL     1      -3.352  11.292  16.913  0.00  0.00    +0.000 N 
ATOM     27  C   UNL     1      -2.943  10.920  15.588  0.00  0.00    +0.000 C 
ENDBRANCH  21  22
ENDBRANCH  17  21
ENDBRANCH  15  17
ENDBRANCH   8  11
BRANCH   5  28
ATOM     28  C   UNL     1       2.108   3.416  20.943  0.00  0.00    +0.000 C 
ATOM     29  F   UNL     1       0.749   3.312  20.971  0.00  0.00    +0.000 F 
ATOM     30  F   UNL     1       2.574   2.144  20.807  0.00  0.00    +0.000 F 
ATOM     31  F   UNL     1       2.469   3.817  22.195  0.00  0.00    +0.000 F 
ENDBRANCH   5  28
BRANCH   1  33
ATOM     32  C   UNL     1       6.213   4.534  16.829  0.00  0.00    +0.000 C 
ATOM     33  N   UNL     1       4.822   4.093  16.848  0.00  0.00    +0.000 N 
ATOM     34  H   UNL     1       4.743   3.080  16.816  0.00  0.00    +0.000 HD
ENDBRANCH   1  33
TORSDOF 6
ENDMDL
MODEL 4
REMARK VINA RESULT:      -8.5      1.752      2.954
REMARK  Name = 
REMARK  8 active torsions:
REMARK  status: ('A' for Active; 'I' for Inactive)
REMARK    1  A    between atoms: C_1  and  N_2
REMARK    2  A    between atoms: N_2  and  C_3
REMARK    3  A    between atoms: C_7  and  C_8
REMARK    4  A    between atoms: N_14  and  C_15
REMARK    5  A    between atoms: C_19  and  C_20
REMARK    6  A    between atoms: C_20  and  O_21
REMARK    7  A    between atoms: O_21  and  C_22
REMARK    8  A    between atoms: N_26  and  C_27
REMARK                            x       y       z     vdW  Elec       q    Type
REMARK                         _______ _______ _______ _____ _____    ______ ____
ROOT
ATOM      1  C   UNL     1       0.652  11.797  19.372  0.00  0.00    +0.000 A 
ATOM      2  C   UNL     1       1.328  10.947  18.500  0.00  0.00    +0.000 A 
ATOM      3  C   UNL     1       1.552   9.646  18.895  0.00  0.00    +0.000 A 
ATOM      4  C   UNL     1       1.188   9.149  20.140  0.00  0.00    +0.000 A 
ATOM      5  C   UNL     1       0.591   9.988  21.070  0.00  0.00    +0.000 A 
ATOM      6  C   UNL     1       0.340  11.322  20.667  0.00  0.00    +0.000 A 
ATOM      7  C   UNL     1       1.557   7.703  20.204  0.00  0.00    +0.000 C 
ATOM      8  N   UNL     1       2.183   7.448  18.908  0.00  0.00    +0.000 N 
ATOM      9  C   UNL     1       2.189   8.591  18.113  0.00  0.00    +0.000 C 
ATOM     10  O   UNL     1       2.597   8.788  16.984  0.00  0.00    +0.000 OA
ENDROOT
BRANCH   8  11
ATOM     11  C   UNL     1       2.772   6.204  18.568  0.00  0.00    +0.000 A 
ATOM     12  C   UNL     1       2.265   4.988  19.027  0.00  0.00    +0.000 A 
ATOM     13  C   UNL     1       2.828   3.781  18.617  0.00  0.00    +0.000 A 
ATOM     14  C   UNL     1       3.892   3.770  17.716  0.00  0.00    +0.000 A 
ATOM     15  C   UNL     1       4.437   4.963  17.215  0.00  0.00    +0.000 A 
ATOM     16  C   UNL     1       3.875   6.165  17.708  0.00  0.00    +0.000 A 
BRANCH  15  17
ATOM     17  C   UNL     1       5.621   5.010  16.108  0.00  0.00    +0.000 C 
ATOM     18  C   UNL     1       5.062   5.133  14.639  0.00  0.00    +0.000 C 
ATOM     19  O   UNL     1       5.948   4.093  14.166  0.00  0.00    +0.000 OA
ATOM     20  C   UNL     1       6.142   3.649  15.534  0.00  0.00    +0.000 C 
BRANCH  17  21
ATOM     21  O   UNL     1       6.602   6.053  16.401  0.00  0.00    +0.000 OA
BRANCH  21  22
ATOM     22  C   UNL     1       7.193   5.928  17.583  0.00  0.00    +0.000 A 
ATOM     23  N   UNL     1       7.313   4.839  18.308  0.00  0.00    +0.000 NA
ATOM     24  N   UNL     1       8.031   5.161  19.439  0.00  0.00    +0.000 NA
ATOM     25  C   UNL     1       8.319   6.442  19.372  0.00  0.00    +0.000 A 
ATOM     26  N   UNL     1       7.811   6.962  18.222  0.00  0.00    +0.000 N 
ATOM     27  C   UNL     1       7.879   8.331  17.797  0.00  0.00    +0.000 C 
ENDBRANCH  21  22
ENDBRANCH  17  21
ENDBRANCH  15  17
ENDBRANCH   8  11
BRANCH   5  28
ATOM     28  C   UNL     1       0.203   9.536  22.451  0.00  0.00    +0.000 C 
ATOM     29  F   UNL     1       1.262   9.131  23.209  0.00  0.00    +0.000 F 
ATOM     30  F   UNL     1      -0.414  10.514  23.169  0.00  0.00    +0.000 F 
ATOM     31  F   UNL     1      -0.659   8.480  22.434  0.00  0.00    +0.000 F 
ENDBRANCH   5  28
BRANCH   1  33
ATOM     32  C   UNL     1       0.631  14.122  20.091  0.00  0.00    +0.000 C 
ATOM     33  N   UNL     1       0.386  13.135  19.044  0.00  0.00    +0.000 N 
ATOM     34  H   UNL     1       0.808  13.406  18.159  0.00  0.00    +0.000 HD
ENDBRANCH   1  33
TORSDOF 6
ENDMDL
MODEL 5
REMARK VINA RESULT:      -8.3      3.578      8.682
REMARK  Name = 
REMARK  8 active torsions:
REMARK  status: ('A' for Active; 'I' for Inactive)
REMARK    1  A    between atoms: C_1  and  N_2
REMARK    2  A    between atoms: N_2  and  C_3
REMARK    3  A    between atoms: C_7  and  C_8
REMARK    4  A    between atoms: N_14  and  C_15
REMARK    5  A    between atoms: C_19  and  C_20
REMARK    6  A    between atoms: C_20  and  O_21
REMARK    7  A    between atoms: O_21  and  C_22
REMARK    8  A    between atoms: N_26  and  C_27
REMARK                            x       y       z     vdW  Elec       q    Type
REMARK                         _______ _______ _______ _____ _____    ______ ____
ROOT
ATOM      1  C   UNL     1       4.752   4.456  16.547  0.00  0.00    +0.000 A 
ATOM      2  C   UNL     1       4.361   5.772  16.780  0.00  0.00    +0.000 A 
ATOM      3  C   UNL     1       3.544   6.033  17.859  0.00  0.00    +0.000 A 
ATOM      4  C   UNL     1       3.043   5.045  18.697  0.00  0.00    +0.000 A 
ATOM      5  C   UNL     1       3.337   3.712  18.447  0.00  0.00    +0.000 A 
ATOM      6  C   UNL     1       4.191   3.437  17.352  0.00  0.00    +0.000 A 
ATOM      7  C   UNL     1       2.226   5.695  19.767  0.00  0.00    +0.000 C 
ATOM      8  N   UNL     1       2.291   7.117  19.434  0.00  0.00    +0.000 N 
ATOM      9  C   UNL     1       3.070   7.340  18.303  0.00  0.00    +0.000 C 
ATOM     10  O   UNL     1       3.377   8.364  17.722  0.00  0.00    +0.000 OA
ENDROOT
BRANCH   8  11
ATOM     11  C   UNL     1       1.570   8.107  20.147  0.00  0.00    +0.000 A 
ATOM     12  C   UNL     1       1.240   7.966  21.495  0.00  0.00    +0.000 A 
ATOM     13  C   UNL     1       0.591   8.990  22.183  0.00  0.00    +0.000 A 
ATOM     14  C   UNL     1       0.286  10.188  21.537  0.00  0.00    +0.000 A 
ATOM     15  C   UNL     1       0.601  10.389  20.184  0.00  0.00    +0.000 A 
ATOM     16  C   UNL     1       1.202   9.298  19.511  0.00  0.00    +0.000 A 
BRANCH  15  17
ATOM     17  C   UNL     1       0.341  11.787  19.403  0.00  0.00    +0.000 C 
ATOM     18  C   UNL     1      -0.734  12.685  20.127  0.00  0.00    +0.000 C 
ATOM     19  O   UNL     1      -1.415  12.953  18.880  0.00  0.00    +0.000 OA
ATOM     20  C   UNL     1      -0.752  11.808  18.282  0.00  0.00    +0.000 C 
BRANCH  17  21
ATOM     21  O   UNL     1       1.584  12.518  19.166  0.00  0.00    +0.000 OA
BRANCH  21  22
ATOM     22  C   UNL     1       1.896  13.387  20.121  0.00  0.00    +0.000 A 
ATOM     23  N   UNL     1       2.341  13.125  21.329  0.00  0.00    +0.000 NA
ATOM     24  N   UNL     1       2.567  14.326  21.965  0.00  0.00    +0.000 NA
ATOM     25  C   UNL     1       2.243  15.284  21.126  0.00  0.00    +0.000 A 
ATOM     26  N   UNL     1       1.816  14.738  19.956  0.00  0.00    +0.000 N 
ATOM     27  C   UNL     1       1.339  15.447  18.802  0.00  0.00    +0.000 C 
ENDBRANCH  21  22
ENDBRANCH  17  21
ENDBRANCH  15  17
ENDBRANCH   8  11
BRANCH   5  28
ATOM     28  C   UNL     1       2.803   2.584  19.284  0.00  0.00    +0.000 C 
ATOM     29  F   UNL     1       3.224   2.621  20.580  0.00  0.00    +0.000 F 
ATOM     30  F   UNL     1       1.443   2.568  19.338  0.00  0.00    +0.000 F 
ATOM     31  F   UNL     1       3.175   1.360  18.814  0.00  0.00    +0.000 F 
ENDBRANCH   5  28
BRANCH   1  33
ATOM     32  C   UNL     1       6.912   4.707  15.456  0.00  0.00    +0.000 C 
ATOM     33  N   UNL     1       5.581   4.109  15.471  0.00  0.00    +0.000 N 
ATOM     34  H   UNL     1       5.612   3.105  15.316  0.00  0.00    +0.000 HD
ENDBRANCH   1  33
TORSDOF 6
ENDMDL
MODEL 6
REMARK VINA RESULT:      -8.3      3.313      8.556
REMARK  Name = 
REMARK  8 active torsions:
REMARK  status: ('A' for Active; 'I' for Inactive)
REMARK    1  A    between atoms: C_1  and  N_2
REMARK    2  A    between atoms: N_2  and  C_3
REMARK    3  A    between atoms: C_7  and  C_8
REMARK    4  A    between atoms: N_14  and  C_15
REMARK    5  A    between atoms: C_19  and  C_20
REMARK    6  A    between atoms: C_20  and  O_21
REMARK    7  A    between atoms: O_21  and  C_22
REMARK    8  A    between atoms: N_26  and  C_27
REMARK                            x       y       z     vdW  Elec       q    Type
REMARK                         _______ _______ _______ _____ _____    ______ ____
ROOT
ATOM      1  C   UNL     1       3.924   4.763  17.477  0.00  0.00    +0.000 A 
ATOM      2  C   UNL     1       3.531   6.090  17.633  0.00  0.00    +0.000 A 
ATOM      3  C   UNL     1       2.756   6.420  18.725  0.00  0.00    +0.000 A 
ATOM      4  C   UNL     1       2.300   5.491  19.650  0.00  0.00    +0.000 A 
ATOM      5  C   UNL     1       2.595   4.146  19.480  0.00  0.00    +0.000 A 
ATOM      6  C   UNL     1       3.406   3.799  18.373  0.00  0.00    +0.000 A 
ATOM      7  C   UNL     1       1.521   6.209  20.705  0.00  0.00    +0.000 C 
ATOM      8  N   UNL     1       1.559   7.604  20.271  0.00  0.00    +0.000 N 
ATOM      9  C   UNL     1       2.290   7.752  19.096  0.00  0.00    +0.000 C 
ATOM     10  O   UNL     1       2.563   8.735  18.433  0.00  0.00    +0.000 OA
ENDROOT
BRANCH   8  11
ATOM     11  C   UNL     1       0.859   8.638  20.943  0.00  0.00    +0.000 A 
ATOM     12  C   UNL     1       0.730   8.672  22.332  0.00  0.00    +0.000 A 
ATOM     13  C   UNL     1       0.095   9.741  22.963  0.00  0.00    +0.000 A 
ATOM     14  C   UNL     1      -0.399  10.808  22.214  0.00  0.00    +0.000 A 
ATOM     15  C   UNL     1      -0.290  10.830  20.814  0.00  0.00    +0.000 A 
ATOM     16  C   UNL     1       0.306   9.696  20.213  0.00  0.00    +0.000 A 
BRANCH  15  17
ATOM     17  C   UNL     1      -0.775  12.079  19.900  0.00  0.00    +0.000 C 
ATOM     18  C   UNL     1      -2.330  12.060  19.638  0.00  0.00    +0.000 C 
ATOM     19  O   UNL     1      -2.141  12.323  18.229  0.00  0.00    +0.000 OA
ATOM     20  C   UNL     1      -0.757  11.899  18.344  0.00  0.00    +0.000 C 
BRANCH  17  21
ATOM     21  O   UNL     1      -0.336  13.360  20.449  0.00  0.00    +0.000 OA
BRANCH  21  22
ATOM     22  C   UNL     1       0.819  13.795  19.960  0.00  0.00    +0.000 A 
ATOM     23  N   UNL     1       2.015  13.286  20.153  0.00  0.00    +0.000 NA
ATOM     24  N   UNL     1       2.915  14.033  19.425  0.00  0.00    +0.000 NA
ATOM     25  C   UNL     1       2.240  14.982  18.817  0.00  0.00    +0.000 A 
ATOM     26  N   UNL     1       0.920  14.870  19.126  0.00  0.00    +0.000 N 
ATOM     27  C   UNL     1      -0.139  15.737  18.693  0.00  0.00    +0.000 C 
ENDBRANCH  21  22
ENDBRANCH  17  21
ENDBRANCH  15  17
ENDBRANCH   8  11
BRANCH   5  28
ATOM     28  C   UNL     1       2.105   3.075  20.416  0.00  0.00    +0.000 C 
ATOM     29  F   UNL     1       2.795   3.022  21.591  0.00  0.00    +0.000 F 
ATOM     30  F   UNL     1       0.798   3.237  20.760  0.00  0.00    +0.000 F 
ATOM     31  F   UNL     1       2.201   1.825  19.880  0.00  0.00    +0.000 F 
ENDBRANCH   5  28
BRANCH   1  33
ATOM     32  C   UNL     1       5.370   5.400  15.627  0.00  0.00    +0.000 C 
ATOM     33  N   UNL     1       4.711   4.347  16.393  0.00  0.00    +0.000 N 
ATOM     34  H   UNL     1       5.354   3.602  16.648  0.00  0.00    +0.000 HD
ENDBRANCH   1  33
TORSDOF 6
ENDMDL
MODEL 7
REMARK VINA RESULT:      -8.3      3.554      8.549
REMARK  Name = 
REMARK  8 active torsions:
REMARK  status: ('A' for Active; 'I' for Inactive)
REMARK    1  A    between atoms: C_1  and  N_2
REMARK    2  A    between atoms: N_2  and  C_3
REMARK    3  A    between atoms: C_7  and  C_8
REMARK    4  A    between atoms: N_14  and  C_15
REMARK    5  A    between atoms: C_19  and  C_20
REMARK    6  A    between atoms: C_20  and  O_21
REMARK    7  A    between atoms: O_21  and  C_22
REMARK    8  A    between atoms: N_26  and  C_27
REMARK                            x       y       z     vdW  Elec       q    Type
REMARK                         _______ _______ _______ _____ _____    ______ ____
ROOT
ATOM      1  C   UNL     1       3.762   4.703  17.669  0.00  0.00    +0.000 A 
ATOM      2  C   UNL     1       3.391   6.044  17.741  0.00  0.00    +0.000 A 
ATOM      3  C   UNL     1       2.651   6.462  18.826  0.00  0.00    +0.000 A 
ATOM      4  C   UNL     1       2.207   5.608  19.827  0.00  0.00    +0.000 A 
ATOM      5  C   UNL     1       2.480   4.250  19.746  0.00  0.00    +0.000 A 
ATOM      6  C   UNL     1       3.255   3.813  18.645  0.00  0.00    +0.000 A 
ATOM      7  C   UNL     1       1.468   6.411  20.848  0.00  0.00    +0.000 C 
ATOM      8  N   UNL     1       1.512   7.771  20.315  0.00  0.00    +0.000 N 
ATOM      9  C   UNL     1       2.212   7.824  19.114  0.00  0.00    +0.000 C 
ATOM     10  O   UNL     1       2.480   8.754  18.375  0.00  0.00    +0.000 OA
ENDROOT
BRANCH   8  11
ATOM     11  C   UNL     1       0.845   8.860  20.930  0.00  0.00    +0.000 A 
ATOM     12  C   UNL     1       0.376   8.804  22.242  0.00  0.00    +0.000 A 
ATOM     13  C   UNL     1      -0.214   9.919  22.837  0.00  0.00    +0.000 A 
ATOM     14  C   UNL     1      -0.320  11.119  22.135  0.00  0.00    +0.000 A 
ATOM     15  C   UNL     1       0.142  11.235  20.814  0.00  0.00    +0.000 A 
ATOM     16  C   UNL     1       0.676  10.061  20.231  0.00  0.00    +0.000 A 
BRANCH  15  17
ATOM     17  C   UNL     1       0.117  12.624  19.977  0.00  0.00    +0.000 C 
ATOM     18  C   UNL     1      -1.210  12.796  19.144  0.00  0.00    +0.000 C 
ATOM     19  O   UNL     1      -0.473  13.199  17.968  0.00  0.00    +0.000 OA
ATOM     20  C   UNL     1       0.733  12.624  18.538  0.00  0.00    +0.000 C 
BRANCH  17  21
ATOM     21  O   UNL     1       0.370  13.781  20.834  0.00  0.00    +0.000 OA
BRANCH  21  22
ATOM     22  C   UNL     1       1.645  14.146  20.893  0.00  0.00    +0.000 A 
ATOM     23  N   UNL     1       2.629  13.528  21.507  0.00  0.00    +0.000 NA
ATOM     24  N   UNL     1       3.786  14.239  21.273  0.00  0.00    +0.000 NA
ATOM     25  C   UNL     1       3.469  15.275  20.529  0.00  0.00    +0.000 A 
ATOM     26  N   UNL     1       2.134  15.255  20.267  0.00  0.00    +0.000 N 
ATOM     27  C   UNL     1       1.392  16.230  19.520  0.00  0.00    +0.000 C 
ENDBRANCH  21  22
ENDBRANCH  17  21
ENDBRANCH  15  17
ENDBRANCH   8  11
BRANCH   5  28
ATOM     28  C   UNL     1       2.002   3.256  20.768  0.00  0.00    +0.000 C 
ATOM     29  F   UNL     1       0.644   3.146  20.828  0.00  0.00    +0.000 F 
ATOM     30  F   UNL     1       2.466   1.998  20.534  0.00  0.00    +0.000 F 
ATOM     31  F   UNL     1       2.398   3.573  22.034  0.00  0.00    +0.000 F 
ENDBRANCH   5  28
BRANCH   1  33
ATOM     32  C   UNL     1       5.380   5.150  15.908  0.00  0.00    +0.000 C 
ATOM     33  N   UNL     1       4.513   4.200  16.598  0.00  0.00    +0.000 N 
ATOM     34  H   UNL     1       5.004   3.343  16.841  0.00  0.00    +0.000 HD
ENDBRANCH   1  33
TORSDOF 6
ENDMDL
MODEL 8
REMARK VINA RESULT:      -8.3      4.056      8.785
REMARK  Name = 
REMARK  8 active torsions:
REMARK  status: ('A' for Active; 'I' for Inactive)
REMARK    1  A    between atoms: C_1  and  N_2
REMARK    2  A    between atoms: N_2  and  C_3
REMARK    3  A    between atoms: C_7  and  C_8
REMARK    4  A    between atoms: N_14  and  C_15
REMARK    5  A    between atoms: C_19  and  C_20
REMARK    6  A    between atoms: C_20  and  O_21
REMARK    7  A    between atoms: O_21  and  C_22
REMARK    8  A    between atoms: N_26  and  C_27
REMARK                            x       y       z     vdW  Elec       q    Type
REMARK                         _______ _______ _______ _____ _____    ______ ____
ROOT
ATOM      1  C   UNL     1       3.811   3.250  17.809  0.00  0.00    +0.000 A 
ATOM      2  C   UNL     1       2.976   3.817  18.770  0.00  0.00    +0.000 A 
ATOM      3  C   UNL     1       2.841   5.189  18.793  0.00  0.00    +0.000 A 
ATOM      4  C   UNL     1       3.535   6.041  17.945  0.00  0.00    +0.000 A 
ATOM      5  C   UNL     1       4.443   5.521  17.033  0.00  0.00    +0.000 A 
ATOM      6  C   UNL     1       4.574   4.112  16.989  0.00  0.00    +0.000 A 
ATOM      7  C   UNL     1       3.117   7.447  18.234  0.00  0.00    +0.000 C 
ATOM      8  N   UNL     1       2.161   7.304  19.330  0.00  0.00    +0.000 N 
ATOM      9  C   UNL     1       1.981   5.968  19.677  0.00  0.00    +0.000 C 
ATOM     10  O   UNL     1       1.274   5.439  20.514  0.00  0.00    +0.000 OA
ENDROOT
BRANCH   8  11
ATOM     11  C   UNL     1       1.572   8.413  19.988  0.00  0.00    +0.000 A 
ATOM     12  C   UNL     1       1.270   8.400  21.350  0.00  0.00    +0.000 A 
ATOM     13  C   UNL     1       0.756   9.534  21.977  0.00  0.00    +0.000 A 
ATOM     14  C   UNL     1       0.561  10.711  21.255  0.00  0.00    +0.000 A 
ATOM     15  C   UNL     1       0.854  10.783  19.884  0.00  0.00    +0.000 A 
ATOM     16  C   UNL     1       1.314   9.591  19.277  0.00  0.00    +0.000 A 
BRANCH  15  17
ATOM     17  C   UNL     1       0.720  12.144  19.012  0.00  0.00    +0.000 C 
ATOM     18  C   UNL     1       2.108  12.630  18.445  0.00  0.00    +0.000 C 
ATOM     19  O   UNL     1       1.853  13.991  18.860  0.00  0.00    +0.000 OA
ATOM     20  C   UNL     1       0.826  13.512  19.768  0.00  0.00    +0.000 C 
BRANCH  17  21
ATOM     21  O   UNL     1      -0.281  12.019  17.955  0.00  0.00    +0.000 OA
BRANCH  21  22
ATOM     22  C   UNL     1      -1.533  11.967  18.393  0.00  0.00    +0.000 A 
ATOM     23  N   UNL     1      -2.033  12.544  19.463  0.00  0.00    +0.000 NA
ATOM     24  N   UNL     1      -3.379  12.253  19.510  0.00  0.00    +0.000 NA
ATOM     25  C   UNL     1      -3.656  11.500  18.470  0.00  0.00    +0.000 A 
ATOM     26  N   UNL     1      -2.525  11.296  17.742  0.00  0.00    +0.000 N 
ATOM     27  C   UNL     1      -2.402  10.498  16.555  0.00  0.00    +0.000 C 
ENDBRANCH  21  22
ENDBRANCH  17  21
ENDBRANCH  15  17
ENDBRANCH   8  11
BRANCH   5  28
ATOM     28  C   UNL     1       5.259   6.381  16.109  0.00  0.00    +0.000 C 
ATOM     29  F   UNL     1       4.509   7.234  15.354  0.00  0.00    +0.000 F 
ATOM     30  F   UNL     1       6.155   7.162  16.772  0.00  0.00    +0.000 F 
ATOM     31  F   UNL     1       5.987   5.649  15.218  0.00  0.00    +0.000 F 
ENDBRANCH   5  28
BRANCH   1  33
ATOM     32  C   UNL     1       3.991   1.124  18.979  0.00  0.00    +0.000 C 
ATOM     33  N   UNL     1       4.002   1.863  17.721  0.00  0.00    +0.000 N 
ATOM     34  H   UNL     1       3.400   1.435  17.022  0.00  0.00    +0.000 HD
ENDBRANCH   1  33
TORSDOF 6
ENDMDL
MODEL 9
REMARK VINA RESULT:      -8.3      3.144      8.454
REMARK  Name = 
REMARK  8 active torsions:
REMARK  status: ('A' for Active; 'I' for Inactive)
REMARK    1  A    between atoms: C_1  and  N_2
REMARK    2  A    between atoms: N_2  and  C_3
REMARK    3  A    between atoms: C_7  and  C_8
REMARK    4  A    between atoms: N_14  and  C_15
REMARK    5  A    between atoms: C_19  and  C_20
REMARK    6  A    between atoms: C_20  and  O_21
REMARK    7  A    between atoms: O_21  and  C_22
REMARK    8  A    between atoms: N_26  and  C_27
REMARK                            x       y       z     vdW  Elec       q    Type
REMARK                         _______ _______ _______ _____ _____    ______ ____
ROOT
ATOM      1  C   UNL     1       3.858   4.677  17.589  0.00  0.00    +0.000 A 
ATOM      2  C   UNL     1       3.488   6.018  17.661  0.00  0.00    +0.000 A 
ATOM      3  C   UNL     1       2.738   6.433  18.740  0.00  0.00    +0.000 A 
ATOM      4  C   UNL     1       2.284   5.577  19.734  0.00  0.00    +0.000 A 
ATOM      5  C   UNL     1       2.556   4.218  19.652  0.00  0.00    +0.000 A 
ATOM      6  C   UNL     1       3.342   3.784  18.557  0.00  0.00    +0.000 A 
ATOM      7  C   UNL     1       1.535   6.377  20.750  0.00  0.00    +0.000 C 
ATOM      8  N   UNL     1       1.586   7.739  20.222  0.00  0.00    +0.000 N 
ATOM      9  C   UNL     1       2.298   7.795  19.027  0.00  0.00    +0.000 C 
ATOM     10  O   UNL     1       2.573   8.726  18.294  0.00  0.00    +0.000 OA
ENDROOT
BRANCH   8  11
ATOM     11  C   UNL     1       0.913   8.827  20.833  0.00  0.00    +0.000 A 
ATOM     12  C   UNL     1       0.354   8.738  22.108  0.00  0.00    +0.000 A 
ATOM     13  C   UNL     1      -0.239   9.849  22.706  0.00  0.00    +0.000 A 
ATOM     14  C   UNL     1      -0.257  11.077  22.047  0.00  0.00    +0.000 A 
ATOM     15  C   UNL     1       0.297  11.227  20.766  0.00  0.00    +0.000 A 
ATOM     16  C   UNL     1       0.832  10.058  20.173  0.00  0.00    +0.000 A 
BRANCH  15  17
ATOM     17  C   UNL     1       0.374  12.646  19.985  0.00  0.00    +0.000 C 
ATOM     18  C   UNL     1       1.858  13.089  19.693  0.00  0.00    +0.000 C 
ATOM     19  O   UNL     1       1.596  14.433  20.158  0.00  0.00    +0.000 OA
ATOM     20  C   UNL     1       0.410  13.955  20.845  0.00  0.00    +0.000 C 
BRANCH  17  21
ATOM     21  O   UNL     1      -0.438  12.645  18.769  0.00  0.00    +0.000 OA
BRANCH  21  22
ATOM     22  C   UNL     1      -1.726  12.394  18.974  0.00  0.00    +0.000 A 
ATOM     23  N   UNL     1      -2.534  12.991  19.821  0.00  0.00    +0.000 NA
ATOM     24  N   UNL     1      -3.787  12.438  19.670  0.00  0.00    +0.000 NA
ATOM     25  C   UNL     1      -3.701  11.513  18.741  0.00  0.00    +0.000 A 
ATOM     26  N   UNL     1      -2.423  11.452  18.277  0.00  0.00    +0.000 N 
ATOM     27  C   UNL     1      -1.913  10.548  17.287  0.00  0.00    +0.000 C 
ENDBRANCH  21  22
ENDBRANCH  17  21
ENDBRANCH  15  17
ENDBRANCH   8  11
BRANCH   5  28
ATOM     28  C   UNL     1       2.068   3.222  20.666  0.00  0.00    +0.000 C 
ATOM     29  F   UNL     1       2.673   3.343  21.883  0.00  0.00    +0.000 F 
ATOM     30  F   UNL     1       0.732   3.328  20.905  0.00  0.00    +0.000 F 
ATOM     31  F   UNL     1       2.280   1.932  20.280  0.00  0.00    +0.000 F 
ENDBRANCH   5  28
BRANCH   1  33
ATOM     32  C   UNL     1       5.317   5.161  15.702  0.00  0.00    +0.000 C 
ATOM     33  N   UNL     1       4.620   4.176  16.523  0.00  0.00    +0.000 N 
ATOM     34  H   UNL     1       5.233   3.418  16.811  0.00  0.00    +0.000 HD
ENDBRANCH   1  33
TORSDOF 6
ENDMDL
