MODEL 1
REMARK VINA RESULT:      -8.3      0.000      0.000
REMARK  Name = 
REMARK  4 active torsions:
REMARK  status: ('A' for Active; 'I' for Inactive)
REMARK    1  A    between atoms: C_1  and  C_2
REMARK    2  A    between atoms: C_2  and  N_3
REMARK    3  A    between atoms: C_2  and  C_20
REMARK    4  A    between atoms: C_4  and  C_6
REMARK                            x       y       z     vdW  Elec       q    Type
REMARK                         _______ _______ _______ _____ _____    ______ ____
ROOT
ATOM      1  C   UNL     1       2.172   8.516  18.548  0.00  0.00    +0.000 A 
ATOM      2  C   UNL     1       3.119   8.035  17.618  0.00  0.00    +0.000 A 
ATOM      3  C   UNL     1       3.635   6.744  17.701  0.00  0.00    +0.000 A 
ATOM      4  C   UNL     1       3.225   5.911  18.741  0.00  0.00    +0.000 A 
ATOM      5  C   UNL     1       3.484   4.461  18.643  0.00  0.00    +0.000 A 
ATOM      6  O   UNL     1       4.234   3.973  17.808  0.00  0.00    +0.000 OA
ATOM      7  N   UNL     1       2.756   3.736  19.538  0.00  0.00    +0.000 N 
ATOM      8  C   UNL     1       2.325   4.291  20.741  0.00  0.00    +0.000 A 
ATOM      9  N   UNL     1       2.116   5.550  20.908  0.00  0.00    +0.000 NA
ATOM     10  C   UNL     1       2.396   6.383  19.772  0.00  0.00    +0.000 A 
ATOM     11  C   UNL     1       1.838   7.681  19.641  0.00  0.00    +0.000 A 
ATOM     12  C   UNL     1       2.097   3.109  21.657  0.00  0.00    +0.000 C 
ATOM     13  C   UNL     1       1.404   2.219  20.628  0.00  0.00    +0.000 C 
ATOM     14  C   UNL     1       2.384   2.344  19.458  0.00  0.00    +0.000 C 
ENDROOT
BRANCH   1  16
ATOM     15  N   UNL     1       0.480  10.350  18.931  0.00  0.00    +0.000 N 
ATOM     16  C   UNL     1       1.616   9.906  18.265  0.00  0.00    +0.000 C 
ATOM     17  O   UNL     1       2.189  10.612  17.427  0.00  0.00    +0.000 OA
ATOM     18  H   UNL     1      -0.100   9.668  19.403  0.00  0.00    +0.000 HD
BRANCH  15  20
ATOM     19  C   UNL     1       0.494  12.760  19.576  0.00  0.00    +0.000 C 
ATOM     20  C   UNL     1      -0.129  11.681  18.674  0.00  0.00    +0.000 C 
BRANCH  20  21
ATOM     21  C   UNL     1      -1.656  11.719  18.867  0.00  0.00    +0.000 A 
ATOM     22  C   UNL     1      -2.242  12.531  19.859  0.00  0.00    +0.000 A 
ATOM     23  C   UNL     1      -3.630  12.646  19.994  0.00  0.00    +0.000 A 
ATOM     24  C   UNL     1      -4.485  11.981  19.113  0.00  0.00    +0.000 A 
ATOM     25  C   UNL     1      -3.939  11.188  18.110  0.00  0.00    +0.000 A 
ATOM     26  C   UNL     1      -2.543  11.047  17.993  0.00  0.00    +0.000 A 
ATOM     27 CL   UNL     1      -1.986  10.027  16.711  0.00  0.00    +0.000 Cl
ENDBRANCH  20  21
ENDBRANCH  15  20
ENDBRANCH   1  16
TORSDOF 3
ENDMDL
MODEL 2
REMARK VINA RESULT:      -8.3      3.063      8.615
REMARK  Name = 
REMARK  4 active torsions:
REMARK  status: ('A' for Active; 'I' for Inactive)
REMARK    1  A    between atoms: C_1  and  C_2
REMARK    2  A    between atoms: C_2  and  N_3
REMARK    3  A    between atoms: C_2  and  C_20
REMARK    4  A    between atoms: C_4  and  C_6
REMARK                            x       y       z     vdW  Elec       q    Type
REMARK                         _______ _______ _______ _____ _____    ______ ____
ROOT
ATOM      1  C   UNL     1       1.522   9.014  19.430  0.00  0.00    +0.000 A 
ATOM      2  C   UNL     1       1.427   8.524  20.750  0.00  0.00    +0.000 A 
ATOM      3  C   UNL     1       0.740   9.220  21.741  0.00  0.00    +0.000 A 
ATOM      4  C   UNL     1       0.149  10.445  21.431  0.00  0.00    +0.000 A 
ATOM      5  C   UNL     1      -0.858  11.009  22.350  0.00  0.00    +0.000 A 
ATOM      6  O   UNL     1      -1.044  10.578  23.481  0.00  0.00    +0.000 OA
ATOM      7  N   UNL     1      -1.586  12.012  21.782  0.00  0.00    +0.000 N 
ATOM      8  C   UNL     1      -1.065  12.789  20.750  0.00  0.00    +0.000 A 
ATOM      9  N   UNL     1      -0.159  12.375  19.935  0.00  0.00    +0.000 NA
ATOM     10  C   UNL     1       0.331  11.046  20.175  0.00  0.00    +0.000 A 
ATOM     11  C   UNL     1       0.987  10.298  19.163  0.00  0.00    +0.000 A 
ATOM     12  C   UNL     1      -1.859  14.076  20.793  0.00  0.00    +0.000 C 
ATOM     13  C   UNL     1      -3.227  13.433  21.008  0.00  0.00    +0.000 C 
ATOM     14  C   UNL     1      -2.899  12.476  22.157  0.00  0.00    +0.000 C 
ENDROOT
BRANCH   1  16
ATOM     15  N   UNL     1       2.548   6.795  18.802  0.00  0.00    +0.000 N 
ATOM     16  C   UNL     1       2.209   8.092  18.431  0.00  0.00    +0.000 C 
ATOM     17  O   UNL     1       2.465   8.527  17.303  0.00  0.00    +0.000 OA
ATOM     18  H   UNL     1       2.561   6.563  19.786  0.00  0.00    +0.000 HD
BRANCH  15  20
ATOM     19  C   UNL     1       2.762   4.414  18.086  0.00  0.00    +0.000 C 
ATOM     20  C   UNL     1       3.249   5.859  17.885  0.00  0.00    +0.000 C 
BRANCH  20  21
ATOM     21  C   UNL     1       4.781   5.872  18.027  0.00  0.00    +0.000 A 
ATOM     22  C   UNL     1       5.403   5.441  19.217  0.00  0.00    +0.000 A 
ATOM     23  C   UNL     1       6.795   5.363  19.337  0.00  0.00    +0.000 A 
ATOM     24  C   UNL     1       7.618   5.677  18.253  0.00  0.00    +0.000 A 
ATOM     25  C   UNL     1       7.036   6.085  17.058  0.00  0.00    +0.000 A 
ATOM     26  C   UNL     1       5.637   6.194  16.947  0.00  0.00    +0.000 A 
ATOM     27 CL   UNL     1       5.033   6.720  15.413  0.00  0.00    +0.000 Cl
ENDBRANCH  20  21
ENDBRANCH  15  20
ENDBRANCH   1  16
TORSDOF 3
ENDMDL
MODEL 3
REMARK VINA RESULT:      -8.2      1.094      1.449
REMARK  Name = 
REMARK  4 active torsions:
REMARK  status: ('A' for Active; 'I' for Inactive)
REMARK    1  A    between atoms: C_1  and  C_2
REMARK    2  A    between atoms: C_2  and  N_3
REMARK    3  A    between atoms: C_2  and  C_20
REMARK    4  A    between atoms: C_4  and  C_6
REMARK                            x       y       z     vdW  Elec       q    Type
REMARK                         _______ _______ _______ _____ _____    ______ ____
ROOT
ATOM      1  C   UNL     1       1.229   9.466  19.003  0.00  0.00    +0.000 A 
ATOM      2  C   UNL     1       2.078   9.201  17.907  0.00  0.00    +0.000 A 
ATOM      3  C   UNL     1       2.737   7.982  17.772  0.00  0.00    +0.000 A 
ATOM      4  C   UNL     1       2.574   7.004  18.753  0.00  0.00    +0.000 A 
ATOM      5  C   UNL     1       2.970   5.614  18.453  0.00  0.00    +0.000 A 
ATOM      6  O   UNL     1       3.640   5.308  17.476  0.00  0.00    +0.000 OA
ATOM      7  N   UNL     1       2.462   4.718  19.346  0.00  0.00    +0.000 N 
ATOM      8  C   UNL     1       2.152   5.093  20.651  0.00  0.00    +0.000 A 
ATOM      9  N   UNL     1       1.834   6.294  20.990  0.00  0.00    +0.000 NA
ATOM     10  C   UNL     1       1.856   7.264  19.931  0.00  0.00    +0.000 A 
ATOM     11  C   UNL     1       1.148   8.491  20.027  0.00  0.00    +0.000 A 
ATOM     12  C   UNL     1       2.186   3.806  21.445  0.00  0.00    +0.000 C 
ATOM     13  C   UNL     1       1.453   2.946  20.419  0.00  0.00    +0.000 C 
ATOM     14  C   UNL     1       2.234   3.307  19.153  0.00  0.00    +0.000 C 
ENDROOT
BRANCH   1  16
ATOM     15  N   UNL     1      -0.884  10.839  19.156  0.00  0.00    +0.000 N 
ATOM     16  C   UNL     1       0.492  10.799  18.960  0.00  0.00    +0.000 C 
ATOM     17  O   UNL     1       1.140  11.826  18.733  0.00  0.00    +0.000 OA
ATOM     18  H   UNL     1      -1.408   9.977  19.081  0.00  0.00    +0.000 HD
BRANCH  15  20
ATOM     19  C   UNL     1      -1.622  12.850  20.436  0.00  0.00    +0.000 C 
ATOM     20  C   UNL     1      -1.664  12.102  19.092  0.00  0.00    +0.000 C 
BRANCH  20  21
ATOM     21  C   UNL     1      -3.140  11.908  18.699  0.00  0.00    +0.000 A 
ATOM     22  C   UNL     1      -4.179  12.358  19.537  0.00  0.00    +0.000 A 
ATOM     23  C   UNL     1      -5.524  12.270  19.159  0.00  0.00    +0.000 A 
ATOM     24  C   UNL     1      -5.875  11.761  17.907  0.00  0.00    +0.000 A 
ATOM     25  C   UNL     1      -4.872  11.328  17.047  0.00  0.00    +0.000 A 
ATOM     26  C   UNL     1      -3.522  11.388  17.439  0.00  0.00    +0.000 A 
ATOM     27 CL   UNL     1      -2.367  10.811  16.286  0.00  0.00    +0.000 Cl
ENDBRANCH  20  21
ENDBRANCH  15  20
ENDBRANCH   1  16
TORSDOF 3
ENDMDL
MODEL 4
REMARK VINA RESULT:      -8.0      2.917      8.441
REMARK  Name = 
REMARK  4 active torsions:
REMARK  status: ('A' for Active; 'I' for Inactive)
REMARK    1  A    between atoms: C_1  and  C_2
REMARK    2  A    between atoms: C_2  and  N_3
REMARK    3  A    between atoms: C_2  and  C_20
REMARK    4  A    between atoms: C_4  and  C_6
REMARK                            x       y       z     vdW  Elec       q    Type
REMARK                         _______ _______ _______ _____ _____    ______ ____
ROOT
ATOM      1  C   UNL     1       0.879   9.366  18.951  0.00  0.00    +0.000 A 
ATOM      2  C   UNL     1       0.924  10.396  19.916  0.00  0.00    +0.000 A 
ATOM      3  C   UNL     1      -0.068  11.370  19.993  0.00  0.00    +0.000 A 
ATOM      4  C   UNL     1      -1.122  11.344  19.081  0.00  0.00    +0.000 A 
ATOM      5  C   UNL     1      -2.336  12.135  19.364  0.00  0.00    +0.000 A 
ATOM      6  O   UNL     1      -2.385  12.989  20.239  0.00  0.00    +0.000 OA
ATOM      7  N   UNL     1      -3.395  11.769  18.588  0.00  0.00    +0.000 N 
ATOM      8  C   UNL     1      -3.209  11.196  17.332  0.00  0.00    +0.000 A 
ATOM      9  N   UNL     1      -2.160  10.526  17.005  0.00  0.00    +0.000 NA
ATOM     10  C   UNL     1      -1.144  10.429  18.015  0.00  0.00    +0.000 A 
ATOM     11  C   UNL     1      -0.155   9.412  17.985  0.00  0.00    +0.000 A 
ATOM     12  C   UNL     1      -4.497  11.467  16.585  0.00  0.00    +0.000 C 
ATOM     13  C   UNL     1      -5.443  11.137  17.738  0.00  0.00    +0.000 C 
ATOM     14  C   UNL     1      -4.799  11.957  18.860  0.00  0.00    +0.000 C 
ENDROOT
BRANCH   1  16
ATOM     15  N   UNL     1       2.666   7.909  17.925  0.00  0.00    +0.000 N 
ATOM     16  C   UNL     1       1.973   8.312  19.060  0.00  0.00    +0.000 C 
ATOM     17  O   UNL     1       2.213   7.821  20.169  0.00  0.00    +0.000 OA
ATOM     18  H   UNL     1       2.277   8.132  17.018  0.00  0.00    +0.000 HD
BRANCH  15  20
ATOM     19  C   UNL     1       4.549   6.862  16.665  0.00  0.00    +0.000 C 
ATOM     20  C   UNL     1       3.720   6.862  17.960  0.00  0.00    +0.000 C 
BRANCH  20  21
ATOM     21  C   UNL     1       3.180   5.437  18.182  0.00  0.00    +0.000 A 
ATOM     22  C   UNL     1       1.873   5.087  17.788  0.00  0.00    +0.000 A 
ATOM     23  C   UNL     1       1.392   3.777  17.901  0.00  0.00    +0.000 A 
ATOM     24  C   UNL     1       2.220   2.759  18.379  0.00  0.00    +0.000 A 
ATOM     25  C   UNL     1       3.522   3.067  18.757  0.00  0.00    +0.000 A 
ATOM     26  C   UNL     1       3.995   4.390  18.672  0.00  0.00    +0.000 A 
ATOM     27 CL   UNL     1       5.629   4.648  19.180  0.00  0.00    +0.000 Cl
ENDBRANCH  20  21
ENDBRANCH  15  20
ENDBRANCH   1  16
TORSDOF 3
ENDMDL
MODEL 5
REMARK VINA RESULT:      -7.9      3.165      8.495
REMARK  Name = 
REMARK  4 active torsions:
REMARK  status: ('A' for Active; 'I' for Inactive)
REMARK    1  A    between atoms: C_1  and  C_2
REMARK    2  A    between atoms: C_2  and  N_3
REMARK    3  A    between atoms: C_2  and  C_20
REMARK    4  A    between atoms: C_4  and  C_6
REMARK                            x       y       z     vdW  Elec       q    Type
REMARK                         _______ _______ _______ _____ _____    ______ ____
ROOT
ATOM      1  C   UNL     1       2.216   7.504  19.419  0.00  0.00    +0.000 A 
ATOM      2  C   UNL     1       2.069   8.237  18.222  0.00  0.00    +0.000 A 
ATOM      3  C   UNL     1       1.294   9.393  18.163  0.00  0.00    +0.000 A 
ATOM      4  C   UNL     1       0.628   9.828  19.309  0.00  0.00    +0.000 A 
ATOM      5  C   UNL     1       0.106  11.208  19.355  0.00  0.00    +0.000 A 
ATOM      6  O   UNL     1       0.025  11.923  18.365  0.00  0.00    +0.000 OA
ATOM      7  N   UNL     1      -0.214  11.607  20.618  0.00  0.00    +0.000 N 
ATOM      8  C   UNL     1      -0.580  10.686  21.597  0.00  0.00    +0.000 A 
ATOM      9  N   UNL     1      -0.193   9.458  21.599  0.00  0.00    +0.000 NA
ATOM     10  C   UNL     1       0.626   9.064  20.487  0.00  0.00    +0.000 A 
ATOM     11  C   UNL     1       1.463   7.919  20.544  0.00  0.00    +0.000 A 
ATOM     12  C   UNL     1      -1.384  11.483  22.601  0.00  0.00    +0.000 C 
ATOM     13  C   UNL     1      -0.470  12.706  22.628  0.00  0.00    +0.000 C 
ATOM     14  C   UNL     1      -0.305  12.954  21.126  0.00  0.00    +0.000 C 
ENDROOT
BRANCH   1  16
ATOM     15  N   UNL     1       4.385   6.450  18.673  0.00  0.00    +0.000 N 
ATOM     16  C   UNL     1       3.181   6.327  19.357  0.00  0.00    +0.000 C 
ATOM     17  O   UNL     1       2.860   5.270  19.911  0.00  0.00    +0.000 OA
ATOM     18  H   UNL     1       4.497   7.220  18.028  0.00  0.00    +0.000 HD
BRANCH  15  20
ATOM     19  C   UNL     1       6.671   5.648  19.272  0.00  0.00    +0.000 C 
ATOM     20  C   UNL     1       5.352   5.328  18.549  0.00  0.00    +0.000 C 
BRANCH  20  21
ATOM     21  C   UNL     1       5.684   4.946  17.095  0.00  0.00    +0.000 A 
ATOM     22  C   UNL     1       6.910   5.319  16.509  0.00  0.00    +0.000 A 
ATOM     23  C   UNL     1       7.268   4.908  15.220  0.00  0.00    +0.000 A 
ATOM     24  C   UNL     1       6.425   4.075  14.483  0.00  0.00    +0.000 A 
ATOM     25  C   UNL     1       5.217   3.671  15.040  0.00  0.00    +0.000 A 
ATOM     26  C   UNL     1       4.842   4.109  16.325  0.00  0.00    +0.000 A 
ATOM     27 CL   UNL     1       3.313   3.546  16.905  0.00  0.00    +0.000 Cl
ENDBRANCH  20  21
ENDBRANCH  15  20
ENDBRANCH   1  16
TORSDOF 3
ENDMDL
MODEL 6
REMARK VINA RESULT:      -7.9      3.160      8.724
REMARK  Name = 
REMARK  4 active torsions:
REMARK  status: ('A' for Active; 'I' for Inactive)
REMARK    1  A    between atoms: C_1  and  C_2
REMARK    2  A    between atoms: C_2  and  N_3
REMARK    3  A    between atoms: C_2  and  C_20
REMARK    4  A    between atoms: C_4  and  C_6
REMARK                            x       y       z     vdW  Elec       q    Type
REMARK                         _______ _______ _______ _____ _____    ______ ____
ROOT
ATOM      1  C   UNL     1       1.803   8.097  19.792  0.00  0.00    +0.000 A 
ATOM      2  C   UNL     1       1.719   7.957  21.194  0.00  0.00    +0.000 A 
ATOM      3  C   UNL     1       1.107   8.923  21.990  0.00  0.00    +0.000 A 
ATOM      4  C   UNL     1       0.583  10.068  21.392  0.00  0.00    +0.000 A 
ATOM      5  C   UNL     1      -0.358  10.910  22.156  0.00  0.00    +0.000 A 
ATOM      6  O   UNL     1      -0.535  10.786  23.361  0.00  0.00    +0.000 OA
ATOM      7  N   UNL     1      -1.040  11.786  21.366  0.00  0.00    +0.000 N 
ATOM      8  C   UNL     1      -0.505  12.246  20.165  0.00  0.00    +0.000 A 
ATOM      9  N   UNL     1       0.348  11.582  19.466  0.00  0.00    +0.000 NA
ATOM     10  C   UNL     1       0.763  10.325  20.023  0.00  0.00    +0.000 A 
ATOM     11  C   UNL     1       1.340   9.306  19.220  0.00  0.00    +0.000 A 
ATOM     12  C   UNL     1      -1.217  13.554  19.896  0.00  0.00    +0.000 C 
ATOM     13  C   UNL     1      -2.614  13.078  20.286  0.00  0.00    +0.000 C 
ATOM     14  C   UNL     1      -2.310  12.416  21.633  0.00  0.00    +0.000 C 
ENDROOT
BRANCH   1  16
ATOM     15  N   UNL     1       2.901   5.824  19.754  0.00  0.00    +0.000 N 
ATOM     16  C   UNL     1       2.401   6.911  19.046  0.00  0.00    +0.000 C 
ATOM     17  O   UNL     1       2.440   6.949  17.811  0.00  0.00    +0.000 OA
ATOM     18  H   UNL     1       3.087   5.936  20.742  0.00  0.00    +0.000 HD
BRANCH  15  20
ATOM     19  C   UNL     1       3.524   3.421  20.005  0.00  0.00    +0.000 C 
ATOM     20  C   UNL     1       3.526   4.654  19.085  0.00  0.00    +0.000 C 
BRANCH  20  21
ATOM     21  C   UNL     1       4.972   4.898  18.616  0.00  0.00    +0.000 A 
ATOM     22  C   UNL     1       5.945   5.407  19.499  0.00  0.00    +0.000 A 
ATOM     23  C   UNL     1       7.284   5.555  19.118  0.00  0.00    +0.000 A 
ATOM     24  C   UNL     1       7.705   5.162  17.846  0.00  0.00    +0.000 A 
ATOM     25  C   UNL     1       6.774   4.636  16.958  0.00  0.00    +0.000 A 
ATOM     26  C   UNL     1       5.422   4.515  17.330  0.00  0.00    +0.000 A 
ATOM     27 CL   UNL     1       4.359   3.856  16.135  0.00  0.00    +0.000 Cl
ENDBRANCH  20  21
ENDBRANCH  15  20
ENDBRANCH   1  16
TORSDOF 3
ENDMDL
MODEL 7
REMARK VINA RESULT:      -7.8      1.484      1.857
REMARK  Name = 
REMARK  4 active torsions:
REMARK  status: ('A' for Active; 'I' for Inactive)
REMARK    1  A    between atoms: C_1  and  C_2
REMARK    2  A    between atoms: C_2  and  N_3
REMARK    3  A    between atoms: C_2  and  C_20
REMARK    4  A    between atoms: C_4  and  C_6
REMARK                            x       y       z     vdW  Elec       q    Type
REMARK                         _______ _______ _______ _____ _____    ______ ____
ROOT
ATOM      1  C   UNL     1       2.207   8.410  18.701  0.00  0.00    +0.000 A 
ATOM      2  C   UNL     1       3.073   8.340  17.589  0.00  0.00    +0.000 A 
ATOM      3  C   UNL     1       3.772   7.176  17.278  0.00  0.00    +0.000 A 
ATOM      4  C   UNL     1       3.631   6.056  18.097  0.00  0.00    +0.000 A 
ATOM      5  C   UNL     1       4.073   4.740  17.595  0.00  0.00    +0.000 A 
ATOM      6  O   UNL     1       4.761   4.607  16.591  0.00  0.00    +0.000 OA
ATOM      7  N   UNL     1       3.585   3.704  18.334  0.00  0.00    +0.000 N 
ATOM      8  C   UNL     1       3.252   3.867  19.678  0.00  0.00    +0.000 A 
ATOM      9  N   UNL     1       2.895   4.992  20.190  0.00  0.00    +0.000 NA
ATOM     10  C   UNL     1       2.895   6.113  19.291  0.00  0.00    +0.000 A 
ATOM     11  C   UNL     1       2.148   7.289  19.563  0.00  0.00    +0.000 A 
ATOM     12  C   UNL     1       3.320   2.476  20.267  0.00  0.00    +0.000 C 
ATOM     13  C   UNL     1       2.623   1.760  19.113  0.00  0.00    +0.000 C 
ATOM     14  C   UNL     1       3.404   2.333  17.927  0.00  0.00    +0.000 C 
ENDROOT
BRANCH   1  16
ATOM     15  N   UNL     1       0.273   9.745  19.621  0.00  0.00    +0.000 N 
ATOM     16  C   UNL     1       1.429   9.711  18.851  0.00  0.00    +0.000 C 
ATOM     17  O   UNL     1       1.842  10.718  18.264  0.00  0.00    +0.000 OA
ATOM     18  H   UNL     1      -0.169   8.869  19.867  0.00  0.00    +0.000 HD
BRANCH  15  20
ATOM     19  C   UNL     1      -0.953  11.189  21.246  0.00  0.00    +0.000 C 
ATOM     20  C   UNL     1      -0.548  10.974  19.778  0.00  0.00    +0.000 C 
BRANCH  20  21
ATOM     21  C   UNL     1      -1.827  10.988  18.922  0.00  0.00    +0.000 A 
ATOM     22  C   UNL     1      -2.087   9.962  17.991  0.00  0.00    +0.000 A 
ATOM     23  C   UNL     1      -3.283   9.908  17.265  0.00  0.00    +0.000 A 
ATOM     24  C   UNL     1      -4.281  10.862  17.475  0.00  0.00    +0.000 A 
ATOM     25  C   UNL     1      -4.065  11.875  18.402  0.00  0.00    +0.000 A 
ATOM     26  C   UNL     1      -2.850  11.947  19.109  0.00  0.00    +0.000 A 
ATOM     27 CL   UNL     1      -2.696  13.258  20.228  0.00  0.00    +0.000 Cl
ENDBRANCH  20  21
ENDBRANCH  15  20
ENDBRANCH   1  16
TORSDOF 3
ENDMDL
MODEL 8
REMARK VINA RESULT:      -7.8      2.149      3.402
REMARK  Name = 
REMARK  4 active torsions:
REMARK  status: ('A' for Active; 'I' for Inactive)
REMARK    1  A    between atoms: C_1  and  C_2
REMARK    2  A    between atoms: C_2  and  N_3
REMARK    3  A    between atoms: C_2  and  C_20
REMARK    4  A    between atoms: C_4  and  C_6
REMARK                            x       y       z     vdW  Elec       q    Type
REMARK                         _______ _______ _______ _____ _____    ______ ____
ROOT
ATOM      1  C   UNL     1       1.836   8.419  19.155  0.00  0.00    +0.000 A 
ATOM      2  C   UNL     1       2.592   8.553  17.970  0.00  0.00    +0.000 A 
ATOM      3  C   UNL     1       3.388   7.516  17.491  0.00  0.00    +0.000 A 
ATOM      4  C   UNL     1       3.460   6.322  18.208  0.00  0.00    +0.000 A 
ATOM      5  C   UNL     1       4.003   5.119  17.546  0.00  0.00    +0.000 A 
ATOM      6  O   UNL     1       4.600   5.158  16.479  0.00  0.00    +0.000 OA
ATOM      7  N   UNL     1       3.714   3.972  18.223  0.00  0.00    +0.000 N 
ATOM      8  C   UNL     1       3.497   3.977  19.599  0.00  0.00    +0.000 A 
ATOM      9  N   UNL     1       3.062   5.002  20.246  0.00  0.00    +0.000 NA
ATOM     10  C   UNL     1       2.843   6.185  19.462  0.00  0.00    +0.000 A 
ATOM     11  C   UNL     1       1.993   7.231  19.908  0.00  0.00    +0.000 A 
ATOM     12  C   UNL     1       3.785   2.561  20.045  0.00  0.00    +0.000 C 
ATOM     13  C   UNL     1       3.067   1.863  18.892  0.00  0.00    +0.000 C 
ATOM     14  C   UNL     1       3.656   2.627  17.703  0.00  0.00    +0.000 C 
ENDROOT
BRANCH   1  16
ATOM     15  N   UNL     1       1.045  10.789  18.791  0.00  0.00    +0.000 N 
ATOM     16  C   UNL     1       0.930   9.595  19.495  0.00  0.00    +0.000 C 
ATOM     17  O   UNL     1       0.111   9.465  20.411  0.00  0.00    +0.000 OA
ATOM     18  H   UNL     1       1.878  10.945  18.240  0.00  0.00    +0.000 HD
BRANCH  15  20
ATOM     19  C   UNL     1      -1.038  12.031  18.204  0.00  0.00    +0.000 C 
ATOM     20  C   UNL     1       0.213  11.981  19.097  0.00  0.00    +0.000 C 
BRANCH  20  21
ATOM     21  C   UNL     1       0.959  13.320  18.950  0.00  0.00    +0.000 A 
ATOM     22  C   UNL     1       2.174  13.399  18.240  0.00  0.00    +0.000 A 
ATOM     23  C   UNL     1       2.824  14.619  18.021  0.00  0.00    +0.000 A 
ATOM     24  C   UNL     1       2.258  15.813  18.474  0.00  0.00    +0.000 A 
ATOM     25  C   UNL     1       1.049  15.772  19.159  0.00  0.00    +0.000 A 
ATOM     26  C   UNL     1       0.411  14.542  19.407  0.00  0.00    +0.000 A 
ATOM     27 CL   UNL     1      -1.082  14.620  20.277  0.00  0.00    +0.000 Cl
ENDBRANCH  20  21
ENDBRANCH  15  20
ENDBRANCH   1  16
TORSDOF 3
ENDMDL
MODEL 9
REMARK VINA RESULT:      -7.8      3.152      8.810
REMARK  Name = 
REMARK  4 active torsions:
REMARK  status: ('A' for Active; 'I' for Inactive)
REMARK    1  A    between atoms: C_1  and  C_2
REMARK    2  A    between atoms: C_2  and  N_3
REMARK    3  A    between atoms: C_2  and  C_20
REMARK    4  A    between atoms: C_4  and  C_6
REMARK                            x       y       z     vdW  Elec       q    Type
REMARK                         _______ _______ _______ _____ _____    ______ ____
ROOT
ATOM      1  C   UNL     1       2.002   7.263  19.340  0.00  0.00    +0.000 A 
ATOM      2  C   UNL     1       1.786   7.233  20.735  0.00  0.00    +0.000 A 
ATOM      3  C   UNL     1       1.301   8.342  21.424  0.00  0.00    +0.000 A 
ATOM      4  C   UNL     1       1.043   9.521  20.724  0.00  0.00    +0.000 A 
ATOM      5  C   UNL     1       0.215  10.565  21.359  0.00  0.00    +0.000 A 
ATOM      6  O   UNL     1      -0.074  10.555  22.549  0.00  0.00    +0.000 OA
ATOM      7  N   UNL     1      -0.232  11.495  20.469  0.00  0.00    +0.000 N 
ATOM      8  C   UNL     1       0.469  11.772  19.297  0.00  0.00    +0.000 A 
ATOM      9  N   UNL     1       1.238  10.922  18.711  0.00  0.00    +0.000 NA
ATOM     10  C   UNL     1       1.371   9.651  19.365  0.00  0.00    +0.000 A 
ATOM     11  C   UNL     1       1.813   8.495  18.669  0.00  0.00    +0.000 A 
ATOM     12  C   UNL     1       0.031  13.165  18.901  0.00  0.00    +0.000 C 
ATOM     13  C   UNL     1      -1.456  12.972  19.190  0.00  0.00    +0.000 C 
ATOM     14  C   UNL     1      -1.383  12.357  20.590  0.00  0.00    +0.000 C 
ENDROOT
BRANCH   1  16
ATOM     15  N   UNL     1       3.538   5.265  19.202  0.00  0.00    +0.000 N 
ATOM     16  C   UNL     1       2.428   5.943  18.711  0.00  0.00    +0.000 C 
ATOM     17  O   UNL     1       1.778   5.506  17.755  0.00  0.00    +0.000 OA
ATOM     18  H   UNL     1       4.185   5.765  19.797  0.00  0.00    +0.000 HD
BRANCH  15  20
ATOM     19  C   UNL     1       4.539   3.033  19.697  0.00  0.00    +0.000 C 
ATOM     20  C   UNL     1       4.023   3.991  18.609  0.00  0.00    +0.000 C 
BRANCH  20  21
ATOM     21  C   UNL     1       5.137   4.172  17.563  0.00  0.00    +0.000 A 
ATOM     22  C   UNL     1       4.954   3.755  16.229  0.00  0.00    +0.000 A 
ATOM     23  C   UNL     1       5.920   3.988  15.243  0.00  0.00    +0.000 A 
ATOM     24  C   UNL     1       7.091   4.684  15.549  0.00  0.00    +0.000 A 
ATOM     25  C   UNL     1       7.293   5.128  16.851  0.00  0.00    +0.000 A 
ATOM     26  C   UNL     1       6.336   4.867  17.850  0.00  0.00    +0.000 A 
ATOM     27 CL   UNL     1       6.706   5.461  19.432  0.00  0.00    +0.000 Cl
ENDBRANCH  20  21
ENDBRANCH  15  20
ENDBRANCH   1  16
TORSDOF 3
ENDMDL
