MODEL 1
REMARK VINA RESULT:      -8.3      0.000      0.000
REMARK  Name = 
REMARK  7 active torsions:
REMARK  status: ('A' for Active; 'I' for Inactive)
REMARK    1  A    between atoms: C_1  and  C_2
REMARK    2  A    between atoms: C_4  and  C_5
REMARK    3  A    between atoms: C_5  and  C_6
REMARK    4  A    between atoms: N_8  and  C_9
REMARK    5  A    between atoms: N_13  and  C_14
REMARK    6  A    between atoms: C_17  and  O_18
REMARK    7  A    between atoms: O_18  and  C_19
REMARK                            x       y       z     vdW  Elec       q    Type
REMARK                         _______ _______ _______ _____ _____    ______ ____
ROOT
ATOM      1  C   UNL     1      -2.054  11.678  17.957  0.00  0.00    +0.000 C 
ATOM      2  C   UNL     1      -1.178  12.681  18.687  0.00  0.00    +0.000 C 
ATOM      3  C   UNL     1       0.074  11.893  18.943  0.00  0.00    +0.000 C 
ATOM      4  O   UNL     1       1.150  12.433  19.158  0.00  0.00    +0.000 OA
ATOM      5  N   UNL     1      -0.250  10.529  18.885  0.00  0.00    +0.000 N 
ATOM      6  C   UNL     1      -1.664  10.352  18.609  0.00  0.00    +0.000 C 
ENDROOT
BRANCH   5   7
ATOM      7  C   UNL     1       0.675   9.466  19.076  0.00  0.00    +0.000 A 
ATOM      8  C   UNL     1       1.407   8.963  17.993  0.00  0.00    +0.000 A 
ATOM      9  C   UNL     1       2.263   7.867  18.128  0.00  0.00    +0.000 A 
ATOM     10  C   UNL     1       2.457   7.282  19.375  0.00  0.00    +0.000 A 
ATOM     11  C   UNL     1       1.730   7.759  20.465  0.00  0.00    +0.000 A 
ATOM     12  C   UNL     1       0.858   8.853  20.323  0.00  0.00    +0.000 A 
BRANCH  10  13
ATOM     13  O   UNL     1       3.282   6.204  19.604  0.00  0.00    +0.000 OA
BRANCH  13  14
ATOM     14  C   UNL     1       2.744   4.942  19.742  0.00  0.00    +0.000 A 
ATOM     15  C   UNL     1       2.730   4.220  20.939  0.00  0.00    +0.000 A 
ATOM     16  C   UNL     1       2.175   2.939  20.981  0.00  0.00    +0.000 A 
ATOM     17  C   UNL     1       1.579   2.399  19.842  0.00  0.00    +0.000 A 
ATOM     18  C   UNL     1       1.537   3.140  18.662  0.00  0.00    +0.000 A 
ATOM     19  C   UNL     1       2.120   4.409  18.611  0.00  0.00    +0.000 A 
ENDBRANCH  13  14
ENDBRANCH  10  13
ENDBRANCH   5   7
BRANCH   1  22
ATOM     20  C   UNL     1      -4.345  11.676  17.030  0.00  0.00    +0.000 C 
ATOM     21  O   UNL     1      -4.067  10.839  16.178  0.00  0.00    +0.000 OA
ATOM     22  N   UNL     1      -3.454  12.052  18.016  0.00  0.00    +0.000 N 
ATOM     23  H   UNL     1      -3.764  12.714  18.719  0.00  0.00    +0.000 HD
BRANCH  20  24
ATOM     24  C   UNL     1      -5.661  12.428  17.061  0.00  0.00    +0.000 C 
BRANCH  24  28
ATOM     25  C   UNL     1      -7.907  12.452  21.642  0.00  0.00    +0.000 C 
ATOM     26  C   UNL     1      -7.394  12.178  20.283  0.00  0.00    +0.000 A 
ATOM     27  C   UNL     1      -6.693  12.960  19.389  0.00  0.00    +0.000 A 
ATOM     28  C   UNL     1      -6.459  12.124  18.277  0.00  0.00    +0.000 A 
ATOM     29  N   UNL     1      -6.998  10.911  18.446  0.00  0.00    +0.000 NA
ATOM     30  N   UNL     1      -7.552  10.967  19.667  0.00  0.00    +0.000 N 
ATOM     31  H   UNL     1      -8.009  10.136  20.030  0.00  0.00    +0.000 HD
ENDBRANCH  24  28
ENDBRANCH  20  24
ENDBRANCH   1  22
TORSDOF 6
ENDMDL
MODEL 2
REMARK VINA RESULT:      -7.9      4.352     10.756
REMARK  Name = 
REMARK  7 active torsions:
REMARK  status: ('A' for Active; 'I' for Inactive)
REMARK    1  A    between atoms: C_1  and  C_2
REMARK    2  A    between atoms: C_4  and  C_5
REMARK    3  A    between atoms: C_5  and  C_6
REMARK    4  A    between atoms: N_8  and  C_9
REMARK    5  A    between atoms: N_13  and  C_14
REMARK    6  A    between atoms: C_17  and  O_18
REMARK    7  A    between atoms: O_18  and  C_19
REMARK                            x       y       z     vdW  Elec       q    Type
REMARK                         _______ _______ _______ _____ _____    ______ ____
ROOT
ATOM      1  C   UNL     1       3.661   5.126  18.160  0.00  0.00    +0.000 C 
ATOM      2  C   UNL     1       3.331   4.768  19.598  0.00  0.00    +0.000 C 
ATOM      3  C   UNL     1       2.364   5.848  19.989  0.00  0.00    +0.000 C 
ATOM      4  O   UNL     1       1.578   5.714  20.916  0.00  0.00    +0.000 OA
ATOM      5  N   UNL     1       2.557   6.939  19.127  0.00  0.00    +0.000 N 
ATOM      6  C   UNL     1       3.614   6.654  18.174  0.00  0.00    +0.000 C 
ENDROOT
BRANCH   5   7
ATOM      7  C   UNL     1       1.825   8.156  19.183  0.00  0.00    +0.000 A 
ATOM      8  C   UNL     1       1.702   8.959  18.042  0.00  0.00    +0.000 A 
ATOM      9  C   UNL     1       1.061  10.200  18.080  0.00  0.00    +0.000 A 
ATOM     10  C   UNL     1       0.468  10.644  19.257  0.00  0.00    +0.000 A 
ATOM     11  C   UNL     1       0.588   9.867  20.408  0.00  0.00    +0.000 A 
ATOM     12  C   UNL     1       1.247   8.624  20.370  0.00  0.00    +0.000 A 
BRANCH  10  13
ATOM     13  O   UNL     1      -0.188  11.847  19.387  0.00  0.00    +0.000 OA
BRANCH  13  14
ATOM     14  C   UNL     1      -1.556  11.907  19.226  0.00  0.00    +0.000 A 
ATOM     15  C   UNL     1      -2.250  11.313  18.168  0.00  0.00    +0.000 A 
ATOM     16  C   UNL     1      -3.638  11.439  18.079  0.00  0.00    +0.000 A 
ATOM     17  C   UNL     1      -4.343  12.107  19.078  0.00  0.00    +0.000 A 
ATOM     18  C   UNL     1      -3.661  12.650  20.166  0.00  0.00    +0.000 A 
ATOM     19  C   UNL     1      -2.270  12.552  20.240  0.00  0.00    +0.000 A 
ENDBRANCH  13  14
ENDBRANCH  10  13
ENDBRANCH   5   7
BRANCH   1  22
ATOM     20  C   UNL     1       6.126   5.087  18.002  0.00  0.00    +0.000 C 
ATOM     21  O   UNL     1       6.255   6.013  18.795  0.00  0.00    +0.000 OA
ATOM     22  N   UNL     1       4.901   4.511  17.729  0.00  0.00    +0.000 N 
ATOM     23  H   UNL     1       4.872   3.717  17.100  0.00  0.00    +0.000 HD
BRANCH  20  24
ATOM     24  C   UNL     1       7.276   4.515  17.195  0.00  0.00    +0.000 C 
BRANCH  24  28
ATOM     25  C   UNL     1       5.864   3.483  12.402  0.00  0.00    +0.000 C 
ATOM     26  C   UNL     1       6.389   4.034  13.670  0.00  0.00    +0.000 A 
ATOM     27  C   UNL     1       6.230   3.637  14.981  0.00  0.00    +0.000 A 
ATOM     28  C   UNL     1       7.010   4.540  15.734  0.00  0.00    +0.000 A 
ATOM     29  N   UNL     1       7.595   5.458  14.956  0.00  0.00    +0.000 NA
ATOM     30  N   UNL     1       7.211   5.127  13.713  0.00  0.00    +0.000 N 
ATOM     31  H   UNL     1       7.557   5.679  12.935  0.00  0.00    +0.000 HD
ENDBRANCH  24  28
ENDBRANCH  20  24
ENDBRANCH   1  22
TORSDOF 6
ENDMDL
MODEL 3
REMARK VINA RESULT:      -7.9      4.258     10.707
REMARK  Name = 
REMARK  7 active torsions:
REMARK  status: ('A' for Active; 'I' for Inactive)
REMARK    1  A    between atoms: C_1  and  C_2
REMARK    2  A    between atoms: C_4  and  C_5
REMARK    3  A    between atoms: C_5  and  C_6
REMARK    4  A    between atoms: N_8  and  C_9
REMARK    5  A    between atoms: N_13  and  C_14
REMARK    6  A    between atoms: C_17  and  O_18
REMARK    7  A    between atoms: O_18  and  C_19
REMARK                            x       y       z     vdW  Elec       q    Type
REMARK                         _______ _______ _______ _____ _____    ______ ____
ROOT
ATOM      1  C   UNL     1       3.042   6.790  18.172  0.00  0.00    +0.000 C 
ATOM      2  C   UNL     1       2.937   6.487  19.656  0.00  0.00    +0.000 C 
ATOM      3  C   UNL     1       1.832   7.402  20.097  0.00  0.00    +0.000 C 
ATOM      4  O   UNL     1       1.185   7.199  21.115  0.00  0.00    +0.000 OA
ATOM      5  N   UNL     1       1.727   8.443  19.161  0.00  0.00    +0.000 N 
ATOM      6  C   UNL     1       2.713   8.282  18.108  0.00  0.00    +0.000 C 
ENDROOT
BRANCH   5   7
ATOM      7  C   UNL     1       0.791   9.510  19.234  0.00  0.00    +0.000 A 
ATOM      8  C   UNL     1      -0.094   9.748  18.175  0.00  0.00    +0.000 A 
ATOM      9  C   UNL     1      -0.971  10.836  18.178  0.00  0.00    +0.000 A 
ATOM     10  C   UNL     1      -1.027  11.685  19.278  0.00  0.00    +0.000 A 
ATOM     11  C   UNL     1      -0.147  11.474  20.339  0.00  0.00    +0.000 A 
ATOM     12  C   UNL     1       0.744  10.386  20.327  0.00  0.00    +0.000 A 
BRANCH  10  13
ATOM     13  O   UNL     1      -1.860  12.776  19.372  0.00  0.00    +0.000 OA
BRANCH  13  14
ATOM     14  C   UNL     1      -3.136  12.628  19.872  0.00  0.00    +0.000 A 
ATOM     15  C   UNL     1      -4.223  12.157  19.128  0.00  0.00    +0.000 A 
ATOM     16  C   UNL     1      -5.485  12.053  19.717  0.00  0.00    +0.000 A 
ATOM     17  C   UNL     1      -5.654  12.363  21.065  0.00  0.00    +0.000 A 
ATOM     18  C   UNL     1      -4.561  12.777  21.826  0.00  0.00    +0.000 A 
ATOM     19  C   UNL     1      -3.305  12.911  21.231  0.00  0.00    +0.000 A 
ENDBRANCH  13  14
ENDBRANCH  10  13
ENDBRANCH   5   7
BRANCH   1  22
ATOM     20  C   UNL     1       4.591   5.056  17.335  0.00  0.00    +0.000 C 
ATOM     21  O   UNL     1       3.712   4.200  17.297  0.00  0.00    +0.000 OA
ATOM     22  N   UNL     1       4.324   6.377  17.634  0.00  0.00    +0.000 N 
ATOM     23  H   UNL     1       5.089   7.042  17.601  0.00  0.00    +0.000 HD
BRANCH  20  24
ATOM     24  C   UNL     1       6.060   4.750  17.120  0.00  0.00    +0.000 C 
BRANCH  24  28
ATOM     25  C   UNL     1       6.687   3.720  12.162  0.00  0.00    +0.000 C 
ATOM     26  C   UNL     1       6.687   4.253  13.542  0.00  0.00    +0.000 A 
ATOM     27  C   UNL     1       5.953   3.916  14.659  0.00  0.00    +0.000 A 
ATOM     28  C   UNL     1       6.435   4.757  15.683  0.00  0.00    +0.000 A 
ATOM     29  N   UNL     1       7.387   5.585  15.236  0.00  0.00    +0.000 NA
ATOM     30  N   UNL     1       7.526   5.257  13.942  0.00  0.00    +0.000 N 
ATOM     31  H   UNL     1       8.223   5.746  13.391  0.00  0.00    +0.000 HD
ENDBRANCH  24  28
ENDBRANCH  20  24
ENDBRANCH   1  22
TORSDOF 6
ENDMDL
MODEL 4
REMARK VINA RESULT:      -7.9      4.579     10.653
REMARK  Name = 
REMARK  7 active torsions:
REMARK  status: ('A' for Active; 'I' for Inactive)
REMARK    1  A    between atoms: C_1  and  C_2
REMARK    2  A    between atoms: C_4  and  C_5
REMARK    3  A    between atoms: C_5  and  C_6
REMARK    4  A    between atoms: N_8  and  C_9
REMARK    5  A    between atoms: N_13  and  C_14
REMARK    6  A    between atoms: C_17  and  O_18
REMARK    7  A    between atoms: O_18  and  C_19
REMARK                            x       y       z     vdW  Elec       q    Type
REMARK                         _______ _______ _______ _____ _____    ______ ____
ROOT
ATOM      1  C   UNL     1       3.382   6.956  18.495  0.00  0.00    +0.000 C 
ATOM      2  C   UNL     1       2.903   7.877  17.386  0.00  0.00    +0.000 C 
ATOM      3  C   UNL     1       2.124   8.915  18.140  0.00  0.00    +0.000 C 
ATOM      4  O   UNL     1       1.902  10.025  17.677  0.00  0.00    +0.000 OA
ATOM      5  N   UNL     1       1.746   8.366  19.375  0.00  0.00    +0.000 N 
ATOM      6  C   UNL     1       2.226   7.001  19.494  0.00  0.00    +0.000 C 
ENDROOT
BRANCH   5   7
ATOM      7  C   UNL     1       0.993   9.047  20.370  0.00  0.00    +0.000 A 
ATOM      8  C   UNL     1       1.228   8.798  21.728  0.00  0.00    +0.000 A 
ATOM      9  C   UNL     1       0.452   9.387  22.730  0.00  0.00    +0.000 A 
ATOM     10  C   UNL     1      -0.546  10.296  22.397  0.00  0.00    +0.000 A 
ATOM     11  C   UNL     1      -0.805  10.551  21.050  0.00  0.00    +0.000 A 
ATOM     12  C   UNL     1      -0.032   9.945  20.044  0.00  0.00    +0.000 A 
BRANCH  10  13
ATOM     13  O   UNL     1      -1.355  10.928  23.314  0.00  0.00    +0.000 OA
BRANCH  13  14
ATOM     14  C   UNL     1      -1.792  12.213  23.076  0.00  0.00    +0.000 A 
ATOM     15  C   UNL     1      -0.945  13.314  22.906  0.00  0.00    +0.000 A 
ATOM     16  C   UNL     1      -1.480  14.584  22.683  0.00  0.00    +0.000 A 
ATOM     17  C   UNL     1      -2.860  14.751  22.570  0.00  0.00    +0.000 A 
ATOM     18  C   UNL     1      -3.705  13.647  22.679  0.00  0.00    +0.000 A 
ATOM     19  C   UNL     1      -3.173  12.381  22.933  0.00  0.00    +0.000 A 
ENDBRANCH  13  14
ENDBRANCH  10  13
ENDBRANCH   5   7
BRANCH   1  22
ATOM     20  C   UNL     1       4.949   5.053  18.328  0.00  0.00    +0.000 C 
ATOM     21  O   UNL     1       5.653   5.471  19.242  0.00  0.00    +0.000 OA
ATOM     22  N   UNL     1       3.755   5.652  17.981  0.00  0.00    +0.000 N 
ATOM     23  H   UNL     1       3.198   5.228  17.248  0.00  0.00    +0.000 HD
BRANCH  20  24
ATOM     24  C   UNL     1       5.337   3.881  17.449  0.00  0.00    +0.000 C 
BRANCH  24  28
ATOM     25  C   UNL     1       6.980   4.605  12.672  0.00  0.00    +0.000 C 
ATOM     26  C   UNL     1       6.736   4.573  14.131  0.00  0.00    +0.000 A 
ATOM     27  C   UNL     1       5.693   4.071  14.879  0.00  0.00    +0.000 A 
ATOM     28  C   UNL     1       6.056   4.308  16.221  0.00  0.00    +0.000 A 
ATOM     29  N   UNL     1       7.232   4.940  16.312  0.00  0.00    +0.000 NA
ATOM     30  N   UNL     1       7.626   5.083  15.036  0.00  0.00    +0.000 N 
ATOM     31  H   UNL     1       8.522   5.524  14.852  0.00  0.00    +0.000 HD
ENDBRANCH  24  28
ENDBRANCH  20  24
ENDBRANCH   1  22
TORSDOF 6
ENDMDL
MODEL 5
REMARK VINA RESULT:      -7.8      2.269      2.733
REMARK  Name = 
REMARK  7 active torsions:
REMARK  status: ('A' for Active; 'I' for Inactive)
REMARK    1  A    between atoms: C_1  and  C_2
REMARK    2  A    between atoms: C_4  and  C_5
REMARK    3  A    between atoms: C_5  and  C_6
REMARK    4  A    between atoms: N_8  and  C_9
REMARK    5  A    between atoms: N_13  and  C_14
REMARK    6  A    between atoms: C_17  and  O_18
REMARK    7  A    between atoms: O_18  and  C_19
REMARK                            x       y       z     vdW  Elec       q    Type
REMARK                         _______ _______ _______ _____ _____    ______ ____
ROOT
ATOM      1  C   UNL     1      -0.758  11.475  20.698  0.00  0.00    +0.000 C 
ATOM      2  C   UNL     1      -0.351  10.974  22.073  0.00  0.00    +0.000 C 
ATOM      3  C   UNL     1       0.737   9.992  21.752  0.00  0.00    +0.000 C 
ATOM      4  O   UNL     1       1.578   9.660  22.576  0.00  0.00    +0.000 OA
ATOM      5  N   UNL     1       0.578   9.584  20.419  0.00  0.00    +0.000 N 
ATOM      6  C   UNL     1      -0.571  10.238  19.820  0.00  0.00    +0.000 C 
ENDROOT
BRANCH   5   7
ATOM      7  C   UNL     1       1.420   8.656  19.747  0.00  0.00    +0.000 A 
ATOM      8  C   UNL     1       1.861   8.916  18.444  0.00  0.00    +0.000 A 
ATOM      9  C   UNL     1       2.621   7.991  17.724  0.00  0.00    +0.000 A 
ATOM     10  C   UNL     1       3.014   6.797  18.320  0.00  0.00    +0.000 A 
ATOM     11  C   UNL     1       2.577   6.511  19.613  0.00  0.00    +0.000 A 
ATOM     12  C   UNL     1       1.800   7.439  20.329  0.00  0.00    +0.000 A 
BRANCH  10  13
ATOM     13  O   UNL     1       3.765   5.829  17.692  0.00  0.00    +0.000 OA
BRANCH  13  14
ATOM     14  C   UNL     1       3.623   4.506  18.052  0.00  0.00    +0.000 A 
ATOM     15  C   UNL     1       4.381   3.874  19.042  0.00  0.00    +0.000 A 
ATOM     16  C   UNL     1       4.176   2.523  19.329  0.00  0.00    +0.000 A 
ATOM     17  C   UNL     1       3.174   1.814  18.669  0.00  0.00    +0.000 A 
ATOM     18  C   UNL     1       2.376   2.455  17.722  0.00  0.00    +0.000 A 
ATOM     19  C   UNL     1       2.601   3.798  17.413  0.00  0.00    +0.000 A 
ENDBRANCH  13  14
ENDBRANCH  10  13
ENDBRANCH   5   7
BRANCH   1  22
ATOM     20  C   UNL     1      -2.262  13.429  20.540  0.00  0.00    +0.000 C 
ATOM     21  O   UNL     1      -1.365  14.167  20.144  0.00  0.00    +0.000 OA
ATOM     22  N   UNL     1      -2.080  12.073  20.718  0.00  0.00    +0.000 N 
ATOM     23  H   UNL     1      -2.876  11.513  21.002  0.00  0.00    +0.000 HD
BRANCH  20  24
ATOM     24  C   UNL     1      -3.638  13.929  20.933  0.00  0.00    +0.000 C 
BRANCH  24  28
ATOM     25  C   UNL     1      -7.663  10.804  20.659  0.00  0.00    +0.000 C 
ATOM     26  C   UNL     1      -6.465  11.645  20.445  0.00  0.00    +0.000 A 
ATOM     27  C   UNL     1      -5.829  12.563  21.253  0.00  0.00    +0.000 A 
ATOM     28  C   UNL     1      -4.720  13.006  20.502  0.00  0.00    +0.000 A 
ATOM     29  N   UNL     1      -4.676  12.429  19.296  0.00  0.00    +0.000 NA
ATOM     30  N   UNL     1      -5.737  11.606  19.288  0.00  0.00    +0.000 N 
ATOM     31  H   UNL     1      -5.898  11.033  18.466  0.00  0.00    +0.000 HD
ENDBRANCH  24  28
ENDBRANCH  20  24
ENDBRANCH   1  22
TORSDOF 6
ENDMDL
MODEL 6
REMARK VINA RESULT:      -7.8      3.790      6.075
REMARK  Name = 
REMARK  7 active torsions:
REMARK  status: ('A' for Active; 'I' for Inactive)
REMARK    1  A    between atoms: C_1  and  C_2
REMARK    2  A    between atoms: C_4  and  C_5
REMARK    3  A    between atoms: C_5  and  C_6
REMARK    4  A    between atoms: N_8  and  C_9
REMARK    5  A    between atoms: N_13  and  C_14
REMARK    6  A    between atoms: C_17  and  O_18
REMARK    7  A    between atoms: O_18  and  C_19
REMARK                            x       y       z     vdW  Elec       q    Type
REMARK                         _______ _______ _______ _____ _____    ______ ____
ROOT
ATOM      1  C   UNL     1       1.578   9.246  19.573  0.00  0.00    +0.000 C 
ATOM      2  C   UNL     1       1.042   8.147  20.473  0.00  0.00    +0.000 C 
ATOM      3  C   UNL     1       1.911   6.977  20.112  0.00  0.00    +0.000 C 
ATOM      4  O   UNL     1       2.065   6.024  20.862  0.00  0.00    +0.000 OA
ATOM      5  N   UNL     1       2.449   7.212  18.837  0.00  0.00    +0.000 N 
ATOM      6  C   UNL     1       1.981   8.481  18.312  0.00  0.00    +0.000 C 
ENDROOT
BRANCH   5   7
ATOM      7  C   UNL     1       3.325   6.327  18.151  0.00  0.00    +0.000 A 
ATOM      8  C   UNL     1       4.443   6.826  17.470  0.00  0.00    +0.000 A 
ATOM      9  C   UNL     1       5.279   5.997  16.718  0.00  0.00    +0.000 A 
ATOM     10  C   UNL     1       5.050   4.626  16.679  0.00  0.00    +0.000 A 
ATOM     11  C   UNL     1       3.936   4.108  17.339  0.00  0.00    +0.000 A 
ATOM     12  C   UNL     1       3.088   4.948  18.084  0.00  0.00    +0.000 A 
BRANCH  10  13
ATOM     13  O   UNL     1       5.821   3.732  15.970  0.00  0.00    +0.000 OA
BRANCH  13  14
ATOM     14  C   UNL     1       6.185   4.017  14.671  0.00  0.00    +0.000 A 
ATOM     15  C   UNL     1       5.479   3.587  13.544  0.00  0.00    +0.000 A 
ATOM     16  C   UNL     1       5.933   3.913  12.263  0.00  0.00    +0.000 A 
ATOM     17  C   UNL     1       7.061   4.717  12.107  0.00  0.00    +0.000 A 
ATOM     18  C   UNL     1       7.735   5.196  13.229  0.00  0.00    +0.000 A 
ATOM     19  C   UNL     1       7.299   4.846  14.509  0.00  0.00    +0.000 A 
ENDBRANCH  13  14
ENDBRANCH  10  13
ENDBRANCH   5   7
BRANCH   1  22
ATOM     20  C   UNL     1       0.470  11.310  20.360  0.00  0.00    +0.000 C 
ATOM     21  O   UNL     1       1.276  11.470  21.271  0.00  0.00    +0.000 OA
ATOM     22  N   UNL     1       0.615  10.318  19.410  0.00  0.00    +0.000 N 
ATOM     23  H   UNL     1      -0.061  10.271  18.656  0.00  0.00    +0.000 HD
BRANCH  20  24
ATOM     24  C   UNL     1      -0.792  12.135  20.211  0.00  0.00    +0.000 C 
BRANCH  24  28
ATOM     25  C   UNL     1      -3.562  10.626  16.199  0.00  0.00    +0.000 C 
ATOM     26  C   UNL     1      -2.640  11.260  17.166  0.00  0.00    +0.000 A 
ATOM     27  C   UNL     1      -2.512  11.136  18.533  0.00  0.00    +0.000 A 
ATOM     28  C   UNL     1      -1.425  11.967  18.877  0.00  0.00    +0.000 A 
ATOM     29  N   UNL     1      -0.921  12.592  17.806  0.00  0.00    +0.000 NA
ATOM     30  N   UNL     1      -1.667  12.144  16.784  0.00  0.00    +0.000 N 
ATOM     31  H   UNL     1      -1.451  12.468  15.848  0.00  0.00    +0.000 HD
ENDBRANCH  24  28
ENDBRANCH  20  24
ENDBRANCH   1  22
TORSDOF 6
ENDMDL
MODEL 7
REMARK VINA RESULT:      -7.7      4.704     10.956
REMARK  Name = 
REMARK  7 active torsions:
REMARK  status: ('A' for Active; 'I' for Inactive)
REMARK    1  A    between atoms: C_1  and  C_2
REMARK    2  A    between atoms: C_4  and  C_5
REMARK    3  A    between atoms: C_5  and  C_6
REMARK    4  A    between atoms: N_8  and  C_9
REMARK    5  A    between atoms: N_13  and  C_14
REMARK    6  A    between atoms: C_17  and  O_18
REMARK    7  A    between atoms: O_18  and  C_19
REMARK                            x       y       z     vdW  Elec       q    Type
REMARK                         _______ _______ _______ _____ _____    ______ ____
ROOT
ATOM      1  C   UNL     1       3.680   5.202  18.041  0.00  0.00    +0.000 C 
ATOM      2  C   UNL     1       3.351   4.580  19.387  0.00  0.00    +0.000 C 
ATOM      3  C   UNL     1       2.383   5.566  19.973  0.00  0.00    +0.000 C 
ATOM      4  O   UNL     1       1.597   5.259  20.858  0.00  0.00    +0.000 OA
ATOM      5  N   UNL     1       2.573   6.799  19.330  0.00  0.00    +0.000 N 
ATOM      6  C   UNL     1       3.630   6.700  18.340  0.00  0.00    +0.000 C 
ENDROOT
BRANCH   5   7
ATOM      7  C   UNL     1       1.839   7.983  19.612  0.00  0.00    +0.000 A 
ATOM      8  C   UNL     1       1.370   8.232  20.909  0.00  0.00    +0.000 A 
ATOM      9  C   UNL     1       0.577   9.343  21.205  0.00  0.00    +0.000 A 
ATOM     10  C   UNL     1       0.282  10.275  20.215  0.00  0.00    +0.000 A 
ATOM     11  C   UNL     1       0.729  10.042  18.914  0.00  0.00    +0.000 A 
ATOM     12  C   UNL     1       1.516   8.914  18.617  0.00  0.00    +0.000 A 
BRANCH  10  13
ATOM     13  O   UNL     1      -0.486  11.399  20.414  0.00  0.00    +0.000 OA
BRANCH  13  14
ATOM     14  C   UNL     1      -0.003  12.637  20.046  0.00  0.00    +0.000 A 
ATOM     15  C   UNL     1      -0.608  13.467  19.097  0.00  0.00    +0.000 A 
ATOM     16  C   UNL     1      -0.037  14.701  18.776  0.00  0.00    +0.000 A 
ATOM     17  C   UNL     1       1.107  15.135  19.444  0.00  0.00    +0.000 A 
ATOM     18  C   UNL     1       1.680  14.336  20.433  0.00  0.00    +0.000 A 
ATOM     19  C   UNL     1       1.128  13.089  20.732  0.00  0.00    +0.000 A 
ENDBRANCH  13  14
ENDBRANCH  10  13
ENDBRANCH   5   7
BRANCH   1  22
ATOM     20  C   UNL     1       6.111   4.786  18.195  0.00  0.00    +0.000 C 
ATOM     21  O   UNL     1       6.156   5.118  19.375  0.00  0.00    +0.000 OA
ATOM     22  N   UNL     1       4.922   4.681  17.502  0.00  0.00    +0.000 N 
ATOM     23  H   UNL     1       4.950   4.353  16.543  0.00  0.00    +0.000 HD
BRANCH  20  24
ATOM     24  C   UNL     1       7.345   4.514  17.359  0.00  0.00    +0.000 C 
BRANCH  24  28
ATOM     25  C   UNL     1       5.944   3.527  12.552  0.00  0.00    +0.000 C 
ATOM     26  C   UNL     1       6.450   4.074  13.830  0.00  0.00    +0.000 A 
ATOM     27  C   UNL     1       6.327   3.636  15.131  0.00  0.00    +0.000 A 
ATOM     28  C   UNL     1       7.063   4.561  15.901  0.00  0.00    +0.000 A 
ATOM     29  N   UNL     1       7.588   5.531  15.142  0.00  0.00    +0.000 NA
ATOM     30  N   UNL     1       7.210   5.210  13.894  0.00  0.00    +0.000 N 
ATOM     31  H   UNL     1       7.517   5.800  13.128  0.00  0.00    +0.000 HD
ENDBRANCH  24  28
ENDBRANCH  20  24
ENDBRANCH   1  22
TORSDOF 6
ENDMDL
MODEL 8
REMARK VINA RESULT:      -7.7      1.124      1.682
REMARK  Name = 
REMARK  7 active torsions:
REMARK  status: ('A' for Active; 'I' for Inactive)
REMARK    1  A    between atoms: C_1  and  C_2
REMARK    2  A    between atoms: C_4  and  C_5
REMARK    3  A    between atoms: C_5  and  C_6
REMARK    4  A    between atoms: N_8  and  C_9
REMARK    5  A    between atoms: N_13  and  C_14
REMARK    6  A    between atoms: C_17  and  O_18
REMARK    7  A    between atoms: O_18  and  C_19
REMARK                            x       y       z     vdW  Elec       q    Type
REMARK                         _______ _______ _______ _____ _____    ______ ____
ROOT
ATOM      1  C   UNL     1      -2.263  11.715  18.219  0.00  0.00    +0.000 C 
ATOM      2  C   UNL     1      -1.245  12.733  18.702  0.00  0.00    +0.000 C 
ATOM      3  C   UNL     1       0.019  11.926  18.762  0.00  0.00    +0.000 C 
ATOM      4  O   UNL     1       1.125  12.446  18.731  0.00  0.00    +0.000 OA
ATOM      5  N   UNL     1      -0.333  10.570  18.853  0.00  0.00    +0.000 N 
ATOM      6  C   UNL     1      -1.777  10.418  18.866  0.00  0.00    +0.000 C 
ENDROOT
BRANCH   5   7
ATOM      7  C   UNL     1       0.593   9.494  18.929  0.00  0.00    +0.000 A 
ATOM      8  C   UNL     1       0.845   8.863  20.154  0.00  0.00    +0.000 A 
ATOM      9  C   UNL     1       1.807   7.859  20.281  0.00  0.00    +0.000 A 
ATOM     10  C   UNL     1       2.505   7.413  19.164  0.00  0.00    +0.000 A 
ATOM     11  C   UNL     1       2.279   8.035  17.935  0.00  0.00    +0.000 A 
ATOM     12  C   UNL     1       1.319   9.056  17.813  0.00  0.00    +0.000 A 
BRANCH  10  13
ATOM     13  O   UNL     1       3.465   6.428  19.192  0.00  0.00    +0.000 OA
BRANCH  13  14
ATOM     14  C   UNL     1       3.201   5.193  18.639  0.00  0.00    +0.000 A 
ATOM     15  C   UNL     1       2.019   4.476  18.845  0.00  0.00    +0.000 A 
ATOM     16  C   UNL     1       1.845   3.222  18.254  0.00  0.00    +0.000 A 
ATOM     17  C   UNL     1       2.827   2.707  17.410  0.00  0.00    +0.000 A 
ATOM     18  C   UNL     1       3.982   3.445  17.155  0.00  0.00    +0.000 A 
ATOM     19  C   UNL     1       4.170   4.685  17.769  0.00  0.00    +0.000 A 
ENDBRANCH  13  14
ENDBRANCH  10  13
ENDBRANCH   5   7
BRANCH   1  22
ATOM     20  C   UNL     1      -4.670  11.845  17.675  0.00  0.00    +0.000 C 
ATOM     21  O   UNL     1      -4.568  11.051  16.746  0.00  0.00    +0.000 OA
ATOM     22  N   UNL     1      -3.619  12.131  18.523  0.00  0.00    +0.000 N 
ATOM     23  H   UNL     1      -3.785  12.760  19.301  0.00  0.00    +0.000 HD
BRANCH  20  24
ATOM     24  C   UNL     1      -5.931  12.638  17.958  0.00  0.00    +0.000 C 
BRANCH  24  28
ATOM     25  C   UNL     1      -6.831  14.074  22.771  0.00  0.00    +0.000 C 
ATOM     26  C   UNL     1      -6.613  13.379  21.484  0.00  0.00    +0.000 A 
ATOM     27  C   UNL     1      -6.466  13.850  20.197  0.00  0.00    +0.000 A 
ATOM     28  C   UNL     1      -6.247  12.701  19.408  0.00  0.00    +0.000 A 
ATOM     29  N   UNL     1      -6.282  11.582  20.142  0.00  0.00    +0.000 NA
ATOM     30  N   UNL     1      -6.498  12.018  21.393  0.00  0.00    +0.000 N 
ATOM     31  H   UNL     1      -6.540  11.336  22.143  0.00  0.00    +0.000 HD
ENDBRANCH  24  28
ENDBRANCH  20  24
ENDBRANCH   1  22
TORSDOF 6
ENDMDL
MODEL 9
REMARK VINA RESULT:      -7.7      3.024      3.993
REMARK  Name = 
REMARK  7 active torsions:
REMARK  status: ('A' for Active; 'I' for Inactive)
REMARK    1  A    between atoms: C_1  and  C_2
REMARK    2  A    between atoms: C_4  and  C_5
REMARK    3  A    between atoms: C_5  and  C_6
REMARK    4  A    between atoms: N_8  and  C_9
REMARK    5  A    between atoms: N_13  and  C_14
REMARK    6  A    between atoms: C_17  and  O_18
REMARK    7  A    between atoms: O_18  and  C_19
REMARK                            x       y       z     vdW  Elec       q    Type
REMARK                         _______ _______ _______ _____ _____    ______ ____
ROOT
ATOM      1  C   UNL     1      -0.784  11.206  20.693  0.00  0.00    +0.000 C 
ATOM      2  C   UNL     1      -1.169  11.418  19.239  0.00  0.00    +0.000 C 
ATOM      3  C   UNL     1      -0.481  10.275  18.551  0.00  0.00    +0.000 C 
ATOM      4  O   UNL     1      -0.841   9.863  17.457  0.00  0.00    +0.000 OA
ATOM      5  N   UNL     1       0.567   9.836  19.375  0.00  0.00    +0.000 N 
ATOM      6  C   UNL     1       0.629  10.631  20.588  0.00  0.00    +0.000 C 
ENDROOT
BRANCH   5   7
ATOM      7  C   UNL     1       1.450   8.766  19.064  0.00  0.00    +0.000 A 
ATOM      8  C   UNL     1       1.635   7.716  19.972  0.00  0.00    +0.000 A 
ATOM      9  C   UNL     1       2.555   6.691  19.736  0.00  0.00    +0.000 A 
ATOM     10  C   UNL     1       3.275   6.659  18.547  0.00  0.00    +0.000 A 
ATOM     11  C   UNL     1       3.116   7.701  17.633  0.00  0.00    +0.000 A 
ATOM     12  C   UNL     1       2.199   8.739  17.880  0.00  0.00    +0.000 A 
BRANCH  10  13
ATOM     13  O   UNL     1       4.198   5.690  18.226  0.00  0.00    +0.000 OA
BRANCH  13  14
ATOM     14  C   UNL     1       3.849   4.358  18.297  0.00  0.00    +0.000 A 
ATOM     15  C   UNL     1       2.964   3.728  17.416  0.00  0.00    +0.000 A 
ATOM     16  C   UNL     1       2.658   2.374  17.575  0.00  0.00    +0.000 A 
ATOM     17  C   UNL     1       3.280   1.632  18.578  0.00  0.00    +0.000 A 
ATOM     18  C   UNL     1       4.208   2.242  19.421  0.00  0.00    +0.000 A 
ATOM     19  C   UNL     1       4.491   3.602  19.283  0.00  0.00    +0.000 A 
ENDBRANCH  13  14
ENDBRANCH  10  13
ENDBRANCH   5   7
BRANCH   1  22
ATOM     20  C   UNL     1      -1.151  12.385  22.833  0.00  0.00    +0.000 C 
ATOM     21  O   UNL     1      -1.000  11.363  23.495  0.00  0.00    +0.000 OA
ATOM     22  N   UNL     1      -0.943  12.421  21.469  0.00  0.00    +0.000 N 
ATOM     23  H   UNL     1      -1.038  13.309  20.990  0.00  0.00    +0.000 HD
BRANCH  20  24
ATOM     24  C   UNL     1      -1.638  13.694  23.423  0.00  0.00    +0.000 C 
BRANCH  24  28
ATOM     25  C   UNL     1      -6.510  15.162  23.794  0.00  0.00    +0.000 C 
ATOM     26  C   UNL     1      -5.206  14.538  23.486  0.00  0.00    +0.000 A 
ATOM     27  C   UNL     1      -3.917  14.878  23.838  0.00  0.00    +0.000 A 
ATOM     28  C   UNL     1      -3.105  13.872  23.272  0.00  0.00    +0.000 A 
ATOM     29  N   UNL     1      -3.828  12.978  22.588  0.00  0.00    +0.000 NA
ATOM     30  N   UNL     1      -5.095  13.398  22.739  0.00  0.00    +0.000 N 
ATOM     31  H   UNL     1      -5.839  12.851  22.317  0.00  0.00    +0.000 HD
ENDBRANCH  24  28
ENDBRANCH  20  24
ENDBRANCH   1  22
TORSDOF 6
ENDMDL
