MODEL 1
REMARK VINA RESULT:      -8.9      0.000      0.000
REMARK  Name = 
REMARK  7 active torsions:
REMARK  status: ('A' for Active; 'I' for Inactive)
REMARK    1  A    between atoms: C_1  and  C_2
REMARK    2  A    between atoms: C_2  and  N_3
REMARK    3  A    between atoms: N_3  and  C_4
REMARK    4  A    between atoms: C_4  and  C_5
REMARK    5  A    between atoms: C_14  and  C_16
REMARK    6  A    between atoms: N_23  and  C_24
REMARK    7  A    between atoms: C_24  and  C_25
REMARK                            x       y       z     vdW  Elec       q    Type
REMARK                         _______ _______ _______ _____ _____    ______ ____
ROOT
ATOM      1  C   UNL     1       4.418   3.957  17.597  0.00  0.00    +0.000 A 
ATOM      2  C   UNL     1       5.598   4.186  18.342  0.00  0.00    +0.000 A 
ATOM      3  C   UNL     1       6.760   4.672  17.730  0.00  0.00    +0.000 A 
ATOM      4  C   UNL     1       6.727   4.835  16.365  0.00  0.00    +0.000 A 
ATOM      5  N   UNL     1       7.738   5.252  15.508  0.00  0.00    +0.000 N 
ATOM      6  C   UNL     1       7.274   5.171  14.184  0.00  0.00    +0.000 A 
ATOM      7  O   UNL     1       7.911   5.439  13.182  0.00  0.00    +0.000 OA
ATOM      8  N   UNL     1       5.953   4.698  14.253  0.00  0.00    +0.000 N 
ATOM      9  C   UNL     1       5.603   4.525  15.599  0.00  0.00    +0.000 A 
ATOM     10  C   UNL     1       4.433   4.106  16.191  0.00  0.00    +0.000 A 
ATOM     11  H   UNL     1       8.670   5.531  15.756  0.00  0.00    +0.000 HD
ENDROOT
BRANCH   1  13
ATOM     12  N   UNL     1       2.727   3.822  19.499  0.00  0.00    +0.000 N 
ATOM     13  C   UNL     1       3.154   3.452  18.208  0.00  0.00    +0.000 C 
ATOM     14  O   UNL     1       2.513   2.693  17.480  0.00  0.00    +0.000 OA
BRANCH  12  16
ATOM     15  C   UNL     1       1.273   2.753  21.366  0.00  0.00    +0.000 C 
ATOM     16  C   UNL     1       1.404   3.365  19.975  0.00  0.00    +0.000 C 
ENDBRANCH  12  16
BRANCH  12  17
ATOM     17  C   UNL     1       3.199   5.056  20.157  0.00  0.00    +0.000 C 
BRANCH  17  18
ATOM     18  C   UNL     1       2.603   6.315  19.610  0.00  0.00    +0.000 A 
ATOM     19  C   UNL     1       2.682   7.017  18.421  0.00  0.00    +0.000 A 
ATOM     20  C   UNL     1       2.019   8.263  18.624  0.00  0.00    +0.000 A 
ATOM     21  C   UNL     1       1.812   9.434  17.869  0.00  0.00    +0.000 A 
ATOM     22  C   UNL     1       1.111  10.503  18.453  0.00  0.00    +0.000 A 
ATOM     23  C   UNL     1       0.606  10.405  19.753  0.00  0.00    +0.000 A 
ATOM     24  C   UNL     1       0.792   9.246  20.514  0.00  0.00    +0.000 A 
ATOM     25  C   UNL     1       1.513   8.212  19.916  0.00  0.00    +0.000 A 
ATOM     26  O   UNL     1       1.850   7.032  20.507  0.00  0.00    +0.000 OA
ENDBRANCH  17  18
ENDBRANCH  12  17
ENDBRANCH   1  13
BRANCH   8  27
ATOM     27  C   UNL     1       5.155   4.361  13.093  0.00  0.00    +0.000 C 
BRANCH  27  28
ATOM     28  C   UNL     1       5.710   3.249  12.207  0.00  0.00    +0.000 C 
ATOM     29  F   UNL     1       4.757   2.611  11.496  0.00  0.00    +0.000 F 
ATOM     30  F   UNL     1       6.630   3.723  11.337  0.00  0.00    +0.000 F 
ATOM     31  F   UNL     1       6.331   2.314  12.969  0.00  0.00    +0.000 F 
ENDBRANCH  27  28
ENDBRANCH   8  27
TORSDOF 6
ENDMDL
MODEL 2
REMARK VINA RESULT:      -8.7      3.291      4.695
REMARK  Name = 
REMARK  7 active torsions:
REMARK  status: ('A' for Active; 'I' for Inactive)
REMARK    1  A    between atoms: C_1  and  C_2
REMARK    2  A    between atoms: C_2  and  N_3
REMARK    3  A    between atoms: N_3  and  C_4
REMARK    4  A    between atoms: C_4  and  C_5
REMARK    5  A    between atoms: C_14  and  C_16
REMARK    6  A    between atoms: N_23  and  C_24
REMARK    7  A    between atoms: C_24  and  C_25
REMARK                            x       y       z     vdW  Elec       q    Type
REMARK                         _______ _______ _______ _____ _____    ______ ____
ROOT
ATOM      1  C   UNL     1       3.028   5.514  19.120  0.00  0.00    +0.000 A 
ATOM      2  C   UNL     1       2.499   4.692  18.099  0.00  0.00    +0.000 A 
ATOM      3  C   UNL     1       3.337   4.027  17.195  0.00  0.00    +0.000 A 
ATOM      4  C   UNL     1       4.685   4.277  17.292  0.00  0.00    +0.000 A 
ATOM      5  N   UNL     1       5.725   3.795  16.505  0.00  0.00    +0.000 N 
ATOM      6  C   UNL     1       6.924   4.401  16.915  0.00  0.00    +0.000 A 
ATOM      7  O   UNL     1       8.024   4.224  16.423  0.00  0.00    +0.000 OA
ATOM      8  N   UNL     1       6.594   5.262  17.975  0.00  0.00    +0.000 N 
ATOM      9  C   UNL     1       5.220   5.159  18.232  0.00  0.00    +0.000 A 
ATOM     10  C   UNL     1       4.418   5.772  19.167  0.00  0.00    +0.000 A 
ATOM     11  H   UNL     1       5.659   3.153  15.736  0.00  0.00    +0.000 HD
ENDROOT
BRANCH   1  13
ATOM     12  N   UNL     1       1.957   7.624  20.066  0.00  0.00    +0.000 N 
ATOM     13  C   UNL     1       2.175   6.232  20.112  0.00  0.00    +0.000 C 
ATOM     14  O   UNL     1       1.672   5.501  20.964  0.00  0.00    +0.000 OA
BRANCH  12  16
ATOM     15  C   UNL     1       1.531   9.006  22.222  0.00  0.00    +0.000 C 
ATOM     16  C   UNL     1       1.004   8.232  21.018  0.00  0.00    +0.000 C 
ENDBRANCH  12  16
BRANCH  12  17
ATOM     17  C   UNL     1       2.134   8.405  18.826  0.00  0.00    +0.000 C 
BRANCH  17  18
ATOM     18  C   UNL     1       1.053   9.408  18.568  0.00  0.00    +0.000 A 
ATOM     19  C   UNL     1       0.729  10.664  19.049  0.00  0.00    +0.000 A 
ATOM     20  C   UNL     1      -0.558  10.993  18.530  0.00  0.00    +0.000 A 
ATOM     21  C   UNL     1      -1.473  12.053  18.686  0.00  0.00    +0.000 A 
ATOM     22  C   UNL     1      -2.701  11.995  18.007  0.00  0.00    +0.000 A 
ATOM     23  C   UNL     1      -3.010  10.918  17.172  0.00  0.00    +0.000 A 
ATOM     24  C   UNL     1      -2.110   9.861  16.995  0.00  0.00    +0.000 A 
ATOM     25  C   UNL     1      -0.909   9.935  17.702  0.00  0.00    +0.000 A 
ATOM     26  O   UNL     1       0.068   8.986  17.710  0.00  0.00    +0.000 OA
ENDBRANCH  17  18
ENDBRANCH  12  17
ENDBRANCH   1  13
BRANCH   8  27
ATOM     27  C   UNL     1       7.533   6.167  18.603  0.00  0.00    +0.000 C 
BRANCH  27  28
ATOM     28  C   UNL     1       7.698   7.525  17.926  0.00  0.00    +0.000 C 
ATOM     29  F   UNL     1       6.541   8.212  17.824  0.00  0.00    +0.000 F 
ATOM     30  F   UNL     1       8.585   8.303  18.588  0.00  0.00    +0.000 F 
ATOM     31  F   UNL     1       8.177   7.362  16.667  0.00  0.00    +0.000 F 
ENDBRANCH  27  28
ENDBRANCH   8  27
TORSDOF 6
ENDMDL
MODEL 3
REMARK VINA RESULT:      -8.5      3.216      4.678
REMARK  Name = 
REMARK  7 active torsions:
REMARK  status: ('A' for Active; 'I' for Inactive)
REMARK    1  A    between atoms: C_1  and  C_2
REMARK    2  A    between atoms: C_2  and  N_3
REMARK    3  A    between atoms: N_3  and  C_4
REMARK    4  A    between atoms: C_4  and  C_5
REMARK    5  A    between atoms: C_14  and  C_16
REMARK    6  A    between atoms: N_23  and  C_24
REMARK    7  A    between atoms: C_24  and  C_25
REMARK                            x       y       z     vdW  Elec       q    Type
REMARK                         _______ _______ _______ _____ _____    ______ ____
ROOT
ATOM      1  C   UNL     1       3.009   5.544  19.155  0.00  0.00    +0.000 A 
ATOM      2  C   UNL     1       2.459   4.738  18.132  0.00  0.00    +0.000 A 
ATOM      3  C   UNL     1       3.279   4.092  17.198  0.00  0.00    +0.000 A 
ATOM      4  C   UNL     1       4.628   4.345  17.269  0.00  0.00    +0.000 A 
ATOM      5  N   UNL     1       5.651   3.881  16.450  0.00  0.00    +0.000 N 
ATOM      6  C   UNL     1       6.858   4.484  16.843  0.00  0.00    +0.000 A 
ATOM      7  O   UNL     1       7.946   4.320  16.323  0.00  0.00    +0.000 OA
ATOM      8  N   UNL     1       6.549   5.326  17.925  0.00  0.00    +0.000 N 
ATOM      9  C   UNL     1       5.181   5.213  18.211  0.00  0.00    +0.000 A 
ATOM     10  C   UNL     1       4.399   5.807  19.176  0.00  0.00    +0.000 A 
ATOM     11  H   UNL     1       5.570   3.253  15.671  0.00  0.00    +0.000 HD
ENDROOT
BRANCH   1  13
ATOM     12  N   UNL     1       1.835   7.606  20.085  0.00  0.00    +0.000 N 
ATOM     13  C   UNL     1       2.177   6.242  20.179  0.00  0.00    +0.000 C 
ATOM     14  O   UNL     1       1.808   5.518  21.104  0.00  0.00    +0.000 OA
BRANCH  12  16
ATOM     15  C   UNL     1       1.467   8.996  22.247  0.00  0.00    +0.000 C 
ATOM     16  C   UNL     1       0.909   8.183  21.083  0.00  0.00    +0.000 C 
ENDBRANCH  12  16
BRANCH  12  17
ATOM     17  C   UNL     1       1.844   8.330  18.799  0.00  0.00    +0.000 C 
BRANCH  17  18
ATOM     18  C   UNL     1       1.169   9.665  18.836  0.00  0.00    +0.000 A 
ATOM     19  C   UNL     1      -0.088  10.151  18.526  0.00  0.00    +0.000 A 
ATOM     20  C   UNL     1      -0.017  11.574  18.593  0.00  0.00    +0.000 A 
ATOM     21  C   UNL     1      -0.890  12.646  18.325  0.00  0.00    +0.000 A 
ATOM     22  C   UNL     1      -0.420  13.961  18.482  0.00  0.00    +0.000 A 
ATOM     23  C   UNL     1       0.884  14.210  18.917  0.00  0.00    +0.000 A 
ATOM     24  C   UNL     1       1.763  13.158  19.199  0.00  0.00    +0.000 A 
ATOM     25  C   UNL     1       1.276  11.865  19.010  0.00  0.00    +0.000 A 
ATOM     26  O   UNL     1       1.988  10.715  19.173  0.00  0.00    +0.000 OA
ENDBRANCH  17  18
ENDBRANCH  12  17
ENDBRANCH   1  13
BRANCH   8  27
ATOM     27  C   UNL     1       7.499   6.223  18.547  0.00  0.00    +0.000 C 
BRANCH  27  28
ATOM     28  C   UNL     1       7.689   7.570  17.856  0.00  0.00    +0.000 C 
ATOM     29  F   UNL     1       8.542   8.387  18.509  0.00  0.00    +0.000 F 
ATOM     30  F   UNL     1       8.146   7.418  16.592  0.00  0.00    +0.000 F 
ATOM     31  F   UNL     1       6.502   8.221  17.772  0.00  0.00    +0.000 F 
ENDBRANCH  27  28
ENDBRANCH   8  27
TORSDOF 6
ENDMDL
MODEL 4
REMARK VINA RESULT:      -8.3      1.217      1.702
REMARK  Name = 
REMARK  7 active torsions:
REMARK  status: ('A' for Active; 'I' for Inactive)
REMARK    1  A    between atoms: C_1  and  C_2
REMARK    2  A    between atoms: C_2  and  N_3
REMARK    3  A    between atoms: N_3  and  C_4
REMARK    4  A    between atoms: C_4  and  C_5
REMARK    5  A    between atoms: C_14  and  C_16
REMARK    6  A    between atoms: N_23  and  C_24
REMARK    7  A    between atoms: C_24  and  C_25
REMARK                            x       y       z     vdW  Elec       q    Type
REMARK                         _______ _______ _______ _____ _____    ______ ____
ROOT
ATOM      1  C   UNL     1       5.024   4.153  18.322  0.00  0.00    +0.000 A 
ATOM      2  C   UNL     1       5.766   5.220  18.880  0.00  0.00    +0.000 A 
ATOM      3  C   UNL     1       6.642   5.983  18.097  0.00  0.00    +0.000 A 
ATOM      4  C   UNL     1       6.810   5.594  16.788  0.00  0.00    +0.000 A 
ATOM      5  N   UNL     1       7.640   6.136  15.814  0.00  0.00    +0.000 N 
ATOM      6  C   UNL     1       7.553   5.349  14.653  0.00  0.00    +0.000 A 
ATOM      7  O   UNL     1       8.168   5.525  13.617  0.00  0.00    +0.000 OA
ATOM      8  N   UNL     1       6.646   4.315  14.940  0.00  0.00    +0.000 N 
ATOM      9  C   UNL     1       6.160   4.487  16.243  0.00  0.00    +0.000 A 
ATOM     10  C   UNL     1       5.249   3.764  16.980  0.00  0.00    +0.000 A 
ATOM     11  H   UNL     1       8.248   6.931  15.904  0.00  0.00    +0.000 HD
ENDROOT
BRANCH   1  13
ATOM     12  N   UNL     1       2.770   3.751  19.439  0.00  0.00    +0.000 N 
ATOM     13  C   UNL     1       4.072   3.321  19.113  0.00  0.00    +0.000 C 
ATOM     14  O   UNL     1       4.520   2.224  19.446  0.00  0.00    +0.000 OA
BRANCH  12  16
ATOM     15  C   UNL     1       1.827   2.767  21.649  0.00  0.00    +0.000 C 
ATOM     16  C   UNL     1       1.856   2.813  20.125  0.00  0.00    +0.000 C 
ENDBRANCH  12  16
BRANCH  12  17
ATOM     17  C   UNL     1       2.073   4.797  18.665  0.00  0.00    +0.000 C 
BRANCH  17  18
ATOM     18  C   UNL     1       1.918   6.100  19.385  0.00  0.00    +0.000 A 
ATOM     19  C   UNL     1       1.687   6.491  20.692  0.00  0.00    +0.000 A 
ATOM     20  C   UNL     1       1.440   7.895  20.672  0.00  0.00    +0.000 A 
ATOM     21  C   UNL     1       1.073   8.872  21.618  0.00  0.00    +0.000 A 
ATOM     22  C   UNL     1       0.883  10.196  21.188  0.00  0.00    +0.000 A 
ATOM     23  C   UNL     1       1.074  10.550  19.849  0.00  0.00    +0.000 A 
ATOM     24  C   UNL     1       1.449   9.597  18.897  0.00  0.00    +0.000 A 
ATOM     25  C   UNL     1       1.606   8.286  19.351  0.00  0.00    +0.000 A 
ATOM     26  O   UNL     1       1.910   7.208  18.575  0.00  0.00    +0.000 OA
ENDBRANCH  17  18
ENDBRANCH  12  17
ENDBRANCH   1  13
BRANCH   8  27
ATOM     27  C   UNL     1       6.365   3.214  14.043  0.00  0.00    +0.000 C 
BRANCH  27  28
ATOM     28  C   UNL     1       5.746   3.595  12.701  0.00  0.00    +0.000 C 
ATOM     29  F   UNL     1       6.614   4.209  11.870  0.00  0.00    +0.000 F 
ATOM     30  F   UNL     1       5.251   2.512  12.059  0.00  0.00    +0.000 F 
ATOM     31  F   UNL     1       4.709   4.448  12.893  0.00  0.00    +0.000 F 
ENDBRANCH  27  28
ENDBRANCH   8  27
TORSDOF 6
ENDMDL
MODEL 5
REMARK VINA RESULT:      -8.3      4.216      6.699
REMARK  Name = 
REMARK  7 active torsions:
REMARK  status: ('A' for Active; 'I' for Inactive)
REMARK    1  A    between atoms: C_1  and  C_2
REMARK    2  A    between atoms: C_2  and  N_3
REMARK    3  A    between atoms: N_3  and  C_4
REMARK    4  A    between atoms: C_4  and  C_5
REMARK    5  A    between atoms: C_14  and  C_16
REMARK    6  A    between atoms: N_23  and  C_24
REMARK    7  A    between atoms: C_24  and  C_25
REMARK                            x       y       z     vdW  Elec       q    Type
REMARK                         _______ _______ _______ _____ _____    ______ ____
ROOT
ATOM      1  C   UNL     1       1.660   8.022  19.965  0.00  0.00    +0.000 A 
ATOM      2  C   UNL     1       2.262   8.577  18.813  0.00  0.00    +0.000 A 
ATOM      3  C   UNL     1       2.948   7.772  17.894  0.00  0.00    +0.000 A 
ATOM      4  C   UNL     1       3.079   6.440  18.206  0.00  0.00    +0.000 A 
ATOM      5  N   UNL     1       3.741   5.438  17.505  0.00  0.00    +0.000 N 
ATOM      6  C   UNL     1       3.695   4.251  18.257  0.00  0.00    +0.000 A 
ATOM      7  O   UNL     1       4.197   3.186  17.950  0.00  0.00    +0.000 OA
ATOM      8  N   UNL     1       2.986   4.551  19.432  0.00  0.00    +0.000 N 
ATOM      9  C   UNL     1       2.574   5.890  19.384  0.00  0.00    +0.000 A 
ATOM     10  C   UNL     1       1.845   6.653  20.268  0.00  0.00    +0.000 A 
ATOM     11  H   UNL     1       4.220   5.523  16.627  0.00  0.00    +0.000 HD
ENDROOT
BRANCH   1  13
ATOM     12  N   UNL     1       0.679  10.219  20.806  0.00  0.00    +0.000 N 
ATOM     13  C   UNL     1       0.910   8.837  20.966  0.00  0.00    +0.000 C 
ATOM     14  O   UNL     1       0.504   8.195  21.934  0.00  0.00    +0.000 OA
BRANCH  12  16
ATOM     15  C   UNL     1      -0.155  12.444  21.852  0.00  0.00    +0.000 C 
ATOM     16  C   UNL     1      -0.174  10.920  21.789  0.00  0.00    +0.000 C 
ENDBRANCH  12  16
BRANCH  12  17
ATOM     17  C   UNL     1       0.719  10.873  19.485  0.00  0.00    +0.000 C 
BRANCH  17  18
ATOM     18  C   UNL     1      -0.479  10.609  18.627  0.00  0.00    +0.000 A 
ATOM     19  C   UNL     1      -0.758   9.819  17.526  0.00  0.00    +0.000 A 
ATOM     20  C   UNL     1      -2.054  10.188  17.061  0.00  0.00    +0.000 A 
ATOM     21  C   UNL     1      -2.876   9.842  15.970  0.00  0.00    +0.000 A 
ATOM     22  C   UNL     1      -4.122  10.476  15.831  0.00  0.00    +0.000 A 
ATOM     23  C   UNL     1      -4.555  11.421  16.765  0.00  0.00    +0.000 A 
ATOM     24  C   UNL     1      -3.758  11.771  17.860  0.00  0.00    +0.000 A 
ATOM     25  C   UNL     1      -2.516  11.142  17.958  0.00  0.00    +0.000 A 
ATOM     26  O   UNL     1      -1.575  11.385  18.913  0.00  0.00    +0.000 OA
ENDBRANCH  17  18
ENDBRANCH  12  17
ENDBRANCH   1  13
BRANCH   8  27
ATOM     27  C   UNL     1       2.818   3.626  20.533  0.00  0.00    +0.000 C 
BRANCH  27  28
ATOM     28  C   UNL     1       1.477   2.900  20.590  0.00  0.00    +0.000 C 
ATOM     29  F   UNL     1       0.461   3.619  20.068  0.00  0.00    +0.000 F 
ATOM     30  F   UNL     1       1.525   1.717  19.937  0.00  0.00    +0.000 F 
ATOM     31  F   UNL     1       1.150   2.628  21.878  0.00  0.00    +0.000 F 
ENDBRANCH  27  28
ENDBRANCH   8  27
TORSDOF 6
ENDMDL
MODEL 6
REMARK VINA RESULT:      -8.2      3.215      4.682
REMARK  Name = 
REMARK  7 active torsions:
REMARK  status: ('A' for Active; 'I' for Inactive)
REMARK    1  A    between atoms: C_1  and  C_2
REMARK    2  A    between atoms: C_2  and  N_3
REMARK    3  A    between atoms: N_3  and  C_4
REMARK    4  A    between atoms: C_4  and  C_5
REMARK    5  A    between atoms: C_14  and  C_16
REMARK    6  A    between atoms: N_23  and  C_24
REMARK    7  A    between atoms: C_24  and  C_25
REMARK                            x       y       z     vdW  Elec       q    Type
REMARK                         _______ _______ _______ _____ _____    ______ ____
ROOT
ATOM      1  C   UNL     1       3.046   5.630  19.069  0.00  0.00    +0.000 A 
ATOM      2  C   UNL     1       2.527   4.760  18.083  0.00  0.00    +0.000 A 
ATOM      3  C   UNL     1       3.375   4.045  17.228  0.00  0.00    +0.000 A 
ATOM      4  C   UNL     1       4.724   4.291  17.335  0.00  0.00    +0.000 A 
ATOM      5  N   UNL     1       5.772   3.762  16.591  0.00  0.00    +0.000 N 
ATOM      6  C   UNL     1       6.969   4.381  16.989  0.00  0.00    +0.000 A 
ATOM      7  O   UNL     1       8.076   4.172  16.525  0.00  0.00    +0.000 OA
ATOM      8  N   UNL     1       6.628   5.297  17.998  0.00  0.00    +0.000 N 
ATOM      9  C   UNL     1       5.249   5.216  18.237  0.00  0.00    +0.000 A 
ATOM     10  C   UNL     1       4.437   5.881  19.127  0.00  0.00    +0.000 A 
ATOM     11  H   UNL     1       5.715   3.083  15.854  0.00  0.00    +0.000 HD
ENDROOT
BRANCH   1  13
ATOM     12  N   UNL     1       1.825   7.748  19.787  0.00  0.00    +0.000 N 
ATOM     13  C   UNL     1       2.183   6.403  20.009  0.00  0.00    +0.000 C 
ATOM     14  O   UNL     1       1.802   5.759  20.987  0.00  0.00    +0.000 OA
BRANCH  12  16
ATOM     15  C   UNL     1       1.382   9.032  22.000  0.00  0.00    +0.000 C 
ATOM     16  C   UNL     1       0.871   8.398  20.710  0.00  0.00    +0.000 C 
ENDBRANCH  12  16
BRANCH  12  17
ATOM     17  C   UNL     1       1.854   8.356  18.443  0.00  0.00    +0.000 C 
BRANCH  17  18
ATOM     18  C   UNL     1       1.542   9.820  18.418  0.00  0.00    +0.000 A 
ATOM     19  C   UNL     1       2.275  10.990  18.351  0.00  0.00    +0.000 A 
ATOM     20  C   UNL     1       1.369  12.067  18.577  0.00  0.00    +0.000 A 
ATOM     21  C   UNL     1       1.471  13.466  18.715  0.00  0.00    +0.000 A 
ATOM     22  C   UNL     1       0.308  14.209  18.978  0.00  0.00    +0.000 A 
ATOM     23  C   UNL     1      -0.937  13.582  19.081  0.00  0.00    +0.000 A 
ATOM     24  C   UNL     1      -1.060  12.195  18.937  0.00  0.00    +0.000 A 
ATOM     25  C   UNL     1       0.116  11.482  18.701  0.00  0.00    +0.000 A 
ATOM     26  O   UNL     1       0.215  10.128  18.590  0.00  0.00    +0.000 OA
ENDBRANCH  17  18
ENDBRANCH  12  17
ENDBRANCH   1  13
BRANCH   8  27
ATOM     27  C   UNL     1       7.564   6.226  18.595  0.00  0.00    +0.000 C 
BRANCH  27  28
ATOM     28  C   UNL     1       7.724   7.561  17.873  0.00  0.00    +0.000 C 
ATOM     29  F   UNL     1       8.574   8.404  18.496  0.00  0.00    +0.000 F 
ATOM     30  F   UNL     1       8.163   7.389  16.606  0.00  0.00    +0.000 F 
ATOM     31  F   UNL     1       6.525   8.193  17.793  0.00  0.00    +0.000 F 
ENDBRANCH  27  28
ENDBRANCH   8  27
TORSDOF 6
ENDMDL
MODEL 7
REMARK VINA RESULT:      -8.2      0.595      1.124
REMARK  Name = 
REMARK  7 active torsions:
REMARK  status: ('A' for Active; 'I' for Inactive)
REMARK    1  A    between atoms: C_1  and  C_2
REMARK    2  A    between atoms: C_2  and  N_3
REMARK    3  A    between atoms: N_3  and  C_4
REMARK    4  A    between atoms: C_4  and  C_5
REMARK    5  A    between atoms: C_14  and  C_16
REMARK    6  A    between atoms: N_23  and  C_24
REMARK    7  A    between atoms: C_24  and  C_25
REMARK                            x       y       z     vdW  Elec       q    Type
REMARK                         _______ _______ _______ _____ _____    ______ ____
ROOT
ATOM      1  C   UNL     1       4.302   4.051  17.300  0.00  0.00    +0.000 A 
ATOM      2  C   UNL     1       5.457   4.286  18.081  0.00  0.00    +0.000 A 
ATOM      3  C   UNL     1       6.648   4.737  17.498  0.00  0.00    +0.000 A 
ATOM      4  C   UNL     1       6.667   4.858  16.129  0.00  0.00    +0.000 A 
ATOM      5  N   UNL     1       7.715   5.235  15.297  0.00  0.00    +0.000 N 
ATOM      6  C   UNL     1       7.299   5.119  13.960  0.00  0.00    +0.000 A 
ATOM      7  O   UNL     1       7.976   5.346  12.974  0.00  0.00    +0.000 OA
ATOM      8  N   UNL     1       5.969   4.667  13.994  0.00  0.00    +0.000 N 
ATOM      9  C   UNL     1       5.567   4.541  15.331  0.00  0.00    +0.000 A 
ATOM     10  C   UNL     1       4.370   4.156  15.891  0.00  0.00    +0.000 A 
ATOM     11  H   UNL     1       8.642   5.508  15.571  0.00  0.00    +0.000 HD
ENDROOT
BRANCH   1  13
ATOM     12  N   UNL     1       2.682   3.733  19.241  0.00  0.00    +0.000 N 
ATOM     13  C   UNL     1       3.009   3.582  17.879  0.00  0.00    +0.000 C 
ATOM     14  O   UNL     1       2.250   3.064  17.059  0.00  0.00    +0.000 OA
BRANCH  12  16
ATOM     15  C   UNL     1       1.145   2.787  21.108  0.00  0.00    +0.000 C 
ATOM     16  C   UNL     1       1.331   3.346  19.701  0.00  0.00    +0.000 C 
ENDBRANCH  12  16
BRANCH  12  17
ATOM     17  C   UNL     1       3.329   4.747  20.096  0.00  0.00    +0.000 C 
BRANCH  17  18
ATOM     18  C   UNL     1       2.723   6.113  20.002  0.00  0.00    +0.000 A 
ATOM     19  C   UNL     1       1.876   6.879  20.782  0.00  0.00    +0.000 A 
ATOM     20  C   UNL     1       1.520   8.026  20.013  0.00  0.00    +0.000 A 
ATOM     21  C   UNL     1       0.658   9.128  20.177  0.00  0.00    +0.000 A 
ATOM     22  C   UNL     1       0.550  10.066  19.137  0.00  0.00    +0.000 A 
ATOM     23  C   UNL     1       1.298   9.928  17.965  0.00  0.00    +0.000 A 
ATOM     24  C   UNL     1       2.168   8.847  17.788  0.00  0.00    +0.000 A 
ATOM     25  C   UNL     1       2.235   7.919  18.828  0.00  0.00    +0.000 A 
ATOM     26  O   UNL     1       2.974   6.775  18.825  0.00  0.00    +0.000 OA
ENDBRANCH  17  18
ENDBRANCH  12  17
ENDBRANCH   1  13
BRANCH   8  27
ATOM     27  C   UNL     1       5.209   4.305  12.817  0.00  0.00    +0.000 C 
BRANCH  27  28
ATOM     28  C   UNL     1       5.677   3.049  12.086  0.00  0.00    +0.000 C 
ATOM     29  F   UNL     1       4.726   2.509  11.295  0.00  0.00    +0.000 F 
ATOM     30  F   UNL     1       6.762   3.299  11.318  0.00  0.00    +0.000 F 
ATOM     31  F   UNL     1       6.038   2.097  12.982  0.00  0.00    +0.000 F 
ENDBRANCH  27  28
ENDBRANCH   8  27
TORSDOF 6
ENDMDL
MODEL 8
REMARK VINA RESULT:      -8.2      4.958      8.302
REMARK  Name = 
REMARK  7 active torsions:
REMARK  status: ('A' for Active; 'I' for Inactive)
REMARK    1  A    between atoms: C_1  and  C_2
REMARK    2  A    between atoms: C_2  and  N_3
REMARK    3  A    between atoms: N_3  and  C_4
REMARK    4  A    between atoms: C_4  and  C_5
REMARK    5  A    between atoms: C_14  and  C_16
REMARK    6  A    between atoms: N_23  and  C_24
REMARK    7  A    between atoms: C_24  and  C_25
REMARK                            x       y       z     vdW  Elec       q    Type
REMARK                         _______ _______ _______ _____ _____    ______ ____
ROOT
ATOM      1  C   UNL     1       2.374   6.251  19.209  0.00  0.00    +0.000 A 
ATOM      2  C   UNL     1       2.268   6.680  17.867  0.00  0.00    +0.000 A 
ATOM      3  C   UNL     1       2.001   8.019  17.551  0.00  0.00    +0.000 A 
ATOM      4  C   UNL     1       1.764   8.873  18.602  0.00  0.00    +0.000 A 
ATOM      5  N   UNL     1       1.434  10.224  18.575  0.00  0.00    +0.000 N 
ATOM      6  C   UNL     1       1.187  10.657  19.889  0.00  0.00    +0.000 A 
ATOM      7  O   UNL     1       0.851  11.778  20.224  0.00  0.00    +0.000 OA
ATOM      8  N   UNL     1       1.379   9.541  20.720  0.00  0.00    +0.000 N 
ATOM      9  C   UNL     1       1.770   8.450  19.931  0.00  0.00    +0.000 A 
ATOM     10  C   UNL     1       2.092   7.153  20.262  0.00  0.00    +0.000 A 
ATOM     11  H   UNL     1       1.336  10.811  17.767  0.00  0.00    +0.000 HD
ENDROOT
BRANCH   1  13
ATOM     12  N   UNL     1       3.915   4.228  19.356  0.00  0.00    +0.000 N 
ATOM     13  C   UNL     1       2.668   4.840  19.593  0.00  0.00    +0.000 C 
ATOM     14  O   UNL     1       1.731   4.263  20.145  0.00  0.00    +0.000 OA
BRANCH  12  16
ATOM     15  C   UNL     1       3.820   1.656  19.008  0.00  0.00    +0.000 C 
ATOM     16  C   UNL     1       4.155   2.865  19.876  0.00  0.00    +0.000 C 
ENDBRANCH  12  16
BRANCH  12  17
ATOM     17  C   UNL     1       5.150   5.012  19.162  0.00  0.00    +0.000 C 
BRANCH  17  18
ATOM     18  C   UNL     1       5.786   4.843  17.818  0.00  0.00    +0.000 A 
ATOM     19  C   UNL     1       6.947   5.280  17.207  0.00  0.00    +0.000 A 
ATOM     20  C   UNL     1       6.855   4.927  15.828  0.00  0.00    +0.000 A 
ATOM     21  C   UNL     1       7.634   5.140  14.674  0.00  0.00    +0.000 A 
ATOM     22  C   UNL     1       7.171   4.646  13.442  0.00  0.00    +0.000 A 
ATOM     23  C   UNL     1       5.969   3.936  13.359  0.00  0.00    +0.000 A 
ATOM     24  C   UNL     1       5.188   3.706  14.496  0.00  0.00    +0.000 A 
ATOM     25  C   UNL     1       5.661   4.229  15.700  0.00  0.00    +0.000 A 
ATOM     26  O   UNL     1       5.023   4.163  16.901  0.00  0.00    +0.000 OA
ENDBRANCH  17  18
ENDBRANCH  12  17
ENDBRANCH   1  13
BRANCH   8  27
ATOM     27  C   UNL     1       1.108   9.536  22.141  0.00  0.00    +0.000 C 
BRANCH  27  28
ATOM     28  C   UNL     1      -0.355   9.350  22.536  0.00  0.00    +0.000 C 
ATOM     29  F   UNL     1      -1.140  10.385  22.169  0.00  0.00    +0.000 F 
ATOM     30  F   UNL     1      -0.874   8.224  21.996  0.00  0.00    +0.000 F 
ATOM     31  F   UNL     1      -0.461   9.228  23.883  0.00  0.00    +0.000 F 
ENDBRANCH  27  28
ENDBRANCH   8  27
TORSDOF 6
ENDMDL
MODEL 9
REMARK VINA RESULT:      -8.2      4.935      8.395
REMARK  Name = 
REMARK  7 active torsions:
REMARK  status: ('A' for Active; 'I' for Inactive)
REMARK    1  A    between atoms: C_1  and  C_2
REMARK    2  A    between atoms: C_2  and  N_3
REMARK    3  A    between atoms: N_3  and  C_4
REMARK    4  A    between atoms: C_4  and  C_5
REMARK    5  A    between atoms: C_14  and  C_16
REMARK    6  A    between atoms: N_23  and  C_24
REMARK    7  A    between atoms: C_24  and  C_25
REMARK                            x       y       z     vdW  Elec       q    Type
REMARK                         _______ _______ _______ _____ _____    ______ ____
ROOT
ATOM      1  C   UNL     1       2.799   6.413  19.061  0.00  0.00    +0.000 A 
ATOM      2  C   UNL     1       3.183   6.957  17.814  0.00  0.00    +0.000 A 
ATOM      3  C   UNL     1       2.823   8.261  17.450  0.00  0.00    +0.000 A 
ATOM      4  C   UNL     1       2.012   8.952  18.319  0.00  0.00    +0.000 A 
ATOM      5  N   UNL     1       1.474  10.227  18.188  0.00  0.00    +0.000 N 
ATOM      6  C   UNL     1       0.624  10.476  19.280  0.00  0.00    +0.000 A 
ATOM      7  O   UNL     1      -0.027  11.487  19.468  0.00  0.00    +0.000 OA
ATOM      8  N   UNL     1       0.661   9.324  20.084  0.00  0.00    +0.000 N 
ATOM      9  C   UNL     1       1.544   8.398  19.511  0.00  0.00    +0.000 A 
ATOM     10  C   UNL     1       1.938   7.143  19.914  0.00  0.00    +0.000 A 
ATOM     11  H   UNL     1       1.612  10.872  17.432  0.00  0.00    +0.000 HD
ENDROOT
BRANCH   1  13
ATOM     12  N   UNL     1       4.275   4.338  18.972  0.00  0.00    +0.000 N 
ATOM     13  C   UNL     1       3.168   5.034  19.497  0.00  0.00    +0.000 C 
ATOM     14  O   UNL     1       2.428   4.566  20.363  0.00  0.00    +0.000 OA
BRANCH  12  16
ATOM     15  C   UNL     1       3.930   1.766  19.053  0.00  0.00    +0.000 C 
ATOM     16  C   UNL     1       4.635   3.025  19.548  0.00  0.00    +0.000 C 
ENDBRANCH  12  16
BRANCH  12  17
ATOM     17  C   UNL     1       5.409   5.034  18.335  0.00  0.00    +0.000 C 
BRANCH  17  18
ATOM     18  C   UNL     1       5.523   4.809  16.859  0.00  0.00    +0.000 A 
ATOM     19  C   UNL     1       4.874   4.027  15.921  0.00  0.00    +0.000 A 
ATOM     20  C   UNL     1       5.614   4.128  14.706  0.00  0.00    +0.000 A 
ATOM     21  C   UNL     1       5.546   3.542  13.427  0.00  0.00    +0.000 A 
ATOM     22  C   UNL     1       6.517   3.884  12.471  0.00  0.00    +0.000 A 
ATOM     23  C   UNL     1       7.524   4.806  12.768  0.00  0.00    +0.000 A 
ATOM     24  C   UNL     1       7.602   5.408  14.029  0.00  0.00    +0.000 A 
ATOM     25  C   UNL     1       6.638   5.029  14.965  0.00  0.00    +0.000 A 
ATOM     26  O   UNL     1       6.576   5.454  16.258  0.00  0.00    +0.000 OA
ENDBRANCH  17  18
ENDBRANCH  12  17
ENDBRANCH   1  13
BRANCH   8  27
ATOM     27  C   UNL     1      -0.173   9.127  21.251  0.00  0.00    +0.000 C 
BRANCH  27  28
ATOM     28  C   UNL     1       0.374   9.691  22.559  0.00  0.00    +0.000 C 
ATOM     29  F   UNL     1      -0.135   9.087  23.652  0.00  0.00    +0.000 F 
ATOM     30  F   UNL     1       1.721   9.589  22.617  0.00  0.00    +0.000 F 
ATOM     31  F   UNL     1       0.072  11.011  22.657  0.00  0.00    +0.000 F 
ENDBRANCH  27  28
ENDBRANCH   8  27
TORSDOF 6
ENDMDL
