MODEL 1
REMARK VINA RESULT:      -8.3      0.000      0.000
REMARK  Name = 
REMARK  6 active torsions:
REMARK  status: ('A' for Active; 'I' for Inactive)
REMARK    1  A    between atoms: C_1  and  C_2
REMARK    2  A    between atoms: C_2  and  N_3
REMARK    3  A    between atoms: C_2  and  C_23
REMARK    4  A    between atoms: C_4  and  C_6
REMARK    5  A    between atoms: C_9  and  C_10
REMARK    6  A    between atoms: C_13  and  C_14
REMARK                            x       y       z     vdW  Elec       q    Type
REMARK                         _______ _______ _______ _____ _____    ______ ____
ROOT
ATOM      1  C   UNL     1       2.001   7.300  19.160  0.00  0.00    +0.000 A 
ATOM      2  C   UNL     1       1.836   8.456  18.392  0.00  0.00    +0.000 A 
ATOM      3  C   UNL     1       1.417   9.651  19.000  0.00  0.00    +0.000 A 
ATOM      4  C   UNL     1       1.150   9.716  20.379  0.00  0.00    +0.000 A 
ATOM      5  C   UNL     1       1.282   8.543  21.133  0.00  0.00    +0.000 A 
ATOM      6  C   UNL     1       1.700   7.348  20.529  0.00  0.00    +0.000 A 
ENDROOT
BRANCH   4   7
ATOM      7  C   UNL     1       0.765  10.990  20.979  0.00  0.00    +0.000 A 
ATOM      8  N   UNL     1       1.373  12.159  20.925  0.00  0.00    +0.000 NA
ATOM      9  N   UNL     1       0.622  13.028  21.687  0.00  0.00    +0.000 NA
ATOM     10  C   UNL     1      -0.401  12.337  22.152  0.00  0.00    +0.000 A 
ATOM     11  O   UNL     1      -0.374  11.025  21.744  0.00  0.00    +0.000 OA
BRANCH  10  12
ATOM     12  C   UNL     1      -1.513  12.772  22.989  0.00  0.00    +0.000 A 
ATOM     13  C   UNL     1      -1.472  14.040  23.591  0.00  0.00    +0.000 A 
ATOM     14  C   UNL     1      -2.542  14.504  24.362  0.00  0.00    +0.000 A 
ATOM     15  C   UNL     1      -3.669  13.709  24.543  0.00  0.00    +0.000 A 
ATOM     16  C   UNL     1      -3.718  12.440  23.967  0.00  0.00    +0.000 A 
ATOM     17  C   UNL     1      -2.648  11.974  23.197  0.00  0.00    +0.000 A 
ENDBRANCH  10  12
ENDBRANCH   4   7
BRANCH   1  19
ATOM     18  N   UNL     1       3.588   5.415  19.124  0.00  0.00    +0.000 N 
ATOM     19  C   UNL     1       2.459   6.001  18.581  0.00  0.00    +0.000 C 
ATOM     20  O   UNL     1       1.812   5.486  17.674  0.00  0.00    +0.000 OA
ATOM     21  H   UNL     1       3.992   5.786  19.972  0.00  0.00    +0.000 HD
BRANCH  18  23
ATOM     22  C   UNL     1       4.319   3.162  19.844  0.00  0.00    +0.000 C 
ATOM     23  C   UNL     1       4.037   4.106  18.669  0.00  0.00    +0.000 C 
BRANCH  23  24
ATOM     24  C   UNL     1       5.243   4.215  17.755  0.00  0.00    +0.000 A 
ATOM     25  C   UNL     1       6.463   4.669  18.273  0.00  0.00    +0.000 A 
ATOM     26  C   UNL     1       7.536   4.844  17.413  0.00  0.00    +0.000 A 
ATOM     27  N   UNL     1       7.485   4.591  16.090  0.00  0.00    +0.000 NA
ATOM     28  C   UNL     1       6.311   4.137  15.607  0.00  0.00    +0.000 A 
ATOM     29  C   UNL     1       5.180   3.929  16.387  0.00  0.00    +0.000 A 
ENDBRANCH  23  24
ENDBRANCH  18  23
ENDBRANCH   1  19
TORSDOF 5
ENDMDL
MODEL 2
REMARK VINA RESULT:      -8.0      1.463      1.974
REMARK  Name = 
REMARK  6 active torsions:
REMARK  status: ('A' for Active; 'I' for Inactive)
REMARK    1  A    between atoms: C_1  and  C_2
REMARK    2  A    between atoms: C_2  and  N_3
REMARK    3  A    between atoms: C_2  and  C_23
REMARK    4  A    between atoms: C_4  and  C_6
REMARK    5  A    between atoms: C_9  and  C_10
REMARK    6  A    between atoms: C_13  and  C_14
REMARK                            x       y       z     vdW  Elec       q    Type
REMARK                         _______ _______ _______ _____ _____    ______ ____
ROOT
ATOM      1  C   UNL     1       2.426   7.157  19.113  0.00  0.00    +0.000 A 
ATOM      2  C   UNL     1       1.844   7.490  20.340  0.00  0.00    +0.000 A 
ATOM      3  C   UNL     1       1.105   8.678  20.468  0.00  0.00    +0.000 A 
ATOM      4  C   UNL     1       0.938   9.557  19.384  0.00  0.00    +0.000 A 
ATOM      5  C   UNL     1       1.557   9.233  18.170  0.00  0.00    +0.000 A 
ATOM      6  C   UNL     1       2.295   8.048  18.038  0.00  0.00    +0.000 A 
ENDROOT
BRANCH   4   7
ATOM      7  C   UNL     1       0.120  10.755  19.547  0.00  0.00    +0.000 A 
ATOM      8  N   UNL     1       0.055  11.834  18.793  0.00  0.00    +0.000 NA
ATOM      9  N   UNL     1      -0.842  12.686  19.402  0.00  0.00    +0.000 NA
ATOM     10  C   UNL     1      -1.275  12.069  20.485  0.00  0.00    +0.000 A 
ATOM     11  O   UNL     1      -0.700  10.831  20.646  0.00  0.00    +0.000 OA
BRANCH  10  12
ATOM     12  C   UNL     1      -2.251  12.506  21.476  0.00  0.00    +0.000 A 
ATOM     13  C   UNL     1      -3.194  13.488  21.134  0.00  0.00    +0.000 A 
ATOM     14  C   UNL     1      -4.171  13.895  22.047  0.00  0.00    +0.000 A 
ATOM     15  C   UNL     1      -4.221  13.328  23.316  0.00  0.00    +0.000 A 
ATOM     16  C   UNL     1      -3.281  12.364  23.678  0.00  0.00    +0.000 A 
ATOM     17  C   UNL     1      -2.301  11.957  22.767  0.00  0.00    +0.000 A 
ENDBRANCH  10  12
ENDBRANCH   4   7
BRANCH   1  19
ATOM     18  N   UNL     1       2.948   5.162  17.765  0.00  0.00    +0.000 N 
ATOM     19  C   UNL     1       3.211   5.904  18.903  0.00  0.00    +0.000 C 
ATOM     20  O   UNL     1       4.072   5.589  19.718  0.00  0.00    +0.000 OA
ATOM     21  H   UNL     1       2.353   5.540  17.042  0.00  0.00    +0.000 HD
BRANCH  18  23
ATOM     22  C   UNL     1       3.862   3.041  18.657  0.00  0.00    +0.000 C 
ATOM     23  C   UNL     1       3.738   3.979  17.451  0.00  0.00    +0.000 C 
BRANCH  23  24
ATOM     24  C   UNL     1       5.104   4.348  16.904  0.00  0.00    +0.000 A 
ATOM     25  C   UNL     1       5.247   4.638  15.541  0.00  0.00    +0.000 A 
ATOM     26  C   UNL     1       6.512   4.892  15.036  0.00  0.00    +0.000 A 
ATOM     27  N   UNL     1       7.633   4.891  15.785  0.00  0.00    +0.000 NA
ATOM     28  C   UNL     1       7.480   4.629  17.099  0.00  0.00    +0.000 A 
ATOM     29  C   UNL     1       6.256   4.363  17.699  0.00  0.00    +0.000 A 
ENDBRANCH  23  24
ENDBRANCH  18  23
ENDBRANCH   1  19
TORSDOF 5
ENDMDL
MODEL 3
REMARK VINA RESULT:      -8.0      1.761     10.864
REMARK  Name = 
REMARK  6 active torsions:
REMARK  status: ('A' for Active; 'I' for Inactive)
REMARK    1  A    between atoms: C_1  and  C_2
REMARK    2  A    between atoms: C_2  and  N_3
REMARK    3  A    between atoms: C_2  and  C_23
REMARK    4  A    between atoms: C_4  and  C_6
REMARK    5  A    between atoms: C_9  and  C_10
REMARK    6  A    between atoms: C_13  and  C_14
REMARK                            x       y       z     vdW  Elec       q    Type
REMARK                         _______ _______ _______ _____ _____    ______ ____
ROOT
ATOM      1  C   UNL     1       0.357  10.269  19.980  0.00  0.00    +0.000 A 
ATOM      2  C   UNL     1       0.978   9.968  18.764  0.00  0.00    +0.000 A 
ATOM      3  C   UNL     1       1.723   8.785  18.629  0.00  0.00    +0.000 A 
ATOM      4  C   UNL     1       1.870   7.885  19.700  0.00  0.00    +0.000 A 
ATOM      5  C   UNL     1       1.276   8.215  20.925  0.00  0.00    +0.000 A 
ATOM      6  C   UNL     1       0.530   9.395  21.063  0.00  0.00    +0.000 A 
ENDROOT
BRANCH   4   7
ATOM      7  C   UNL     1       2.611   6.643  19.502  0.00  0.00    +0.000 A 
ATOM      8  N   UNL     1       2.526   5.503  20.158  0.00  0.00    +0.000 NA
ATOM      9  N   UNL     1       3.465   4.659  19.604  0.00  0.00    +0.000 NA
ATOM     10  C   UNL     1       4.058   5.335  18.638  0.00  0.00    +0.000 A 
ATOM     11  O   UNL     1       3.567   6.613  18.517  0.00  0.00    +0.000 OA
BRANCH  10  12
ATOM     12  C   UNL     1       5.106   4.914  17.716  0.00  0.00    +0.000 A 
ATOM     13  C   UNL     1       4.760   4.479  16.427  0.00  0.00    +0.000 A 
ATOM     14  C   UNL     1       5.744   4.112  15.504  0.00  0.00    +0.000 A 
ATOM     15  C   UNL     1       7.089   4.172  15.856  0.00  0.00    +0.000 A 
ATOM     16  C   UNL     1       7.448   4.583  17.139  0.00  0.00    +0.000 A 
ATOM     17  C   UNL     1       6.465   4.950  18.063  0.00  0.00    +0.000 A 
ENDBRANCH  10  12
ENDBRANCH   4   7
BRANCH   1  19
ATOM     18  N   UNL     1      -0.660  11.932  21.487  0.00  0.00    +0.000 N 
ATOM     19  C   UNL     1      -0.463  11.500  20.187  0.00  0.00    +0.000 C 
ATOM     20  O   UNL     1      -0.907  12.099  19.212  0.00  0.00    +0.000 OA
ATOM     21  H   UNL     1      -0.143  11.508  22.244  0.00  0.00    +0.000 HD
BRANCH  18  23
ATOM     22  C   UNL     1      -0.600  14.072  22.732  0.00  0.00    +0.000 C 
ATOM     23  C   UNL     1      -1.371  13.174  21.757  0.00  0.00    +0.000 C 
BRANCH  23  24
ATOM     24  C   UNL     1      -2.781  12.914  22.253  0.00  0.00    +0.000 A 
ATOM     25  C   UNL     1      -3.835  12.844  21.333  0.00  0.00    +0.000 A 
ATOM     26  C   UNL     1      -5.130  12.689  21.803  0.00  0.00    +0.000 A 
ATOM     27  N   UNL     1      -5.446  12.587  23.110  0.00  0.00    +0.000 NA
ATOM     28  C   UNL     1      -4.420  12.638  23.984  0.00  0.00    +0.000 A 
ATOM     29  C   UNL     1      -3.091  12.790  23.612  0.00  0.00    +0.000 A 
ENDBRANCH  23  24
ENDBRANCH  18  23
ENDBRANCH   1  19
TORSDOF 5
ENDMDL
MODEL 4
REMARK VINA RESULT:      -8.0      1.283      1.680
REMARK  Name = 
REMARK  6 active torsions:
REMARK  status: ('A' for Active; 'I' for Inactive)
REMARK    1  A    between atoms: C_1  and  C_2
REMARK    2  A    between atoms: C_2  and  N_3
REMARK    3  A    between atoms: C_2  and  C_23
REMARK    4  A    between atoms: C_4  and  C_6
REMARK    5  A    between atoms: C_9  and  C_10
REMARK    6  A    between atoms: C_13  and  C_14
REMARK                            x       y       z     vdW  Elec       q    Type
REMARK                         _______ _______ _______ _____ _____    ______ ____
ROOT
ATOM      1  C   UNL     1       2.428   7.069  19.170  0.00  0.00    +0.000 A 
ATOM      2  C   UNL     1       2.238   8.054  18.196  0.00  0.00    +0.000 A 
ATOM      3  C   UNL     1       1.536   9.229  18.512  0.00  0.00    +0.000 A 
ATOM      4  C   UNL     1       1.004   9.442  19.796  0.00  0.00    +0.000 A 
ATOM      5  C   UNL     1       1.166   8.432  20.753  0.00  0.00    +0.000 A 
ATOM      6  C   UNL     1       1.868   7.258  20.442  0.00  0.00    +0.000 A 
ENDROOT
BRANCH   4   7
ATOM      7  C   UNL     1       0.324  10.699  20.095  0.00  0.00    +0.000 A 
ATOM      8  N   UNL     1       0.652  11.929  19.755  0.00  0.00    +0.000 NA
ATOM      9  N   UNL     1      -0.297  12.758  20.316  0.00  0.00    +0.000 NA
ATOM     10  C   UNL     1      -1.149  11.980  20.955  0.00  0.00    +0.000 A 
ATOM     11  O   UNL     1      -0.814  10.650  20.861  0.00  0.00    +0.000 OA
BRANCH  10  12
ATOM     12  C   UNL     1      -2.353  12.332  21.698  0.00  0.00    +0.000 A 
ATOM     13  C   UNL     1      -2.407  12.096  23.081  0.00  0.00    +0.000 A 
ATOM     14  C   UNL     1      -3.529  12.464  23.829  0.00  0.00    +0.000 A 
ATOM     15  C   UNL     1      -4.615  13.073  23.208  0.00  0.00    +0.000 A 
ATOM     16  C   UNL     1      -4.584  13.298  21.832  0.00  0.00    +0.000 A 
ATOM     17  C   UNL     1      -3.464  12.928  21.081  0.00  0.00    +0.000 A 
ENDBRANCH  10  12
ENDBRANCH   4   7
BRANCH   1  19
ATOM     18  N   UNL     1       2.957   5.162  17.703  0.00  0.00    +0.000 N 
ATOM     19  C   UNL     1       3.178   5.804  18.908  0.00  0.00    +0.000 C 
ATOM     20  O   UNL     1       3.976   5.394  19.745  0.00  0.00    +0.000 OA
ATOM     21  H   UNL     1       2.421   5.617  16.978  0.00  0.00    +0.000 HD
BRANCH  18  23
ATOM     22  C   UNL     1       3.826   2.990  18.514  0.00  0.00    +0.000 C 
ATOM     23  C   UNL     1       3.721   3.975  17.343  0.00  0.00    +0.000 C 
BRANCH  23  24
ATOM     24  C   UNL     1       5.095   4.334  16.809  0.00  0.00    +0.000 A 
ATOM     25  C   UNL     1       5.261   4.575  15.439  0.00  0.00    +0.000 A 
ATOM     26  C   UNL     1       6.533   4.822  14.948  0.00  0.00    +0.000 A 
ATOM     27  N   UNL     1       7.640   4.857  15.718  0.00  0.00    +0.000 NA
ATOM     28  C   UNL     1       7.464   4.642  17.037  0.00  0.00    +0.000 A 
ATOM     29  C   UNL     1       6.231   4.388  17.624  0.00  0.00    +0.000 A 
ENDBRANCH  23  24
ENDBRANCH  18  23
ENDBRANCH   1  19
TORSDOF 5
ENDMDL
MODEL 5
REMARK VINA RESULT:      -8.0      0.768      1.085
REMARK  Name = 
REMARK  6 active torsions:
REMARK  status: ('A' for Active; 'I' for Inactive)
REMARK    1  A    between atoms: C_1  and  C_2
REMARK    2  A    between atoms: C_2  and  N_3
REMARK    3  A    between atoms: C_2  and  C_23
REMARK    4  A    between atoms: C_4  and  C_6
REMARK    5  A    between atoms: C_9  and  C_10
REMARK    6  A    between atoms: C_13  and  C_14
REMARK                            x       y       z     vdW  Elec       q    Type
REMARK                         _______ _______ _______ _____ _____    ______ ____
ROOT
ATOM      1  C   UNL     1       2.013   7.354  19.009  0.00  0.00    +0.000 A 
ATOM      2  C   UNL     1       1.803   8.517  18.261  0.00  0.00    +0.000 A 
ATOM      3  C   UNL     1       1.343   9.684  18.892  0.00  0.00    +0.000 A 
ATOM      4  C   UNL     1       1.079   9.716  20.273  0.00  0.00    +0.000 A 
ATOM      5  C   UNL     1       1.256   8.536  21.006  0.00  0.00    +0.000 A 
ATOM      6  C   UNL     1       1.715   7.368  20.380  0.00  0.00    +0.000 A 
ENDROOT
BRANCH   4   7
ATOM      7  C   UNL     1       0.651  10.965  20.896  0.00  0.00    +0.000 A 
ATOM      8  N   UNL     1       1.331  12.075  21.100  0.00  0.00    +0.000 NA
ATOM      9  N   UNL     1       0.483  12.942  21.756  0.00  0.00    +0.000 NA
ATOM     10  C   UNL     1      -0.665  12.309  21.903  0.00  0.00    +0.000 A 
ATOM     11  O   UNL     1      -0.631  11.038  21.381  0.00  0.00    +0.000 OA
BRANCH  10  12
ATOM     12  C   UNL     1      -1.910  12.769  22.505  0.00  0.00    +0.000 A 
ATOM     13  C   UNL     1      -2.603  11.929  23.392  0.00  0.00    +0.000 A 
ATOM     14  C   UNL     1      -3.775  12.359  24.021  0.00  0.00    +0.000 A 
ATOM     15  C   UNL     1      -4.275  13.634  23.773  0.00  0.00    +0.000 A 
ATOM     16  C   UNL     1      -3.609  14.473  22.880  0.00  0.00    +0.000 A 
ATOM     17  C   UNL     1      -2.437  14.044  22.249  0.00  0.00    +0.000 A 
ENDBRANCH  10  12
ENDBRANCH   4   7
BRANCH   1  19
ATOM     18  N   UNL     1       3.831   5.732  18.644  0.00  0.00    +0.000 N 
ATOM     19  C   UNL     1       2.514   6.083  18.407  0.00  0.00    +0.000 C 
ATOM     20  O   UNL     1       1.747   5.384  17.752  0.00  0.00    +0.000 OA
ATOM     21  H   UNL     1       4.377   6.247  19.320  0.00  0.00    +0.000 HD
BRANCH  18  23
ATOM     22  C   UNL     1       4.842   3.574  19.316  0.00  0.00    +0.000 C 
ATOM     23  C   UNL     1       4.360   4.462  18.163  0.00  0.00    +0.000 C 
BRANCH  23  24
ATOM     24  C   UNL     1       5.458   4.667  17.137  0.00  0.00    +0.000 A 
ATOM     25  C   UNL     1       6.394   5.692  17.323  0.00  0.00    +0.000 A 
ATOM     26  C   UNL     1       7.342   5.924  16.339  0.00  0.00    +0.000 A 
ATOM     27  N   UNL     1       7.431   5.209  15.199  0.00  0.00    +0.000 NA
ATOM     28  C   UNL     1       6.536   4.214  15.041  0.00  0.00    +0.000 A 
ATOM     29  C   UNL     1       5.550   3.902  15.968  0.00  0.00    +0.000 A 
ENDBRANCH  23  24
ENDBRANCH  18  23
ENDBRANCH   1  19
TORSDOF 5
ENDMDL
MODEL 6
REMARK VINA RESULT:      -8.0      2.482      2.946
REMARK  Name = 
REMARK  6 active torsions:
REMARK  status: ('A' for Active; 'I' for Inactive)
REMARK    1  A    between atoms: C_1  and  C_2
REMARK    2  A    between atoms: C_2  and  N_3
REMARK    3  A    between atoms: C_2  and  C_23
REMARK    4  A    between atoms: C_4  and  C_6
REMARK    5  A    between atoms: C_9  and  C_10
REMARK    6  A    between atoms: C_13  and  C_14
REMARK                            x       y       z     vdW  Elec       q    Type
REMARK                         _______ _______ _______ _____ _____    ______ ____
ROOT
ATOM      1  C   UNL     1       2.521   7.137  18.982  0.00  0.00    +0.000 A 
ATOM      2  C   UNL     1       1.915   7.542  20.175  0.00  0.00    +0.000 A 
ATOM      3  C   UNL     1       1.166   8.729  20.214  0.00  0.00    +0.000 A 
ATOM      4  C   UNL     1       1.012   9.537  19.074  0.00  0.00    +0.000 A 
ATOM      5  C   UNL     1       1.655   9.143  17.894  0.00  0.00    +0.000 A 
ATOM      6  C   UNL     1       2.404   7.957  17.850  0.00  0.00    +0.000 A 
ENDROOT
BRANCH   4   7
ATOM      7  C   UNL     1       0.183  10.737  19.147  0.00  0.00    +0.000 A 
ATOM      8  N   UNL     1       0.545  12.002  19.213  0.00  0.00    +0.000 NA
ATOM      9  N   UNL     1      -0.616  12.740  19.302  0.00  0.00    +0.000 NA
ATOM     10  C   UNL     1      -1.614  11.878  19.276  0.00  0.00    +0.000 A 
ATOM     11  O   UNL     1      -1.180  10.578  19.182  0.00  0.00    +0.000 OA
BRANCH  10  12
ATOM     12  C   UNL     1      -3.052  12.119  19.314  0.00  0.00    +0.000 A 
ATOM     13  C   UNL     1      -3.867  11.610  18.290  0.00  0.00    +0.000 A 
ATOM     14  C   UNL     1      -5.254  11.785  18.322  0.00  0.00    +0.000 A 
ATOM     15  C   UNL     1      -5.848  12.472  19.377  0.00  0.00    +0.000 A 
ATOM     16  C   UNL     1      -5.050  12.999  20.392  0.00  0.00    +0.000 A 
ATOM     17  C   UNL     1      -3.663  12.826  20.361  0.00  0.00    +0.000 A 
ENDBRANCH  10  12
ENDBRANCH   4   7
BRANCH   1  19
ATOM     18  N   UNL     1       3.029   5.028  17.813  0.00  0.00    +0.000 N 
ATOM     19  C   UNL     1       3.318   5.879  18.864  0.00  0.00    +0.000 C 
ATOM     20  O   UNL     1       4.211   5.655  19.676  0.00  0.00    +0.000 OA
ATOM     21  H   UNL     1       2.404   5.327  17.078  0.00  0.00    +0.000 HD
BRANCH  18  23
ATOM     22  C   UNL     1       4.049   3.041  18.881  0.00  0.00    +0.000 C 
ATOM     23  C   UNL     1       3.827   3.830  17.586  0.00  0.00    +0.000 C 
BRANCH  23  24
ATOM     24  C   UNL     1       5.146   4.157  16.912  0.00  0.00    +0.000 A 
ATOM     25  C   UNL     1       6.314   4.231  17.682  0.00  0.00    +0.000 A 
ATOM     26  C   UNL     1       7.499   4.611  17.073  0.00  0.00    +0.000 A 
ATOM     27  N   UNL     1       7.606   4.908  15.762  0.00  0.00    +0.000 NA
ATOM     28  C   UNL     1       6.479   4.816  15.028  0.00  0.00    +0.000 A 
ATOM     29  C   UNL     1       5.245   4.443  15.546  0.00  0.00    +0.000 A 
ENDBRANCH  23  24
ENDBRANCH  18  23
ENDBRANCH   1  19
TORSDOF 5
ENDMDL
MODEL 7
REMARK VINA RESULT:      -8.0      2.197     10.956
REMARK  Name = 
REMARK  6 active torsions:
REMARK  status: ('A' for Active; 'I' for Inactive)
REMARK    1  A    between atoms: C_1  and  C_2
REMARK    2  A    between atoms: C_2  and  N_3
REMARK    3  A    between atoms: C_2  and  C_23
REMARK    4  A    between atoms: C_4  and  C_6
REMARK    5  A    between atoms: C_9  and  C_10
REMARK    6  A    between atoms: C_13  and  C_14
REMARK                            x       y       z     vdW  Elec       q    Type
REMARK                         _______ _______ _______ _____ _____    ______ ____
ROOT
ATOM      1  C   UNL     1       1.793   8.337  19.238  0.00  0.00    +0.000 A 
ATOM      2  C   UNL     1       2.189   7.156  19.874  0.00  0.00    +0.000 A 
ATOM      3  C   UNL     1       3.118   6.303  19.255  0.00  0.00    +0.000 A 
ATOM      4  C   UNL     1       3.663   6.604  17.995  0.00  0.00    +0.000 A 
ATOM      5  C   UNL     1       3.231   7.770  17.350  0.00  0.00    +0.000 A 
ATOM      6  C   UNL     1       2.304   8.625  17.964  0.00  0.00    +0.000 A 
ENDROOT
BRANCH   4   7
ATOM      7  C   UNL     1       4.663   5.715  17.411  0.00  0.00    +0.000 A 
ATOM      8  N   UNL     1       5.477   4.866  18.005  0.00  0.00    +0.000 NA
ATOM      9  N   UNL     1       6.247   4.298  17.012  0.00  0.00    +0.000 NA
ATOM     10  C   UNL     1       5.847   4.830  15.873  0.00  0.00    +0.000 A 
ATOM     11  O   UNL     1       4.840   5.748  16.050  0.00  0.00    +0.000 OA
BRANCH  10  12
ATOM     12  C   UNL     1       6.304   4.568  14.514  0.00  0.00    +0.000 A 
ATOM     13  C   UNL     1       5.616   3.636  13.719  0.00  0.00    +0.000 A 
ATOM     14  C   UNL     1       6.002   3.396  12.397  0.00  0.00    +0.000 A 
ATOM     15  C   UNL     1       7.081   4.082  11.848  0.00  0.00    +0.000 A 
ATOM     16  C   UNL     1       7.786   4.997  12.630  0.00  0.00    +0.000 A 
ATOM     17  C   UNL     1       7.403   5.237  13.953  0.00  0.00    +0.000 A 
ENDBRANCH  10  12
ENDBRANCH   4   7
BRANCH   1  19
ATOM     18  N   UNL     1       0.567  10.473  19.163  0.00  0.00    +0.000 N 
ATOM     19  C   UNL     1       0.822   9.297  19.845  0.00  0.00    +0.000 C 
ATOM     20  O   UNL     1       0.267   9.005  20.899  0.00  0.00    +0.000 OA
ATOM     21  H   UNL     1       0.917  10.599  18.224  0.00  0.00    +0.000 HD
BRANCH  18  23
ATOM     22  C   UNL     1      -1.222  12.052  18.501  0.00  0.00    +0.000 C 
ATOM     23  C   UNL     1      -0.436  11.412  19.651  0.00  0.00    +0.000 C 
BRANCH  23  24
ATOM     24  C   UNL     1       0.179  12.470  20.547  0.00  0.00    +0.000 A 
ATOM     25  C   UNL     1      -0.585  13.030  21.578  0.00  0.00    +0.000 A 
ATOM     26  C   UNL     1      -0.043  14.054  22.338  0.00  0.00    +0.000 A 
ATOM     27  N   UNL     1       1.198  14.548  22.155  0.00  0.00    +0.000 NA
ATOM     28  C   UNL     1       1.930  13.988  21.170  0.00  0.00    +0.000 A 
ATOM     29  C   UNL     1       1.477  12.958  20.356  0.00  0.00    +0.000 A 
ENDBRANCH  23  24
ENDBRANCH  18  23
ENDBRANCH   1  19
TORSDOF 5
ENDMDL
MODEL 8
REMARK VINA RESULT:      -8.0      2.219     10.895
REMARK  Name = 
REMARK  6 active torsions:
REMARK  status: ('A' for Active; 'I' for Inactive)
REMARK    1  A    between atoms: C_1  and  C_2
REMARK    2  A    between atoms: C_2  and  N_3
REMARK    3  A    between atoms: C_2  and  C_23
REMARK    4  A    between atoms: C_4  and  C_6
REMARK    5  A    between atoms: C_9  and  C_10
REMARK    6  A    between atoms: C_13  and  C_14
REMARK                            x       y       z     vdW  Elec       q    Type
REMARK                         _______ _______ _______ _____ _____    ______ ____
ROOT
ATOM      1  C   UNL     1       1.807   8.342  19.194  0.00  0.00    +0.000 A 
ATOM      2  C   UNL     1       2.408   8.605  17.959  0.00  0.00    +0.000 A 
ATOM      3  C   UNL     1       3.319   7.687  17.412  0.00  0.00    +0.000 A 
ATOM      4  C   UNL     1       3.654   6.498  18.083  0.00  0.00    +0.000 A 
ATOM      5  C   UNL     1       3.076   6.262  19.336  0.00  0.00    +0.000 A 
ATOM      6  C   UNL     1       2.165   7.176  19.886  0.00  0.00    +0.000 A 
ENDROOT
BRANCH   4   7
ATOM      7  C   UNL     1       4.568   5.549  17.454  0.00  0.00    +0.000 A 
ATOM      8  N   UNL     1       5.225   4.538  17.988  0.00  0.00    +0.000 NA
ATOM      9  N   UNL     1       5.978   3.980  16.977  0.00  0.00    +0.000 NA
ATOM     10  C   UNL     1       5.727   4.680  15.887  0.00  0.00    +0.000 A 
ATOM     11  O   UNL     1       4.837   5.702  16.116  0.00  0.00    +0.000 OA
BRANCH  10  12
ATOM     12  C   UNL     1       6.236   4.505  14.532  0.00  0.00    +0.000 A 
ATOM     13  C   UNL     1       5.588   3.616  13.659  0.00  0.00    +0.000 A 
ATOM     14  C   UNL     1       6.023   3.460  12.339  0.00  0.00    +0.000 A 
ATOM     15  C   UNL     1       7.113   4.188  11.872  0.00  0.00    +0.000 A 
ATOM     16  C   UNL     1       7.779   5.061  12.733  0.00  0.00    +0.000 A 
ATOM     17  C   UNL     1       7.346   5.217  14.053  0.00  0.00    +0.000 A 
ENDBRANCH  10  12
ENDBRANCH   4   7
BRANCH   1  19
ATOM     18  N   UNL     1       0.497  10.428  19.150  0.00  0.00    +0.000 N 
ATOM     19  C   UNL     1       0.818   9.265  19.826  0.00  0.00    +0.000 C 
ATOM     20  O   UNL     1       0.307   8.956  20.898  0.00  0.00    +0.000 OA
ATOM     21  H   UNL     1       0.813  10.564  18.200  0.00  0.00    +0.000 HD
BRANCH  18  23
ATOM     22  C   UNL     1      -1.425  11.868  18.546  0.00  0.00    +0.000 C 
ATOM     23  C   UNL     1      -0.526  11.329  19.664  0.00  0.00    +0.000 C 
BRANCH  23  24
ATOM     24  C   UNL     1       0.081  12.462  20.470  0.00  0.00    +0.000 A 
ATOM     25  C   UNL     1       1.411  12.836  20.241  0.00  0.00    +0.000 A 
ATOM     26  C   UNL     1       1.982  13.815  21.038  0.00  0.00    +0.000 A 
ATOM     27  N   UNL     1       1.327  14.451  22.030  0.00  0.00    +0.000 NA
ATOM     28  C   UNL     1       0.042  14.094  22.229  0.00  0.00    +0.000 A 
ATOM     29  C   UNL     1      -0.619  13.126  21.483  0.00  0.00    +0.000 A 
ENDBRANCH  23  24
ENDBRANCH  18  23
ENDBRANCH   1  19
TORSDOF 5
ENDMDL
MODEL 9
REMARK VINA RESULT:      -8.0      0.900      1.472
REMARK  Name = 
REMARK  6 active torsions:
REMARK  status: ('A' for Active; 'I' for Inactive)
REMARK    1  A    between atoms: C_1  and  C_2
REMARK    2  A    between atoms: C_2  and  N_3
REMARK    3  A    between atoms: C_2  and  C_23
REMARK    4  A    between atoms: C_4  and  C_6
REMARK    5  A    between atoms: C_9  and  C_10
REMARK    6  A    between atoms: C_13  and  C_14
REMARK                            x       y       z     vdW  Elec       q    Type
REMARK                         _______ _______ _______ _____ _____    ______ ____
ROOT
ATOM      1  C   UNL     1       2.196   7.541  19.148  0.00  0.00    +0.000 A 
ATOM      2  C   UNL     1       1.851   8.692  18.434  0.00  0.00    +0.000 A 
ATOM      3  C   UNL     1       1.229   9.767  19.090  0.00  0.00    +0.000 A 
ATOM      4  C   UNL     1       0.934   9.714  20.464  0.00  0.00    +0.000 A 
ATOM      5  C   UNL     1       1.250   8.542  21.163  0.00  0.00    +0.000 A 
ATOM      6  C   UNL     1       1.871   7.467  20.510  0.00  0.00    +0.000 A 
ENDROOT
BRANCH   4   7
ATOM      7  C   UNL     1       0.334  10.873  21.117  0.00  0.00    +0.000 A 
ATOM      8  N   UNL     1       0.896  11.998  21.511  0.00  0.00    +0.000 NA
ATOM      9  N   UNL     1      -0.097  12.750  22.102  0.00  0.00    +0.000 NA
ATOM     10  C   UNL     1      -1.206  12.040  22.024  0.00  0.00    +0.000 A 
ATOM     11  O   UNL     1      -1.007  10.826  21.410  0.00  0.00    +0.000 OA
BRANCH  10  12
ATOM     12  C   UNL     1      -2.555  12.370  22.468  0.00  0.00    +0.000 A 
ATOM     13  C   UNL     1      -3.528  12.729  21.521  0.00  0.00    +0.000 A 
ATOM     14  C   UNL     1      -4.841  13.006  21.911  0.00  0.00    +0.000 A 
ATOM     15  C   UNL     1      -5.203  12.931  23.252  0.00  0.00    +0.000 A 
ATOM     16  C   UNL     1      -4.244  12.593  24.207  0.00  0.00    +0.000 A 
ATOM     17  C   UNL     1      -2.930  12.317  23.819  0.00  0.00    +0.000 A 
ENDBRANCH  10  12
ENDBRANCH   4   7
BRANCH   1  19
ATOM     18  N   UNL     1       3.282   5.338  19.344  0.00  0.00    +0.000 N 
ATOM     19  C   UNL     1       2.873   6.368  18.517  0.00  0.00    +0.000 C 
ATOM     20  O   UNL     1       3.018   6.342  17.299  0.00  0.00    +0.000 OA
ATOM     21  H   UNL     1       2.997   5.324  20.313  0.00  0.00    +0.000 HD
BRANCH  18  23
ATOM     22  C   UNL     1       4.036   3.034  19.850  0.00  0.00    +0.000 C 
ATOM     23  C   UNL     1       3.866   4.125  18.786  0.00  0.00    +0.000 C 
BRANCH  23  24
ATOM     24  C   UNL     1       5.179   4.410  18.082  0.00  0.00    +0.000 A 
ATOM     25  C   UNL     1       5.339   4.035  16.742  0.00  0.00    +0.000 A 
ATOM     26  C   UNL     1       6.569   4.224  16.132  0.00  0.00    +0.000 A 
ATOM     27  N   UNL     1       7.637   4.766  16.752  0.00  0.00    +0.000 NA
ATOM     28  C   UNL     1       7.465   5.139  18.036  0.00  0.00    +0.000 A 
ATOM     29  C   UNL     1       6.272   4.992  18.733  0.00  0.00    +0.000 A 
ENDBRANCH  23  24
ENDBRANCH  18  23
ENDBRANCH   1  19
TORSDOF 5
ENDMDL
