MODEL 1
REMARK VINA RESULT:      -8.5      0.000      0.000
REMARK  Name = 
REMARK  5 active torsions:
REMARK  status: ('A' for Active; 'I' for Inactive)
REMARK    1  A    between atoms: C_2  and  C_19
REMARK    2  A    between atoms: N_3  and  C_4
REMARK    3  A    between atoms: C_4  and  C_5
REMARK    4  A    between atoms: C_8  and  S_9
REMARK    5  A    between atoms: S_9  and  N_12
REMARK                            x       y       z     vdW  Elec       q    Type
REMARK                         _______ _______ _______ _____ _____    ______ ____
ROOT
ATOM      1  C   UNL     1       2.724   5.611  20.099  0.00  0.00    +0.000 C 
ENDROOT
BRANCH   1   2
ATOM      2  C   UNL     1       2.165   6.990  19.841  0.00  0.00    +0.000 A 
ATOM      3  C   UNL     1       2.397   7.650  18.622  0.00  0.00    +0.000 A 
ATOM      4  C   UNL     1       1.890   8.938  18.396  0.00  0.00    +0.000 A 
ATOM      5  C   UNL     1       1.133   9.575  19.388  0.00  0.00    +0.000 A 
ATOM      6  C   UNL     1       0.922   8.938  20.615  0.00  0.00    +0.000 A 
ATOM      7  C   UNL     1       1.433   7.653  20.836  0.00  0.00    +0.000 A 
BRANCH   5   8
ATOM      8  S   UNL     1       0.609  11.285  19.170  0.00  0.00    +0.000 S 
ATOM      9  O   UNL     1       0.129  11.743  20.457  0.00  0.00    +0.000 OA
ATOM     10  O   UNL     1       1.686  11.957  18.483  0.00  0.00    +0.000 OA
BRANCH   8  11
ATOM     11  N   UNL     1      -0.697  11.187  18.124  0.00  0.00    +0.000 NA
ATOM     12  C   UNL     1      -1.760  12.189  18.143  0.00  0.00    +0.000 C 
ATOM     13  C   UNL     1      -3.040  11.395  18.321  0.00  0.00    +0.000 C 
ATOM     14  C   UNL     1      -2.741  10.000  17.798  0.00  0.00    +0.000 C 
ATOM     15  C   UNL     1      -1.226   9.885  17.704  0.00  0.00    +0.000 C 
ENDBRANCH   8  11
ENDBRANCH   5   8
ENDBRANCH   1   2
BRANCH   1  18
ATOM     16  O   UNL     1       4.071   3.182  19.617  0.00  0.00    +0.000 OA
ATOM     17  C   UNL     1       4.607   4.244  19.309  0.00  0.00    +0.000 C 
ATOM     18  N   UNL     1       4.079   5.478  19.626  0.00  0.00    +0.000 N 
ATOM     19  H   UNL     1       4.568   6.275  19.229  0.00  0.00    +0.000 HD
BRANCH  17  20
ATOM     20  C   UNL     1       5.804   4.332  18.454  0.00  0.00    +0.000 A 
ATOM     21  N   UNL     1       7.004   4.685  18.969  0.00  0.00    +0.000 NA
ATOM     22  N   UNL     1       7.755   4.935  17.882  0.00  0.00    +0.000 N 
ATOM     23  C   UNL     1       7.080   4.825  16.698  0.00  0.00    +0.000 A 
ATOM     24  C   UNL     1       7.422   5.191  15.393  0.00  0.00    +0.000 A 
ATOM     25  C   UNL     1       6.502   4.882  14.386  0.00  0.00    +0.000 A 
ATOM     26  C   UNL     1       5.325   4.190  14.671  0.00  0.00    +0.000 A 
ATOM     27  C   UNL     1       4.981   3.878  15.994  0.00  0.00    +0.000 A 
ATOM     28  C   UNL     1       5.857   4.251  17.030  0.00  0.00    +0.000 A 
ATOM     29  H   UNL     1       8.718   5.220  18.016  0.00  0.00    +0.000 HD
ENDBRANCH  17  20
ENDBRANCH   1  18
TORSDOF 5
ENDMDL
MODEL 2
REMARK VINA RESULT:      -8.5      6.217      8.628
REMARK  Name = 
REMARK  5 active torsions:
REMARK  status: ('A' for Active; 'I' for Inactive)
REMARK    1  A    between atoms: C_2  and  C_19
REMARK    2  A    between atoms: N_3  and  C_4
REMARK    3  A    between atoms: C_4  and  C_5
REMARK    4  A    between atoms: C_8  and  S_9
REMARK    5  A    between atoms: S_9  and  N_12
REMARK                            x       y       z     vdW  Elec       q    Type
REMARK                         _______ _______ _______ _____ _____    ______ ____
ROOT
ATOM      1  C   UNL     1       8.261   8.739  17.577  0.00  0.00    +0.000 C 
ENDROOT
BRANCH   1   2
ATOM      2  C   UNL     1       7.359   7.557  17.841  0.00  0.00    +0.000 A 
ATOM      3  C   UNL     1       7.762   6.515  18.693  0.00  0.00    +0.000 A 
ATOM      4  C   UNL     1       6.926   5.411  18.920  0.00  0.00    +0.000 A 
ATOM      5  C   UNL     1       5.670   5.346  18.303  0.00  0.00    +0.000 A 
ATOM      6  C   UNL     1       5.274   6.365  17.430  0.00  0.00    +0.000 A 
ATOM      7  C   UNL     1       6.113   7.463  17.205  0.00  0.00    +0.000 A 
BRANCH   5   8
ATOM      8  S   UNL     1       4.656   3.866  18.464  0.00  0.00    +0.000 S 
ATOM      9  O   UNL     1       4.576   3.268  17.148  0.00  0.00    +0.000 OA
ATOM     10  O   UNL     1       5.178   3.136  19.594  0.00  0.00    +0.000 OA
BRANCH   8  11
ATOM     11  N   UNL     1       3.139   4.447  18.872  0.00  0.00    +0.000 NA
ATOM     12  C   UNL     1       2.938   5.271  20.062  0.00  0.00    +0.000 C 
ATOM     13  C   UNL     1       1.848   4.565  20.845  0.00  0.00    +0.000 C 
ATOM     14  C   UNL     1       1.068   3.747  19.830  0.00  0.00    +0.000 C 
ATOM     15  C   UNL     1       1.932   3.667  18.579  0.00  0.00    +0.000 C 
ENDBRANCH   8  11
ENDBRANCH   5   8
ENDBRANCH   1   2
BRANCH   1  18
ATOM     16  O   UNL     1       9.982  10.964  17.754  0.00  0.00    +0.000 OA
ATOM     17  C   UNL     1       9.517  10.475  18.781  0.00  0.00    +0.000 C 
ATOM     18  N   UNL     1       8.775   9.313  18.796  0.00  0.00    +0.000 N 
ATOM     19  H   UNL     1       8.366   9.069  19.693  0.00  0.00    +0.000 HD
BRANCH  17  20
ATOM     20  C   UNL     1       9.580  11.134  20.097  0.00  0.00    +0.000 A 
ATOM     21  N   UNL     1       8.931  10.619  21.167  0.00  0.00    +0.000 NA
ATOM     22  N   UNL     1       8.977  11.612  22.074  0.00  0.00    +0.000 N 
ATOM     23  C   UNL     1       9.563  12.760  21.618  0.00  0.00    +0.000 A 
ATOM     24  C   UNL     1       9.623  14.050  22.152  0.00  0.00    +0.000 A 
ATOM     25  C   UNL     1      10.364  14.998  21.439  0.00  0.00    +0.000 A 
ATOM     26  C   UNL     1      11.054  14.649  20.278  0.00  0.00    +0.000 A 
ATOM     27  C   UNL     1      10.938  13.362  19.736  0.00  0.00    +0.000 A 
ATOM     28  C   UNL     1      10.133  12.416  20.397  0.00  0.00    +0.000 A 
ATOM     29  H   UNL     1       8.549  11.457  22.979  0.00  0.00    +0.000 HD
ENDBRANCH  17  20
ENDBRANCH   1  18
TORSDOF 5
ENDMDL
MODEL 3
REMARK VINA RESULT:      -8.4      3.164      8.825
REMARK  Name = 
REMARK  5 active torsions:
REMARK  status: ('A' for Active; 'I' for Inactive)
REMARK    1  A    between atoms: C_2  and  C_19
REMARK    2  A    between atoms: N_3  and  C_4
REMARK    3  A    between atoms: C_4  and  C_5
REMARK    4  A    between atoms: C_8  and  S_9
REMARK    5  A    between atoms: S_9  and  N_12
REMARK                            x       y       z     vdW  Elec       q    Type
REMARK                         _______ _______ _______ _____ _____    ______ ____
ROOT
ATOM      1  C   UNL     1       1.430   7.210  20.794  0.00  0.00    +0.000 C 
ENDROOT
BRANCH   1   2
ATOM      2  C   UNL     1       2.409   6.904  19.686  0.00  0.00    +0.000 A 
ATOM      3  C   UNL     1       2.525   7.748  18.568  0.00  0.00    +0.000 A 
ATOM      4  C   UNL     1       3.424   7.448  17.534  0.00  0.00    +0.000 A 
ATOM      5  C   UNL     1       4.226   6.302  17.615  0.00  0.00    +0.000 A 
ATOM      6  C   UNL     1       4.095   5.441  18.710  0.00  0.00    +0.000 A 
ATOM      7  C   UNL     1       3.195   5.744  19.738  0.00  0.00    +0.000 A 
BRANCH   5   8
ATOM      8  S   UNL     1       5.269   5.825  16.226  0.00  0.00    +0.000 S 
ATOM      9  O   UNL     1       4.985   4.433  15.947  0.00  0.00    +0.000 OA
ATOM     10  O   UNL     1       5.100   6.846  15.220  0.00  0.00    +0.000 OA
BRANCH   8  11
ATOM     11  N   UNL     1       6.831   5.936  16.825  0.00  0.00    +0.000 NA
ATOM     12  C   UNL     1       7.444   4.827  17.552  0.00  0.00    +0.000 C 
ATOM     13  C   UNL     1       7.898   5.427  18.868  0.00  0.00    +0.000 C 
ATOM     14  C   UNL     1       8.080   6.913  18.607  0.00  0.00    +0.000 C 
ATOM     15  C   UNL     1       7.364   7.217  17.299  0.00  0.00    +0.000 C 
ENDBRANCH   8  11
ENDBRANCH   5   8
ENDBRANCH   1   2
BRANCH   1  18
ATOM     16  O   UNL     1      -0.893   8.227  22.026  0.00  0.00    +0.000 OA
ATOM     17  C   UNL     1      -0.096   9.003  21.504  0.00  0.00    +0.000 C 
ATOM     18  N   UNL     1       0.995   8.585  20.769  0.00  0.00    +0.000 N 
ATOM     19  H   UNL     1       1.629   9.321  20.475  0.00  0.00    +0.000 HD
BRANCH  17  20
ATOM     20  C   UNL     1      -0.129  10.462  21.705  0.00  0.00    +0.000 A 
ATOM     21  N   UNL     1      -0.430  10.992  22.913  0.00  0.00    +0.000 NA
ATOM     22  N   UNL     1      -0.643  12.293  22.644  0.00  0.00    +0.000 N 
ATOM     23  C   UNL     1      -0.559  12.611  21.317  0.00  0.00    +0.000 A 
ATOM     24  C   UNL     1      -0.906  13.768  20.613  0.00  0.00    +0.000 A 
ATOM     25  C   UNL     1      -0.635  13.780  19.241  0.00  0.00    +0.000 A 
ATOM     26  C   UNL     1       0.003  12.705  18.622  0.00  0.00    +0.000 A 
ATOM     27  C   UNL     1       0.296  11.537  19.339  0.00  0.00    +0.000 A 
ATOM     28  C   UNL     1      -0.041  11.475  20.704  0.00  0.00    +0.000 A 
ATOM     29  H   UNL     1      -0.886  12.910  23.410  0.00  0.00    +0.000 HD
ENDBRANCH  17  20
ENDBRANCH   1  18
TORSDOF 5
ENDMDL
MODEL 4
REMARK VINA RESULT:      -8.4      3.504      9.334
REMARK  Name = 
REMARK  5 active torsions:
REMARK  status: ('A' for Active; 'I' for Inactive)
REMARK    1  A    between atoms: C_2  and  C_19
REMARK    2  A    between atoms: N_3  and  C_4
REMARK    3  A    between atoms: C_4  and  C_5
REMARK    4  A    between atoms: C_8  and  S_9
REMARK    5  A    between atoms: S_9  and  N_12
REMARK                            x       y       z     vdW  Elec       q    Type
REMARK                         _______ _______ _______ _____ _____    ______ ____
ROOT
ATOM      1  C   UNL     1       1.467   9.204  18.713  0.00  0.00    +0.000 C 
ENDROOT
BRANCH   1   2
ATOM      2  C   UNL     1       2.339   7.975  18.625  0.00  0.00    +0.000 A 
ATOM      3  C   UNL     1       3.160   7.747  17.506  0.00  0.00    +0.000 A 
ATOM      4  C   UNL     1       3.955   6.595  17.422  0.00  0.00    +0.000 A 
ATOM      5  C   UNL     1       3.944   5.661  18.466  0.00  0.00    +0.000 A 
ATOM      6  C   UNL     1       3.108   5.865  19.569  0.00  0.00    +0.000 A 
ATOM      7  C   UNL     1       2.316   7.015  19.647  0.00  0.00    +0.000 A 
BRANCH   5   8
ATOM      8  S   UNL     1       4.840   4.107  18.301  0.00  0.00    +0.000 S 
ATOM      9  O   UNL     1       5.357   4.063  16.949  0.00  0.00    +0.000 OA
ATOM     10  O   UNL     1       5.713   4.016  19.447  0.00  0.00    +0.000 OA
BRANCH   8  11
ATOM     11  N   UNL     1       3.656   2.930  18.451  0.00  0.00    +0.000 NA
ATOM     12  C   UNL     1       2.512   2.886  17.544  0.00  0.00    +0.000 C 
ATOM     13  C   UNL     1       1.296   2.896  18.450  0.00  0.00    +0.000 C 
ATOM     14  C   UNL     1       1.766   2.344  19.785  0.00  0.00    +0.000 C 
ATOM     15  C   UNL     1       3.288   2.400  19.768  0.00  0.00    +0.000 C 
ENDBRANCH   8  11
ENDBRANCH   5   8
ENDBRANCH   1   2
BRANCH   1  18
ATOM     16  O   UNL     1       1.302  11.753  19.905  0.00  0.00    +0.000 OA
ATOM     17  C   UNL     1       0.891  10.771  20.518  0.00  0.00    +0.000 C 
ATOM     18  N   UNL     1       1.051   9.477  20.067  0.00  0.00    +0.000 N 
ATOM     19  H   UNL     1       0.580   8.764  20.616  0.00  0.00    +0.000 HD
BRANCH  17  20
ATOM     20  C   UNL     1       0.066  10.858  21.735  0.00  0.00    +0.000 A 
ATOM     21  N   UNL     1      -0.099   9.786  22.544  0.00  0.00    +0.000 NA
ATOM     22  N   UNL     1      -1.110  10.152  23.353  0.00  0.00    +0.000 N 
ATOM     23  C   UNL     1      -1.646  11.376  23.062  0.00  0.00    +0.000 A 
ATOM     24  C   UNL     1      -2.805  12.015  23.509  0.00  0.00    +0.000 A 
ATOM     25  C   UNL     1      -3.034  13.313  23.041  0.00  0.00    +0.000 A 
ATOM     26  C   UNL     1      -2.114  13.954  22.210  0.00  0.00    +0.000 A 
ATOM     27  C   UNL     1      -0.984  13.274  21.736  0.00  0.00    +0.000 A 
ATOM     28  C   UNL     1      -0.777  11.939  22.133  0.00  0.00    +0.000 A 
ATOM     29  H   UNL     1      -1.419   9.498  24.063  0.00  0.00    +0.000 HD
ENDBRANCH  17  20
ENDBRANCH   1  18
TORSDOF 5
ENDMDL
MODEL 5
REMARK VINA RESULT:      -8.3      2.408      8.864
REMARK  Name = 
REMARK  5 active torsions:
REMARK  status: ('A' for Active; 'I' for Inactive)
REMARK    1  A    between atoms: C_2  and  C_19
REMARK    2  A    between atoms: N_3  and  C_4
REMARK    3  A    between atoms: C_4  and  C_5
REMARK    4  A    between atoms: C_8  and  S_9
REMARK    5  A    between atoms: S_9  and  N_12
REMARK                            x       y       z     vdW  Elec       q    Type
REMARK                         _______ _______ _______ _____ _____    ______ ____
ROOT
ATOM      1  C   UNL     1       1.513   8.867  20.887  0.00  0.00    +0.000 C 
ENDROOT
BRANCH   1   2
ATOM      2  C   UNL     1       1.746   7.531  20.223  0.00  0.00    +0.000 A 
ATOM      3  C   UNL     1       1.552   6.329  20.925  0.00  0.00    +0.000 A 
ATOM      4  C   UNL     1       1.787   5.092  20.308  0.00  0.00    +0.000 A 
ATOM      5  C   UNL     1       2.211   5.046  18.973  0.00  0.00    +0.000 A 
ATOM      6  C   UNL     1       2.435   6.238  18.276  0.00  0.00    +0.000 A 
ATOM      7  C   UNL     1       2.201   7.470  18.898  0.00  0.00    +0.000 A 
BRANCH   5   8
ATOM      8  S   UNL     1       2.664   3.474  18.219  0.00  0.00    +0.000 S 
ATOM      9  O   UNL     1       2.398   2.446  19.203  0.00  0.00    +0.000 OA
ATOM     10  O   UNL     1       2.040   3.452  16.917  0.00  0.00    +0.000 OA
BRANCH   8  11
ATOM     11  N   UNL     1       4.322   3.582  18.002  0.00  0.00    +0.000 NA
ATOM     12  C   UNL     1       5.202   4.006  19.089  0.00  0.00    +0.000 C 
ATOM     13  C   UNL     1       5.994   5.165  18.518  0.00  0.00    +0.000 C 
ATOM     14  C   UNL     1       5.987   4.974  17.011  0.00  0.00    +0.000 C 
ATOM     15  C   UNL     1       4.885   3.968  16.705  0.00  0.00    +0.000 C 
ENDBRANCH   8  11
ENDBRANCH   5   8
ENDBRANCH   1   2
BRANCH   1  18
ATOM     16  O   UNL     1       0.333  11.177  21.991  0.00  0.00    +0.000 OA
ATOM     17  C   UNL     1      -0.129  10.695  20.959  0.00  0.00    +0.000 C 
ATOM     18  N   UNL     1       0.302   9.499  20.424  0.00  0.00    +0.000 N 
ATOM     19  H   UNL     1      -0.090   9.261  19.518  0.00  0.00    +0.000 HD
BRANCH  17  20
ATOM     20  C   UNL     1      -1.100  11.393  20.099  0.00  0.00    +0.000 A 
ATOM     21  N   UNL     1      -1.825  12.435  20.569  0.00  0.00    +0.000 NA
ATOM     22  N   UNL     1      -2.772  12.611  19.630  0.00  0.00    +0.000 N 
ATOM     23  C   UNL     1      -2.733  11.695  18.616  0.00  0.00    +0.000 A 
ATOM     24  C   UNL     1      -3.633  11.404  17.587  0.00  0.00    +0.000 A 
ATOM     25  C   UNL     1      -3.252  10.420  16.669  0.00  0.00    +0.000 A 
ATOM     26  C   UNL     1      -2.004   9.802  16.751  0.00  0.00    +0.000 A 
ATOM     27  C   UNL     1      -1.139  10.075  17.820  0.00  0.00    +0.000 A 
ATOM     28  C   UNL     1      -1.539  11.004  18.798  0.00  0.00    +0.000 A 
ATOM     29  H   UNL     1      -3.448  13.354  19.761  0.00  0.00    +0.000 HD
ENDBRANCH  17  20
ENDBRANCH   1  18
TORSDOF 5
ENDMDL
MODEL 6
REMARK VINA RESULT:      -8.2      2.091      2.634
REMARK  Name = 
REMARK  5 active torsions:
REMARK  status: ('A' for Active; 'I' for Inactive)
REMARK    1  A    between atoms: C_2  and  C_19
REMARK    2  A    between atoms: N_3  and  C_4
REMARK    3  A    between atoms: C_4  and  C_5
REMARK    4  A    between atoms: C_8  and  S_9
REMARK    5  A    between atoms: S_9  and  N_12
REMARK                            x       y       z     vdW  Elec       q    Type
REMARK                         _______ _______ _______ _____ _____    ______ ____
ROOT
ATOM      1  C   UNL     1       2.147   6.003  20.159  0.00  0.00    +0.000 C 
ENDROOT
BRANCH   1   2
ATOM      2  C   UNL     1       1.715   7.443  20.018  0.00  0.00    +0.000 A 
ATOM      3  C   UNL     1       1.882   8.135  18.806  0.00  0.00    +0.000 A 
ATOM      4  C   UNL     1       1.494   9.478  18.687  0.00  0.00    +0.000 A 
ATOM      5  C   UNL     1       0.924  10.140  19.782  0.00  0.00    +0.000 A 
ATOM      6  C   UNL     1       0.783   9.468  21.001  0.00  0.00    +0.000 A 
ATOM      7  C   UNL     1       1.173   8.129  21.115  0.00  0.00    +0.000 A 
BRANCH   5   8
ATOM      8  S   UNL     1       0.567  11.903  19.689  0.00  0.00    +0.000 S 
ATOM      9  O   UNL     1      -0.210  12.110  18.485  0.00  0.00    +0.000 OA
ATOM     10  O   UNL     1       0.064  12.286  20.987  0.00  0.00    +0.000 OA
BRANCH   8  11
ATOM     11  N   UNL     1       2.067  12.619  19.479  0.00  0.00    +0.000 NA
ATOM     12  C   UNL     1       2.597  13.568  20.455  0.00  0.00    +0.000 C 
ATOM     13  C   UNL     1       2.935  14.807  19.648  0.00  0.00    +0.000 C 
ATOM     14  C   UNL     1       3.159  14.329  18.224  0.00  0.00    +0.000 C 
ATOM     15  C   UNL     1       2.570  12.928  18.137  0.00  0.00    +0.000 C 
ENDBRANCH   8  11
ENDBRANCH   5   8
ENDBRANCH   1   2
BRANCH   1  18
ATOM     16  O   UNL     1       3.495   3.533  19.993  0.00  0.00    +0.000 OA
ATOM     17  C   UNL     1       4.084   4.566  19.682  0.00  0.00    +0.000 C 
ATOM     18  N   UNL     1       3.546   5.824  19.857  0.00  0.00    +0.000 N 
ATOM     19  H   UNL     1       4.092   6.588  19.469  0.00  0.00    +0.000 HD
BRANCH  17  20
ATOM     20  C   UNL     1       5.373   4.585  18.969  0.00  0.00    +0.000 A 
ATOM     21  N   UNL     1       6.515   4.941  19.601  0.00  0.00    +0.000 NA
ATOM     22  N   UNL     1       7.392   5.118  18.597  0.00  0.00    +0.000 N 
ATOM     23  C   UNL     1       6.855   4.958  17.350  0.00  0.00    +0.000 A 
ATOM     24  C   UNL     1       7.354   5.247  16.077  0.00  0.00    +0.000 A 
ATOM     25  C   UNL     1       6.548   4.903  14.987  0.00  0.00    +0.000 A 
ATOM     26  C   UNL     1       5.328   4.251  15.168  0.00  0.00    +0.000 A 
ATOM     27  C   UNL     1       4.827   4.016  16.456  0.00  0.00    +0.000 A 
ATOM     28  C   UNL     1       5.587   4.427  17.567  0.00  0.00    +0.000 A 
ATOM     29  H   UNL     1       8.340   5.391  18.828  0.00  0.00    +0.000 HD
ENDBRANCH  17  20
ENDBRANCH   1  18
TORSDOF 5
ENDMDL
MODEL 7
REMARK VINA RESULT:      -8.2      1.001      1.223
REMARK  Name = 
REMARK  5 active torsions:
REMARK  status: ('A' for Active; 'I' for Inactive)
REMARK    1  A    between atoms: C_2  and  C_19
REMARK    2  A    between atoms: N_3  and  C_4
REMARK    3  A    between atoms: C_4  and  C_5
REMARK    4  A    between atoms: C_8  and  S_9
REMARK    5  A    between atoms: S_9  and  N_12
REMARK                            x       y       z     vdW  Elec       q    Type
REMARK                         _______ _______ _______ _____ _____    ______ ____
ROOT
ATOM      1  C   UNL     1       1.995   6.052  20.303  0.00  0.00    +0.000 C 
ENDROOT
BRANCH   1   2
ATOM      2  C   UNL     1       1.675   7.527  20.253  0.00  0.00    +0.000 A 
ATOM      3  C   UNL     1       1.823   8.261  19.063  0.00  0.00    +0.000 A 
ATOM      4  C   UNL     1       1.541   9.635  19.027  0.00  0.00    +0.000 A 
ATOM      5  C   UNL     1       1.097  10.287  20.185  0.00  0.00    +0.000 A 
ATOM      6  C   UNL     1       0.975   9.570  21.380  0.00  0.00    +0.000 A 
ATOM      7  C   UNL     1       1.260   8.200  21.410  0.00  0.00    +0.000 A 
BRANCH   5   8
ATOM      8  S   UNL     1       0.881  12.075  20.191  0.00  0.00    +0.000 S 
ATOM      9  O   UNL     1       0.826  12.486  21.579  0.00  0.00    +0.000 OA
ATOM     10  O   UNL     1       1.869  12.608  19.285  0.00  0.00    +0.000 OA
BRANCH   8  11
ATOM     11  N   UNL     1      -0.633  12.311  19.512  0.00  0.00    +0.000 NA
ATOM     12  C   UNL     1      -1.780  11.503  19.918  0.00  0.00    +0.000 C 
ATOM     13  C   UNL     1      -2.324  10.922  18.628  0.00  0.00    +0.000 C 
ATOM     14  C   UNL     1      -1.876  11.865  17.524  0.00  0.00    +0.000 C 
ATOM     15  C   UNL     1      -0.771  12.731  18.113  0.00  0.00    +0.000 C 
ENDBRANCH   8  11
ENDBRANCH   5   8
ENDBRANCH   1   2
BRANCH   1  18
ATOM     16  O   UNL     1       3.105   3.541  19.665  0.00  0.00    +0.000 OA
ATOM     17  C   UNL     1       3.811   4.545  19.615  0.00  0.00    +0.000 C 
ATOM     18  N   UNL     1       3.387   5.789  20.035  0.00  0.00    +0.000 N 
ATOM     19  H   UNL     1       4.030   6.553  19.850  0.00  0.00    +0.000 HD
BRANCH  17  20
ATOM     20  C   UNL     1       5.143   4.574  18.985  0.00  0.00    +0.000 A 
ATOM     21  N   UNL     1       6.241   4.932  19.690  0.00  0.00    +0.000 NA
ATOM     22  N   UNL     1       7.178   5.118  18.744  0.00  0.00    +0.000 N 
ATOM     23  C   UNL     1       6.722   4.962  17.465  0.00  0.00    +0.000 A 
ATOM     24  C   UNL     1       7.299   5.261  16.227  0.00  0.00    +0.000 A 
ATOM     25  C   UNL     1       6.565   4.919  15.087  0.00  0.00    +0.000 A 
ATOM     26  C   UNL     1       5.339   4.260  15.187  0.00  0.00    +0.000 A 
ATOM     27  C   UNL     1       4.759   4.017  16.439  0.00  0.00    +0.000 A 
ATOM     28  C   UNL     1       5.446   4.425  17.598  0.00  0.00    +0.000 A 
ATOM     29  H   UNL     1       8.109   5.393  19.036  0.00  0.00    +0.000 HD
ENDBRANCH  17  20
ENDBRANCH   1  18
TORSDOF 5
ENDMDL
MODEL 8
REMARK VINA RESULT:      -8.2      3.354      9.027
REMARK  Name = 
REMARK  5 active torsions:
REMARK  status: ('A' for Active; 'I' for Inactive)
REMARK    1  A    between atoms: C_2  and  C_19
REMARK    2  A    between atoms: N_3  and  C_4
REMARK    3  A    between atoms: C_4  and  C_5
REMARK    4  A    between atoms: C_8  and  S_9
REMARK    5  A    between atoms: S_9  and  N_12
REMARK                            x       y       z     vdW  Elec       q    Type
REMARK                         _______ _______ _______ _____ _____    ______ ____
ROOT
ATOM      1  C   UNL     1       1.966   9.148  18.023  0.00  0.00    +0.000 C 
ENDROOT
BRANCH   1   2
ATOM      2  C   UNL     1       2.588   7.787  18.218  0.00  0.00    +0.000 A 
ATOM      3  C   UNL     1       3.344   7.183  17.198  0.00  0.00    +0.000 A 
ATOM      4  C   UNL     1       3.906   5.910  17.380  0.00  0.00    +0.000 A 
ATOM      5  C   UNL     1       3.723   5.232  18.592  0.00  0.00    +0.000 A 
ATOM      6  C   UNL     1       2.948   5.813  19.601  0.00  0.00    +0.000 A 
ATOM      7  C   UNL     1       2.388   7.082  19.414  0.00  0.00    +0.000 A 
BRANCH   5   8
ATOM      8  S   UNL     1       4.306   3.538  18.780  0.00  0.00    +0.000 S 
ATOM      9  O   UNL     1       4.501   3.012  17.446  0.00  0.00    +0.000 OA
ATOM     10  O   UNL     1       5.384   3.582  19.739  0.00  0.00    +0.000 OA
BRANCH   8  11
ATOM     11  N   UNL     1       3.016   2.732  19.482  0.00  0.00    +0.000 NA
ATOM     12  C   UNL     1       1.720   2.647  18.811  0.00  0.00    +0.000 C 
ATOM     13  C   UNL     1       0.724   3.183  19.820  0.00  0.00    +0.000 C 
ATOM     14  C   UNL     1       1.362   2.983  21.184  0.00  0.00    +0.000 C 
ATOM     15  C   UNL     1       2.841   2.719  20.938  0.00  0.00    +0.000 C 
ENDBRANCH   8  11
ENDBRANCH   5   8
ENDBRANCH   1   2
BRANCH   1  18
ATOM     16  O   UNL     1      -0.636  10.083  18.576  0.00  0.00    +0.000 OA
ATOM     17  C   UNL     1       0.198  10.045  19.477  0.00  0.00    +0.000 C 
ATOM     18  N   UNL     1       1.524   9.726  19.268  0.00  0.00    +0.000 N 
ATOM     19  H   UNL     1       2.087   9.634  20.108  0.00  0.00    +0.000 HD
BRANCH  17  20
ATOM     20  C   UNL     1      -0.137  10.204  20.903  0.00  0.00    +0.000 A 
ATOM     21  N   UNL     1      -0.155   9.139  21.738  0.00  0.00    +0.000 NA
ATOM     22  N   UNL     1      -0.766   9.610  22.840  0.00  0.00    +0.000 N 
ATOM     23  C   UNL     1      -1.202  10.901  22.730  0.00  0.00    +0.000 A 
ATOM     24  C   UNL     1      -2.040  11.673  23.539  0.00  0.00    +0.000 A 
ATOM     25  C   UNL     1      -2.241  13.004  23.155  0.00  0.00    +0.000 A 
ATOM     26  C   UNL     1      -1.588  13.542  22.047  0.00  0.00    +0.000 A 
ATOM     27  C   UNL     1      -0.792  12.735  21.224  0.00  0.00    +0.000 A 
ATOM     28  C   UNL     1      -0.640  11.373  21.548  0.00  0.00    +0.000 A 
ATOM     29  H   UNL     1      -0.896   8.982  23.625  0.00  0.00    +0.000 HD
ENDBRANCH  17  20
ENDBRANCH   1  18
TORSDOF 5
ENDMDL
MODEL 9
REMARK VINA RESULT:      -8.2      0.848      1.134
REMARK  Name = 
REMARK  5 active torsions:
REMARK  status: ('A' for Active; 'I' for Inactive)
REMARK    1  A    between atoms: C_2  and  C_19
REMARK    2  A    between atoms: N_3  and  C_4
REMARK    3  A    between atoms: C_4  and  C_5
REMARK    4  A    between atoms: C_8  and  S_9
REMARK    5  A    between atoms: S_9  and  N_12
REMARK                            x       y       z     vdW  Elec       q    Type
REMARK                         _______ _______ _______ _____ _____    ______ ____
ROOT
ATOM      1  C   UNL     1       2.748   5.463  19.932  0.00  0.00    +0.000 C 
ENDROOT
BRANCH   1   2
ATOM      2  C   UNL     1       2.192   6.866  19.888  0.00  0.00    +0.000 A 
ATOM      3  C   UNL     1       2.358   7.676  18.751  0.00  0.00    +0.000 A 
ATOM      4  C   UNL     1       1.855   8.985  18.724  0.00  0.00    +0.000 A 
ATOM      5  C   UNL     1       1.168   9.493  19.834  0.00  0.00    +0.000 A 
ATOM      6  C   UNL     1       1.024   8.704  20.980  0.00  0.00    +0.000 A 
ATOM      7  C   UNL     1       1.531   7.400  21.003  0.00  0.00    +0.000 A 
BRANCH   5   8
ATOM      8  S   UNL     1       0.653  11.219  19.870  0.00  0.00    +0.000 S 
ATOM      9  O   UNL     1       1.127  11.772  21.121  0.00  0.00    +0.000 OA
ATOM     10  O   UNL     1       1.040  11.786  18.600  0.00  0.00    +0.000 OA
BRANCH   8  11
ATOM     11  N   UNL     1      -1.020  11.151  19.923  0.00  0.00    +0.000 NA
ATOM     12  C   UNL     1      -1.797  10.701  18.771  0.00  0.00    +0.000 C 
ATOM     13  C   UNL     1      -2.785  11.820  18.507  0.00  0.00    +0.000 C 
ATOM     14  C   UNL     1      -2.949  12.552  19.828  0.00  0.00    +0.000 C 
ATOM     15  C   UNL     1      -1.786  12.121  20.712  0.00  0.00    +0.000 C 
ENDBRANCH   8  11
ENDBRANCH   5   8
ENDBRANCH   1   2
BRANCH   1  18
ATOM     16  O   UNL     1       4.274   3.117  19.595  0.00  0.00    +0.000 OA
ATOM     17  C   UNL     1       4.723   4.192  19.206  0.00  0.00    +0.000 C 
ATOM     18  N   UNL     1       4.105   5.401  19.447  0.00  0.00    +0.000 N 
ATOM     19  H   UNL     1       4.526   6.204  18.988  0.00  0.00    +0.000 HD
BRANCH  17  20
ATOM     20  C   UNL     1       5.900   4.312  18.327  0.00  0.00    +0.000 A 
ATOM     21  N   UNL     1       7.094   4.721  18.814  0.00  0.00    +0.000 NA
ATOM     22  N   UNL     1       7.815   4.981  17.708  0.00  0.00    +0.000 N 
ATOM     23  C   UNL     1       7.123   4.824  16.539  0.00  0.00    +0.000 A 
ATOM     24  C   UNL     1       7.427   5.181  15.223  0.00  0.00    +0.000 A 
ATOM     25  C   UNL     1       6.501   4.819  14.238  0.00  0.00    +0.000 A 
ATOM     26  C   UNL     1       5.357   4.087  14.557  0.00  0.00    +0.000 A 
ATOM     27  C   UNL     1       5.050   3.785  15.890  0.00  0.00    +0.000 A 
ATOM     28  C   UNL     1       5.930   4.209  16.904  0.00  0.00    +0.000 A 
ATOM     29  H   UNL     1       8.768   5.305  17.820  0.00  0.00    +0.000 HD
ENDBRANCH  17  20
ENDBRANCH   1  18
TORSDOF 5
ENDMDL
