MODEL 1
REMARK VINA RESULT:      -8.7      0.000      0.000
REMARK  Name = 
REMARK  5 active torsions:
REMARK  status: ('A' for Active; 'I' for Inactive)
REMARK    1  A    between atoms: C_2  and  C_17
REMARK    2  A    between atoms: N_3  and  C_4
REMARK    3  A    between atoms: C_4  and  C_5
REMARK    4  A    between atoms: C_8  and  C_9
REMARK    5  A    between atoms: C_9  and  N_10
REMARK                            x       y       z     vdW  Elec       q    Type
REMARK                         _______ _______ _______ _____ _____    ______ ____
ROOT
ATOM      1  O   UNL     1       8.151   6.532  18.897  0.00  0.00    +0.000 OA
ATOM      2  C   UNL     1       7.980   7.428  18.073  0.00  0.00    +0.000 C 
ATOM      3  N   UNL     1       7.406   7.204  16.845  0.00  0.00    +0.000 N 
ATOM      4  H   UNL     1       7.360   7.954  16.176  0.00  0.00    +0.000 HD
ENDROOT
BRANCH   2   5
ATOM      5  C   UNL     1       8.399   8.793  18.310  0.00  0.00    +0.000 A 
ATOM      6  C   UNL     1       8.251   9.951  17.565  0.00  0.00    +0.000 A 
ATOM      7  C   UNL     1       8.925  11.009  18.232  0.00  0.00    +0.000 A 
ATOM      8  C   UNL     1       9.150  12.366  17.934  0.00  0.00    +0.000 A 
ATOM      9  C   UNL     1       9.915  13.142  18.812  0.00  0.00    +0.000 A 
ATOM     10  C   UNL     1      10.435  12.586  19.980  0.00  0.00    +0.000 A 
ATOM     11  C   UNL     1      10.203  11.246  20.308  0.00  0.00    +0.000 A 
ATOM     12  C   UNL     1       9.450  10.481  19.409  0.00  0.00    +0.000 A 
ATOM     13  N   UNL     1       9.084   9.155  19.451  0.00  0.00    +0.000 N 
ATOM     14  H   UNL     1       9.319   8.508  20.193  0.00  0.00    +0.000 HD
ENDBRANCH   2   5
BRANCH   3  15
ATOM     15  C   UNL     1       7.003   5.887  16.415  0.00  0.00    +0.000 C 
BRANCH  15  16
ATOM     16  C   UNL     1       5.621   5.566  16.929  0.00  0.00    +0.000 A 
ATOM     17  C   UNL     1       4.743   6.587  17.318  0.00  0.00    +0.000 A 
ATOM     18  C   UNL     1       3.477   6.282  17.829  0.00  0.00    +0.000 A 
ATOM     19  C   UNL     1       3.067   4.949  17.975  0.00  0.00    +0.000 A 
ATOM     20  C   UNL     1       3.950   3.930  17.593  0.00  0.00    +0.000 A 
ATOM     21  C   UNL     1       5.215   4.236  17.081  0.00  0.00    +0.000 A 
BRANCH  19  22
ATOM     22  C   UNL     1       1.712   4.614  18.548  0.00  0.00    +0.000 C 
BRANCH  22  23
ATOM     23  N   UNL     1       1.800   3.905  19.812  0.00  0.00    +0.000 N 
ATOM     24  C   UNL     1       1.207   2.709  20.117  0.00  0.00    +0.000 A 
ATOM     25  C   UNL     1       1.446   2.525  21.459  0.00  0.00    +0.000 A 
ATOM     26  N   UNL     1       2.165   3.573  21.974  0.00  0.00    +0.000 NA
ATOM     27  C   UNL     1       2.363   4.386  20.961  0.00  0.00    +0.000 A 
ENDBRANCH  22  23
ENDBRANCH  19  22
ENDBRANCH  15  16
ENDBRANCH   3  15
TORSDOF 5
ENDMDL
MODEL 2
REMARK VINA RESULT:      -8.1      1.190      1.714
REMARK  Name = 
REMARK  5 active torsions:
REMARK  status: ('A' for Active; 'I' for Inactive)
REMARK    1  A    between atoms: C_2  and  C_17
REMARK    2  A    between atoms: N_3  and  C_4
REMARK    3  A    between atoms: C_4  and  C_5
REMARK    4  A    between atoms: C_8  and  C_9
REMARK    5  A    between atoms: C_9  and  N_10
REMARK                            x       y       z     vdW  Elec       q    Type
REMARK                         _______ _______ _______ _____ _____    ______ ____
ROOT
ATOM      1  O   UNL     1       8.554   7.254  18.959  0.00  0.00    +0.000 OA
ATOM      2  C   UNL     1       8.213   8.217  18.276  0.00  0.00    +0.000 C 
ATOM      3  N   UNL     1       7.334   8.106  17.227  0.00  0.00    +0.000 N 
ATOM      4  H   UNL     1       7.148   8.910  16.650  0.00  0.00    +0.000 HD
ENDROOT
BRANCH   2   5
ATOM      5  C   UNL     1       8.733   9.550  18.498  0.00  0.00    +0.000 A 
ATOM      6  C   UNL     1       8.686  10.703  17.732  0.00  0.00    +0.000 A 
ATOM      7  C   UNL     1       9.430  11.717  18.393  0.00  0.00    +0.000 A 
ATOM      8  C   UNL     1       9.764  13.047  18.076  0.00  0.00    +0.000 A 
ATOM      9  C   UNL     1      10.575  13.777  18.954  0.00  0.00    +0.000 A 
ATOM     10  C   UNL     1      11.032  13.203  20.139  0.00  0.00    +0.000 A 
ATOM     11  C   UNL     1      10.692  11.891  20.485  0.00  0.00    +0.000 A 
ATOM     12  C   UNL     1       9.895  11.171  19.587  0.00  0.00    +0.000 A 
ATOM     13  N   UNL     1       9.427   9.878  19.644  0.00  0.00    +0.000 N 
ATOM     14  H   UNL     1       9.600   9.228  20.400  0.00  0.00    +0.000 HD
ENDBRANCH   2   5
BRANCH   3  15
ATOM     15  C   UNL     1       6.781   6.838  16.819  0.00  0.00    +0.000 C 
BRANCH  15  16
ATOM     16  C   UNL     1       5.558   6.509  17.639  0.00  0.00    +0.000 A 
ATOM     17  C   UNL     1       5.599   5.515  18.625  0.00  0.00    +0.000 A 
ATOM     18  C   UNL     1       4.452   5.188  19.357  0.00  0.00    +0.000 A 
ATOM     19  C   UNL     1       3.236   5.838  19.107  0.00  0.00    +0.000 A 
ATOM     20  C   UNL     1       3.195   6.827  18.114  0.00  0.00    +0.000 A 
ATOM     21  C   UNL     1       4.342   7.153  17.384  0.00  0.00    +0.000 A 
BRANCH  19  22
ATOM     22  C   UNL     1       1.990   5.473  19.877  0.00  0.00    +0.000 C 
BRANCH  22  23
ATOM     23  N   UNL     1       1.467   4.170  19.506  0.00  0.00    +0.000 N 
ATOM     24  C   UNL     1       1.125   3.157  20.362  0.00  0.00    +0.000 A 
ATOM     25  C   UNL     1       0.836   2.086  19.549  0.00  0.00    +0.000 A 
ATOM     26  N   UNL     1       0.994   2.421  18.228  0.00  0.00    +0.000 NA
ATOM     27  C   UNL     1       1.372   3.679  18.234  0.00  0.00    +0.000 A 
ENDBRANCH  22  23
ENDBRANCH  19  22
ENDBRANCH  15  16
ENDBRANCH   3  15
TORSDOF 5
ENDMDL
MODEL 3
REMARK VINA RESULT:      -7.8      4.613      7.499
REMARK  Name = 
REMARK  5 active torsions:
REMARK  status: ('A' for Active; 'I' for Inactive)
REMARK    1  A    between atoms: C_2  and  C_17
REMARK    2  A    between atoms: N_3  and  C_4
REMARK    3  A    between atoms: C_4  and  C_5
REMARK    4  A    between atoms: C_8  and  C_9
REMARK    5  A    between atoms: C_9  and  N_10
REMARK                            x       y       z     vdW  Elec       q    Type
REMARK                         _______ _______ _______ _____ _____    ______ ____
ROOT
ATOM      1  O   UNL     1       5.770   4.336  18.878  0.00  0.00    +0.000 OA
ATOM      2  C   UNL     1       5.270   4.882  17.898  0.00  0.00    +0.000 C 
ATOM      3  N   UNL     1       4.130   5.644  17.976  0.00  0.00    +0.000 N 
ATOM      4  H   UNL     1       3.717   6.005  17.132  0.00  0.00    +0.000 HD
ENDROOT
BRANCH   2   5
ATOM      5  C   UNL     1       5.820   4.743  16.566  0.00  0.00    +0.000 A 
ATOM      6  C   UNL     1       6.927   5.308  15.955  0.00  0.00    +0.000 A 
ATOM      7  C   UNL     1       6.963   4.886  14.599  0.00  0.00    +0.000 A 
ATOM      8  C   UNL     1       7.808   5.169  13.510  0.00  0.00    +0.000 A 
ATOM      9  C   UNL     1       7.528   4.603  12.261  0.00  0.00    +0.000 A 
ATOM     10  C   UNL     1       6.435   3.753  12.097  0.00  0.00    +0.000 A 
ATOM     11  C   UNL     1       5.596   3.440  13.172  0.00  0.00    +0.000 A 
ATOM     12  C   UNL     1       5.882   4.028  14.410  0.00  0.00    +0.000 A 
ATOM     13  N   UNL     1       5.234   3.927  15.619  0.00  0.00    +0.000 N 
ATOM     14  H   UNL     1       4.409   3.368  15.794  0.00  0.00    +0.000 HD
ENDBRANCH   2   5
BRANCH   3  15
ATOM     15  C   UNL     1       3.409   5.822  19.213  0.00  0.00    +0.000 C 
BRANCH  15  16
ATOM     16  C   UNL     1       2.581   7.082  19.161  0.00  0.00    +0.000 A 
ATOM     17  C   UNL     1       2.522   7.858  17.996  0.00  0.00    +0.000 A 
ATOM     18  C   UNL     1       1.783   9.046  17.966  0.00  0.00    +0.000 A 
ATOM     19  C   UNL     1       1.097   9.490  19.105  0.00  0.00    +0.000 A 
ATOM     20  C   UNL     1       1.163   8.716  20.272  0.00  0.00    +0.000 A 
ATOM     21  C   UNL     1       1.902   7.529  20.301  0.00  0.00    +0.000 A 
BRANCH  19  22
ATOM     22  C   UNL     1       0.317  10.781  19.084  0.00  0.00    +0.000 C 
BRANCH  22  23
ATOM     23  N   UNL     1       1.091  11.908  19.575  0.00  0.00    +0.000 N 
ATOM     24  C   UNL     1       1.947  12.688  18.842  0.00  0.00    +0.000 A 
ATOM     25  C   UNL     1       2.554  13.511  19.762  0.00  0.00    +0.000 A 
ATOM     26  N   UNL     1       2.092  13.252  21.026  0.00  0.00    +0.000 NA
ATOM     27  C   UNL     1       1.213  12.286  20.882  0.00  0.00    +0.000 A 
ENDBRANCH  22  23
ENDBRANCH  19  22
ENDBRANCH  15  16
ENDBRANCH   3  15
TORSDOF 5
ENDMDL
MODEL 4
REMARK VINA RESULT:      -7.8      0.858      1.794
REMARK  Name = 
REMARK  5 active torsions:
REMARK  status: ('A' for Active; 'I' for Inactive)
REMARK    1  A    between atoms: C_2  and  C_17
REMARK    2  A    between atoms: N_3  and  C_4
REMARK    3  A    between atoms: C_4  and  C_5
REMARK    4  A    between atoms: C_8  and  C_9
REMARK    5  A    between atoms: C_9  and  N_10
REMARK                            x       y       z     vdW  Elec       q    Type
REMARK                         _______ _______ _______ _____ _____    ______ ____
ROOT
ATOM      1  O   UNL     1       8.315   6.924  18.934  0.00  0.00    +0.000 OA
ATOM      2  C   UNL     1       8.078   7.803  18.108  0.00  0.00    +0.000 C 
ATOM      3  N   UNL     1       7.468   7.544  16.906  0.00  0.00    +0.000 N 
ATOM      4  H   UNL     1       7.367   8.285  16.231  0.00  0.00    +0.000 HD
ENDROOT
BRANCH   2   5
ATOM      5  C   UNL     1       8.452   9.186  18.316  0.00  0.00    +0.000 A 
ATOM      6  C   UNL     1       9.203   9.806  19.301  0.00  0.00    +0.000 A 
ATOM      7  C   UNL     1       9.193  11.207  19.065  0.00  0.00    +0.000 A 
ATOM      8  C   UNL     1       9.731  12.317  19.744  0.00  0.00    +0.000 A 
ATOM      9  C   UNL     1       9.491  13.604  19.251  0.00  0.00    +0.000 A 
ATOM     10  C   UNL     1       8.744  13.790  18.089  0.00  0.00    +0.000 A 
ATOM     11  C   UNL     1       8.220  12.700  17.385  0.00  0.00    +0.000 A 
ATOM     12  C   UNL     1       8.456  11.421  17.903  0.00  0.00    +0.000 A 
ATOM     13  N   UNL     1       8.056  10.185  17.450  0.00  0.00    +0.000 N 
ATOM     14  H   UNL     1       7.506  10.018  16.618  0.00  0.00    +0.000 HD
ENDBRANCH   2   5
BRANCH   3  15
ATOM     15  C   UNL     1       7.100   6.209  16.504  0.00  0.00    +0.000 C 
BRANCH  15  16
ATOM     16  C   UNL     1       5.721   5.867  17.013  0.00  0.00    +0.000 A 
ATOM     17  C   UNL     1       5.324   4.533  17.173  0.00  0.00    +0.000 A 
ATOM     18  C   UNL     1       4.032   4.220  17.610  0.00  0.00    +0.000 A 
ATOM     19  C   UNL     1       3.105   5.236  17.883  0.00  0.00    +0.000 A 
ATOM     20  C   UNL     1       3.502   6.570  17.714  0.00  0.00    +0.000 A 
ATOM     21  C   UNL     1       4.794   6.881  17.279  0.00  0.00    +0.000 A 
BRANCH  19  22
ATOM     22  C   UNL     1       1.703   4.905  18.332  0.00  0.00    +0.000 C 
BRANCH  22  23
ATOM     23  N   UNL     1       1.676   4.196  19.599  0.00  0.00    +0.000 N 
ATOM     24  C   UNL     1       2.232   4.616  20.778  0.00  0.00    +0.000 A 
ATOM     25  C   UNL     1       2.086   3.553  21.639  0.00  0.00    +0.000 A 
ATOM     26  N   UNL     1       1.459   2.505  21.017  0.00  0.00    +0.000 NA
ATOM     27  C   UNL     1       1.224   2.921  19.793  0.00  0.00    +0.000 A 
ENDBRANCH  22  23
ENDBRANCH  19  22
ENDBRANCH  15  16
ENDBRANCH   3  15
TORSDOF 5
ENDMDL
MODEL 5
REMARK VINA RESULT:      -7.8      5.464      8.767
REMARK  Name = 
REMARK  5 active torsions:
REMARK  status: ('A' for Active; 'I' for Inactive)
REMARK    1  A    between atoms: C_2  and  C_17
REMARK    2  A    between atoms: N_3  and  C_4
REMARK    3  A    between atoms: C_4  and  C_5
REMARK    4  A    between atoms: C_8  and  C_9
REMARK    5  A    between atoms: C_9  and  N_10
REMARK                            x       y       z     vdW  Elec       q    Type
REMARK                         _______ _______ _______ _____ _____    ______ ____
ROOT
ATOM      1  O   UNL     1       0.976  10.854  20.500  0.00  0.00    +0.000 OA
ATOM      2  C   UNL     1       0.306  10.044  19.863  0.00  0.00    +0.000 C 
ATOM      3  N   UNL     1       0.583   8.699  19.853  0.00  0.00    +0.000 N 
ATOM      4  H   UNL     1       0.053   8.089  19.253  0.00  0.00    +0.000 HD
ENDROOT
BRANCH   2   5
ATOM      5  C   UNL     1      -0.816  10.441  19.039  0.00  0.00    +0.000 A 
ATOM      6  C   UNL     1      -1.968  11.157  19.322  0.00  0.00    +0.000 A 
ATOM      7  C   UNL     1      -2.778  11.193  18.156  0.00  0.00    +0.000 A 
ATOM      8  C   UNL     1      -4.049  11.724  17.865  0.00  0.00    +0.000 A 
ATOM      9  C   UNL     1      -4.591  11.541  16.588  0.00  0.00    +0.000 A 
ATOM     10  C   UNL     1      -3.876  10.858  15.606  0.00  0.00    +0.000 A 
ATOM     11  C   UNL     1      -2.601  10.344  15.866  0.00  0.00    +0.000 A 
ATOM     12  C   UNL     1      -2.082  10.521  17.154  0.00  0.00    +0.000 A 
ATOM     13  N   UNL     1      -0.887  10.114  17.700  0.00  0.00    +0.000 N 
ATOM     14  H   UNL     1      -0.165   9.602  17.210  0.00  0.00    +0.000 HD
ENDBRANCH   2   5
BRANCH   3  15
ATOM     15  C   UNL     1       1.713   8.143  20.556  0.00  0.00    +0.000 C 
BRANCH  15  16
ATOM     16  C   UNL     1       2.374   7.071  19.724  0.00  0.00    +0.000 A 
ATOM     17  C   UNL     1       2.768   7.326  18.404  0.00  0.00    +0.000 A 
ATOM     18  C   UNL     1       3.346   6.317  17.625  0.00  0.00    +0.000 A 
ATOM     19  C   UNL     1       3.530   5.029  18.145  0.00  0.00    +0.000 A 
ATOM     20  C   UNL     1       3.128   4.774  19.464  0.00  0.00    +0.000 A 
ATOM     21  C   UNL     1       2.551   5.783  20.242  0.00  0.00    +0.000 A 
BRANCH  19  22
ATOM     22  C   UNL     1       4.131   3.932  17.302  0.00  0.00    +0.000 C 
BRANCH  22  23
ATOM     23  N   UNL     1       5.381   4.329  16.679  0.00  0.00    +0.000 N 
ATOM     24  C   UNL     1       5.634   4.395  15.334  0.00  0.00    +0.000 A 
ATOM     25  C   UNL     1       6.980   4.663  15.239  0.00  0.00    +0.000 A 
ATOM     26  N   UNL     1       7.547   4.761  16.484  0.00  0.00    +0.000 NA
ATOM     27  C   UNL     1       6.562   4.556  17.328  0.00  0.00    +0.000 A 
ENDBRANCH  22  23
ENDBRANCH  19  22
ENDBRANCH  15  16
ENDBRANCH   3  15
TORSDOF 5
ENDMDL
MODEL 6
REMARK VINA RESULT:      -7.7      6.745      9.049
REMARK  Name = 
REMARK  5 active torsions:
REMARK  status: ('A' for Active; 'I' for Inactive)
REMARK    1  A    between atoms: C_2  and  C_17
REMARK    2  A    between atoms: N_3  and  C_4
REMARK    3  A    between atoms: C_4  and  C_5
REMARK    4  A    between atoms: C_8  and  C_9
REMARK    5  A    between atoms: C_9  and  N_10
REMARK                            x       y       z     vdW  Elec       q    Type
REMARK                         _______ _______ _______ _____ _____    ______ ____
ROOT
ATOM      1  O   UNL     1       1.589   7.798  20.658  0.00  0.00    +0.000 OA
ATOM      2  C   UNL     1       1.867   8.067  19.492  0.00  0.00    +0.000 C 
ATOM      3  N   UNL     1       1.479   9.239  18.890  0.00  0.00    +0.000 N 
ATOM      4  H   UNL     1       1.664   9.376  17.909  0.00  0.00    +0.000 HD
ENDROOT
BRANCH   2   5
ATOM      5  C   UNL     1       2.601   7.157  18.638  0.00  0.00    +0.000 A 
ATOM      6  C   UNL     1       2.601   5.775  18.539  0.00  0.00    +0.000 A 
ATOM      7  C   UNL     1       3.577   5.390  17.580  0.00  0.00    +0.000 A 
ATOM      8  C   UNL     1       4.044   4.149  17.107  0.00  0.00    +0.000 A 
ATOM      9  C   UNL     1       5.078   4.122  16.163  0.00  0.00    +0.000 A 
ATOM     10  C   UNL     1       5.628   5.308  15.681  0.00  0.00    +0.000 A 
ATOM     11  C   UNL     1       5.162   6.552  16.120  0.00  0.00    +0.000 A 
ATOM     12  C   UNL     1       4.139   6.560  17.076  0.00  0.00    +0.000 A 
ATOM     13  N   UNL     1       3.505   7.610  17.700  0.00  0.00    +0.000 N 
ATOM     14  H   UNL     1       3.699   8.589  17.536  0.00  0.00    +0.000 HD
ENDBRANCH   2   5
BRANCH   3  15
ATOM     15  C   UNL     1       0.675  10.223  19.571  0.00  0.00    +0.000 C 
BRANCH  15  16
ATOM     16  C   UNL     1      -0.593  10.492  18.799  0.00  0.00    +0.000 A 
ATOM     17  C   UNL     1      -0.959   9.686  17.713  0.00  0.00    +0.000 A 
ATOM     18  C   UNL     1      -2.116   9.963  16.976  0.00  0.00    +0.000 A 
ATOM     19  C   UNL     1      -2.925  11.061  17.302  0.00  0.00    +0.000 A 
ATOM     20  C   UNL     1      -2.552  11.871  18.383  0.00  0.00    +0.000 A 
ATOM     21  C   UNL     1      -1.396  11.593  19.119  0.00  0.00    +0.000 A 
BRANCH  19  22
ATOM     22  C   UNL     1      -4.160  11.378  16.497  0.00  0.00    +0.000 C 
BRANCH  22  23
ATOM     23  N   UNL     1      -5.330  11.593  17.330  0.00  0.00    +0.000 N 
ATOM     24  C   UNL     1      -5.804  10.749  18.299  0.00  0.00    +0.000 A 
ATOM     25  C   UNL     1      -7.001  11.300  18.696  0.00  0.00    +0.000 A 
ATOM     26  N   UNL     1      -7.262  12.450  17.997  0.00  0.00    +0.000 NA
ATOM     27  C   UNL     1      -6.241  12.601  17.185  0.00  0.00    +0.000 A 
ENDBRANCH  22  23
ENDBRANCH  19  22
ENDBRANCH  15  16
ENDBRANCH   3  15
TORSDOF 5
ENDMDL
MODEL 7
REMARK VINA RESULT:      -7.7      1.273      1.917
REMARK  Name = 
REMARK  5 active torsions:
REMARK  status: ('A' for Active; 'I' for Inactive)
REMARK    1  A    between atoms: C_2  and  C_17
REMARK    2  A    between atoms: N_3  and  C_4
REMARK    3  A    between atoms: C_4  and  C_5
REMARK    4  A    between atoms: C_8  and  C_9
REMARK    5  A    between atoms: C_9  and  N_10
REMARK                            x       y       z     vdW  Elec       q    Type
REMARK                         _______ _______ _______ _____ _____    ______ ____
ROOT
ATOM      1  O   UNL     1       8.569   7.299  19.007  0.00  0.00    +0.000 OA
ATOM      2  C   UNL     1       8.245   8.226  18.268  0.00  0.00    +0.000 C 
ATOM      3  N   UNL     1       7.433   8.052  17.174  0.00  0.00    +0.000 N 
ATOM      4  H   UNL     1       7.262   8.828  16.556  0.00  0.00    +0.000 HD
ENDROOT
BRANCH   2   5
ATOM      5  C   UNL     1       8.717   9.580  18.467  0.00  0.00    +0.000 A 
ATOM      6  C   UNL     1       9.536  10.144  19.430  0.00  0.00    +0.000 A 
ATOM      7  C   UNL     1       9.614  11.544  19.196  0.00  0.00    +0.000 A 
ATOM      8  C   UNL     1      10.246  12.612  19.861  0.00  0.00    +0.000 A 
ATOM      9  C   UNL     1      10.079  13.914  19.376  0.00  0.00    +0.000 A 
ATOM     10  C   UNL     1       9.313  14.153  18.237  0.00  0.00    +0.000 A 
ATOM     11  C   UNL     1       8.697  13.104  17.546  0.00  0.00    +0.000 A 
ATOM     12  C   UNL     1       8.861  11.810  18.056  0.00  0.00    +0.000 A 
ATOM     13  N   UNL     1       8.365  10.605  17.613  0.00  0.00    +0.000 N 
ATOM     14  H   UNL     1       7.781  10.479  16.797  0.00  0.00    +0.000 HD
ENDBRANCH   2   5
BRANCH   3  15
ATOM     15  C   UNL     1       6.938   6.754  16.785  0.00  0.00    +0.000 C 
BRANCH  15  16
ATOM     16  C   UNL     1       5.680   6.421  17.549  0.00  0.00    +0.000 A 
ATOM     17  C   UNL     1       4.471   7.069  17.263  0.00  0.00    +0.000 A 
ATOM     18  C   UNL     1       3.317   6.783  18.000  0.00  0.00    +0.000 A 
ATOM     19  C   UNL     1       3.350   5.853  19.048  0.00  0.00    +0.000 A 
ATOM     20  C   UNL     1       4.562   5.211  19.338  0.00  0.00    +0.000 A 
ATOM     21  C   UNL     1       5.715   5.497  18.600  0.00  0.00    +0.000 A 
BRANCH  19  22
ATOM     22  C   UNL     1       2.113   5.558  19.861  0.00  0.00    +0.000 C 
BRANCH  22  23
ATOM     23  N   UNL     1       1.521   4.274  19.530  0.00  0.00    +0.000 N 
ATOM     24  C   UNL     1       1.169   3.289  20.414  0.00  0.00    +0.000 A 
ATOM     25  C   UNL     1       0.803   2.221  19.628  0.00  0.00    +0.000 A 
ATOM     26  N   UNL     1       0.922   2.531  18.298  0.00  0.00    +0.000 NA
ATOM     27  C   UNL     1       1.354   3.772  18.271  0.00  0.00    +0.000 A 
ENDBRANCH  22  23
ENDBRANCH  19  22
ENDBRANCH  15  16
ENDBRANCH   3  15
TORSDOF 5
ENDMDL
MODEL 8
REMARK VINA RESULT:      -7.7      1.207      1.641
REMARK  Name = 
REMARK  5 active torsions:
REMARK  status: ('A' for Active; 'I' for Inactive)
REMARK    1  A    between atoms: C_2  and  C_17
REMARK    2  A    between atoms: N_3  and  C_4
REMARK    3  A    between atoms: C_4  and  C_5
REMARK    4  A    between atoms: C_8  and  C_9
REMARK    5  A    between atoms: C_9  and  N_10
REMARK                            x       y       z     vdW  Elec       q    Type
REMARK                         _______ _______ _______ _____ _____    ______ ____
ROOT
ATOM      1  O   UNL     1       8.485   7.230  18.907  0.00  0.00    +0.000 OA
ATOM      2  C   UNL     1       8.141   8.184  18.212  0.00  0.00    +0.000 C 
ATOM      3  N   UNL     1       7.256   8.060  17.170  0.00  0.00    +0.000 N 
ATOM      4  H   UNL     1       7.068   8.856  16.583  0.00  0.00    +0.000 HD
ENDROOT
BRANCH   2   5
ATOM      5  C   UNL     1       8.665   9.518  18.412  0.00  0.00    +0.000 A 
ATOM      6  C   UNL     1       9.543  10.040  19.347  0.00  0.00    +0.000 A 
ATOM      7  C   UNL     1       9.656  11.440  19.132  0.00  0.00    +0.000 A 
ATOM      8  C   UNL     1      10.349  12.477  19.786  0.00  0.00    +0.000 A 
ATOM      9  C   UNL     1      10.204  13.792  19.329  0.00  0.00    +0.000 A 
ATOM     10  C   UNL     1       9.397  14.074  18.229  0.00  0.00    +0.000 A 
ATOM     11  C   UNL     1       8.718  13.057  17.549  0.00  0.00    +0.000 A 
ATOM     12  C   UNL     1       8.862  11.750  18.030  0.00  0.00    +0.000 A 
ATOM     13  N   UNL     1       8.309  10.569  17.591  0.00  0.00    +0.000 N 
ATOM     14  H   UNL     1       7.686  10.475  16.799  0.00  0.00    +0.000 HD
ENDBRANCH   2   5
BRANCH   3  15
ATOM     15  C   UNL     1       6.698   6.787  16.783  0.00  0.00    +0.000 C 
BRANCH  15  16
ATOM     16  C   UNL     1       5.460   6.488  17.592  0.00  0.00    +0.000 A 
ATOM     17  C   UNL     1       4.259   7.165  17.346  0.00  0.00    +0.000 A 
ATOM     18  C   UNL     1       3.124   6.911  18.125  0.00  0.00    +0.000 A 
ATOM     19  C   UNL     1       3.170   5.983  19.175  0.00  0.00    +0.000 A 
ATOM     20  C   UNL     1       4.376   5.313  19.424  0.00  0.00    +0.000 A 
ATOM     21  C   UNL     1       5.509   5.567  18.645  0.00  0.00    +0.000 A 
BRANCH  19  22
ATOM     22  C   UNL     1       1.956   5.723  20.032  0.00  0.00    +0.000 C 
BRANCH  22  23
ATOM     23  N   UNL     1       1.851   4.334  20.442  0.00  0.00    +0.000 N 
ATOM     24  C   UNL     1       1.246   3.323  19.743  0.00  0.00    +0.000 A 
ATOM     25  C   UNL     1       1.263   2.242  20.594  0.00  0.00    +0.000 A 
ATOM     26  N   UNL     1       1.859   2.570  21.784  0.00  0.00    +0.000 NA
ATOM     27  C   UNL     1       2.203   3.832  21.663  0.00  0.00    +0.000 A 
ENDBRANCH  22  23
ENDBRANCH  19  22
ENDBRANCH  15  16
ENDBRANCH   3  15
TORSDOF 5
ENDMDL
MODEL 9
REMARK VINA RESULT:      -7.7      4.736      7.423
REMARK  Name = 
REMARK  5 active torsions:
REMARK  status: ('A' for Active; 'I' for Inactive)
REMARK    1  A    between atoms: C_2  and  C_17
REMARK    2  A    between atoms: N_3  and  C_4
REMARK    3  A    between atoms: C_4  and  C_5
REMARK    4  A    between atoms: C_8  and  C_9
REMARK    5  A    between atoms: C_9  and  N_10
REMARK                            x       y       z     vdW  Elec       q    Type
REMARK                         _______ _______ _______ _____ _____    ______ ____
ROOT
ATOM      1  O   UNL     1       5.839   5.336  18.977  0.00  0.00    +0.000 OA
ATOM      2  C   UNL     1       5.170   5.444  17.952  0.00  0.00    +0.000 C 
ATOM      3  N   UNL     1       3.853   5.831  17.964  0.00  0.00    +0.000 N 
ATOM      4  H   UNL     1       3.328   5.828  17.105  0.00  0.00    +0.000 HD
ENDROOT
BRANCH   2   5
ATOM      5  C   UNL     1       5.704   5.141  16.640  0.00  0.00    +0.000 A 
ATOM      6  C   UNL     1       6.826   5.595  15.968  0.00  0.00    +0.000 A 
ATOM      7  C   UNL     1       6.836   5.028  14.665  0.00  0.00    +0.000 A 
ATOM      8  C   UNL     1       7.683   5.158  13.549  0.00  0.00    +0.000 A 
ATOM      9  C   UNL     1       7.372   4.471  12.370  0.00  0.00    +0.000 A 
ATOM     10  C   UNL     1       6.248   3.651  12.303  0.00  0.00    +0.000 A 
ATOM     11  C   UNL     1       5.406   3.487  13.409  0.00  0.00    +0.000 A 
ATOM     12  C   UNL     1       5.723   4.195  14.574  0.00  0.00    +0.000 A 
ATOM     13  N   UNL     1       5.082   4.250  15.790  0.00  0.00    +0.000 N 
ATOM     14  H   UNL     1       4.238   3.745  16.028  0.00  0.00    +0.000 HD
ENDBRANCH   2   5
BRANCH   3  15
ATOM     15  C   UNL     1       3.142   6.096  19.191  0.00  0.00    +0.000 C 
BRANCH  15  16
ATOM     16  C   UNL     1       2.384   7.396  19.090  0.00  0.00    +0.000 A 
ATOM     17  C   UNL     1       2.389   8.141  17.903  0.00  0.00    +0.000 A 
ATOM     18  C   UNL     1       1.715   9.366  17.826  0.00  0.00    +0.000 A 
ATOM     19  C   UNL     1       1.033   9.877  18.939  0.00  0.00    +0.000 A 
ATOM     20  C   UNL     1       1.036   9.134  20.128  0.00  0.00    +0.000 A 
ATOM     21  C   UNL     1       1.709   7.910  20.203  0.00  0.00    +0.000 A 
BRANCH  19  22
ATOM     22  C   UNL     1       0.325  11.207  18.869  0.00  0.00    +0.000 C 
BRANCH  22  23
ATOM     23  N   UNL     1      -1.094  11.070  18.590  0.00  0.00    +0.000 N 
ATOM     24  C   UNL     1      -1.669  10.185  17.718  0.00  0.00    +0.000 A 
ATOM     25  C   UNL     1      -2.999  10.536  17.681  0.00  0.00    +0.000 A 
ATOM     26  N   UNL     1      -3.243  11.605  18.504  0.00  0.00    +0.000 NA
ATOM     27  C   UNL     1      -2.080  11.903  19.037  0.00  0.00    +0.000 A 
ENDBRANCH  22  23
ENDBRANCH  19  22
ENDBRANCH  15  16
ENDBRANCH   3  15
TORSDOF 5
ENDMDL
