MODEL 1
REMARK VINA RESULT:      -8.1      0.000      0.000
REMARK  Name = 
REMARK  3 active torsions:
REMARK  status: ('A' for Active; 'I' for Inactive)
REMARK    1  A    between atoms: C_8  and  S_9
REMARK    2  A    between atoms: S_9  and  N_12
REMARK    3  A    between atoms: C_17  and  C_18
REMARK                            x       y       z     vdW  Elec       q    Type
REMARK                         _______ _______ _______ _____ _____    ______ ____
ROOT
ATOM      1  S   UNL     1       3.600   2.411  17.808  0.00  0.00    +0.000 S 
ATOM      2  O   UNL     1       2.634   2.438  16.728  0.00  0.00    +0.000 OA
ATOM      3  O   UNL     1       4.592   1.366  17.913  0.00  0.00    +0.000 OA
ENDROOT
BRANCH   1  11
ATOM      4  O   UNL     1       8.630   8.630  17.416  0.00  0.00    +0.000 OA
ATOM      5  C   UNL     1       7.895   7.694  17.714  0.00  0.00    +0.000 A 
ATOM      6  N   UNL     1       8.056   6.987  18.871  0.00  0.00    +0.000 N 
ATOM      7  C   UNL     1       7.359   5.860  19.236  0.00  0.00    +0.000 A 
ATOM      8  O   UNL     1       7.590   5.249  20.273  0.00  0.00    +0.000 OA
ATOM      9  C   UNL     1       6.296   5.425  18.308  0.00  0.00    +0.000 A 
ATOM     10  C   UNL     1       5.565   4.255  18.547  0.00  0.00    +0.000 A 
ATOM     11  C   UNL     1       4.532   3.922  17.673  0.00  0.00    +0.000 A 
ATOM     12  C   UNL     1       4.229   4.754  16.581  0.00  0.00    +0.000 A 
ATOM     13  C   UNL     1       4.996   5.893  16.326  0.00  0.00    +0.000 A 
ATOM     14  C   UNL     1       6.045   6.212  17.183  0.00  0.00    +0.000 A 
ATOM     15  N   UNL     1       6.867   7.306  16.903  0.00  0.00    +0.000 N 
ATOM     16  H   UNL     1       8.797   7.290  19.486  0.00  0.00    +0.000 HD
ATOM     17  H   UNL     1       6.754   7.838  16.049  0.00  0.00    +0.000 HD
ENDBRANCH   1  11
BRANCH   1  18
ATOM     18  N   UNL     1       2.747   2.500  19.273  0.00  0.00    +0.000 NA
ATOM     19  C   UNL     1       3.542   2.463  20.530  0.00  0.00    +0.000 C 
ATOM     20  C   UNL     1       2.665   2.167  21.742  0.00  0.00    +0.000 C 
ATOM     21  C   UNL     1       1.428   3.054  21.805  0.00  0.00    +0.000 C 
ATOM     22  C   UNL     1       0.667   3.008  20.488  0.00  0.00    +0.000 C 
ATOM     23  C   UNL     1       1.546   3.402  19.281  0.00  0.00    +0.000 C 
BRANCH  23  24
ATOM     24  C   UNL     1       1.770   4.908  19.150  0.00  0.00    +0.000 A 
ATOM     25  C   UNL     1       2.395   5.709  20.121  0.00  0.00    +0.000 A 
ATOM     26  C   UNL     1       2.644   7.067  19.893  0.00  0.00    +0.000 A 
ATOM     27  C   UNL     1       2.271   7.644  18.688  0.00  0.00    +0.000 A 
ATOM     28  F   UNL     1       2.536   8.937  18.466  0.00  0.00    +0.000 F 
ATOM     29  C   UNL     1       1.642   6.892  17.711  0.00  0.00    +0.000 A 
ATOM     30  C   UNL     1       1.403   5.541  17.948  0.00  0.00    +0.000 A 
ATOM     31  F   UNL     1       0.820   4.828  16.973  0.00  0.00    +0.000 F 
ENDBRANCH  23  24
ENDBRANCH   1  18
TORSDOF 3
ENDMDL
MODEL 2
REMARK VINA RESULT:      -7.8      3.154      5.051
REMARK  Name = 
REMARK  3 active torsions:
REMARK  status: ('A' for Active; 'I' for Inactive)
REMARK    1  A    between atoms: C_8  and  S_9
REMARK    2  A    between atoms: S_9  and  N_12
REMARK    3  A    between atoms: C_17  and  C_18
REMARK                            x       y       z     vdW  Elec       q    Type
REMARK                         _______ _______ _______ _____ _____    ______ ____
ROOT
ATOM      1  S   UNL     1       5.663   5.459  18.533  0.00  0.00    +0.000 S 
ATOM      2  O   UNL     1       5.335   4.301  19.340  0.00  0.00    +0.000 OA
ATOM      3  O   UNL     1       6.891   6.195  18.725  0.00  0.00    +0.000 OA
ENDROOT
BRANCH   1  11
ATOM      4  O   UNL     1       6.977   2.801  11.094  0.00  0.00    +0.000 OA
ATOM      5  C   UNL     1       6.870   3.414  12.151  0.00  0.00    +0.000 A 
ATOM      6  N   UNL     1       7.675   4.474  12.458  0.00  0.00    +0.000 N 
ATOM      7  C   UNL     1       7.706   5.148  13.655  0.00  0.00    +0.000 A 
ATOM      8  O   UNL     1       8.490   6.064  13.876  0.00  0.00    +0.000 OA
ATOM      9  C   UNL     1       6.727   4.714  14.671  0.00  0.00    +0.000 A 
ATOM     10  C   UNL     1       6.711   5.287  15.948  0.00  0.00    +0.000 A 
ATOM     11  C   UNL     1       5.726   4.884  16.849  0.00  0.00    +0.000 A 
ATOM     12  C   UNL     1       4.766   3.929  16.473  0.00  0.00    +0.000 A 
ATOM     13  C   UNL     1       4.822   3.330  15.213  0.00  0.00    +0.000 A 
ATOM     14  C   UNL     1       5.820   3.712  14.321  0.00  0.00    +0.000 A 
ATOM     15  N   UNL     1       5.935   3.072  13.085  0.00  0.00    +0.000 N 
ATOM     16  H   UNL     1       8.348   4.747  11.758  0.00  0.00    +0.000 HD
ATOM     17  H   UNL     1       5.341   2.286  12.848  0.00  0.00    +0.000 HD
ENDBRANCH   1  11
BRANCH   1  18
ATOM     18  N   UNL     1       4.359   6.543  18.624  0.00  0.00    +0.000 NA
ATOM     19  C   UNL     1       3.925   7.195  17.359  0.00  0.00    +0.000 C 
ATOM     20  C   UNL     1       3.029   8.401  17.626  0.00  0.00    +0.000 C 
ATOM     21  C   UNL     1       1.897   8.091  18.596  0.00  0.00    +0.000 C 
ATOM     22  C   UNL     1       2.439   7.451  19.867  0.00  0.00    +0.000 C 
ATOM     23  C   UNL     1       3.264   6.177  19.584  0.00  0.00    +0.000 C 
BRANCH  23  24
ATOM     24  C   UNL     1       2.411   4.948  19.276  0.00  0.00    +0.000 A 
ATOM     25  C   UNL     1       2.035   4.541  17.985  0.00  0.00    +0.000 A 
ATOM     26  C   UNL     1       1.325   3.353  17.774  0.00  0.00    +0.000 A 
ATOM     27  C   UNL     1       0.981   2.554  18.854  0.00  0.00    +0.000 A 
ATOM     28  F   UNL     1       0.325   1.407  18.643  0.00  0.00    +0.000 F 
ATOM     29  C   UNL     1       1.322   2.925  20.143  0.00  0.00    +0.000 A 
ATOM     30  C   UNL     1       2.031   4.108  20.340  0.00  0.00    +0.000 A 
ATOM     31  F   UNL     1       2.376   4.429  21.595  0.00  0.00    +0.000 F 
ENDBRANCH  23  24
ENDBRANCH   1  18
TORSDOF 3
ENDMDL
MODEL 3
REMARK VINA RESULT:      -7.8      5.743      7.805
REMARK  Name = 
REMARK  3 active torsions:
REMARK  status: ('A' for Active; 'I' for Inactive)
REMARK    1  A    between atoms: C_8  and  S_9
REMARK    2  A    between atoms: S_9  and  N_12
REMARK    3  A    between atoms: C_17  and  C_18
REMARK                            x       y       z     vdW  Elec       q    Type
REMARK                         _______ _______ _______ _____ _____    ______ ____
ROOT
ATOM      1  S   UNL     1       0.492   9.362  21.125  0.00  0.00    +0.000 S 
ATOM      2  O   UNL     1      -0.647   8.678  21.702  0.00  0.00    +0.000 OA
ATOM      3  O   UNL     1       1.457  10.055  21.947  0.00  0.00    +0.000 OA
ENDROOT
BRANCH   1  11
ATOM      4  O   UNL     1       3.949   3.107  17.511  0.00  0.00    +0.000 OA
ATOM      5  C   UNL     1       3.491   3.957  18.268  0.00  0.00    +0.000 A 
ATOM      6  N   UNL     1       3.150   3.669  19.559  0.00  0.00    +0.000 N 
ATOM      7  C   UNL     1       2.530   4.519  20.442  0.00  0.00    +0.000 A 
ATOM      8  O   UNL     1       2.212   4.176  21.574  0.00  0.00    +0.000 OA
ATOM      9  C   UNL     1       2.274   5.889  19.955  0.00  0.00    +0.000 A 
ATOM     10  C   UNL     1       1.591   6.820  20.746  0.00  0.00    +0.000 A 
ATOM     11  C   UNL     1       1.429   8.117  20.262  0.00  0.00    +0.000 A 
ATOM     12  C   UNL     1       1.952   8.479  19.009  0.00  0.00    +0.000 A 
ATOM     13  C   UNL     1       2.589   7.529  18.208  0.00  0.00    +0.000 A 
ATOM     14  C   UNL     1       2.729   6.227  18.678  0.00  0.00    +0.000 A 
ATOM     15  N   UNL     1       3.297   5.246  17.862  0.00  0.00    +0.000 N 
ATOM     16  H   UNL     1       3.319   2.724  19.870  0.00  0.00    +0.000 HD
ATOM     17  H   UNL     1       3.555   5.451  16.905  0.00  0.00    +0.000 HD
ENDBRANCH   1  11
BRANCH   1  18
ATOM     18  N   UNL     1      -0.087  10.435  19.944  0.00  0.00    +0.000 NA
ATOM     19  C   UNL     1      -1.272  10.005  19.153  0.00  0.00    +0.000 C 
ATOM     20  C   UNL     1      -1.452  10.858  17.901  0.00  0.00    +0.000 C 
ATOM     21  C   UNL     1      -1.398  12.352  18.193  0.00  0.00    +0.000 C 
ATOM     22  C   UNL     1      -0.143  12.699  18.981  0.00  0.00    +0.000 C 
ATOM     23  C   UNL     1      -0.024  11.895  20.293  0.00  0.00    +0.000 C 
BRANCH  23  24
ATOM     24  C   UNL     1      -0.925  12.410  21.415  0.00  0.00    +0.000 A 
ATOM     25  C   UNL     1      -2.185  11.878  21.734  0.00  0.00    +0.000 A 
ATOM     26  C   UNL     1      -2.915  12.346  22.833  0.00  0.00    +0.000 A 
ATOM     27  C   UNL     1      -2.394  13.355  23.628  0.00  0.00    +0.000 A 
ATOM     28  F   UNL     1      -3.086  13.781  24.692  0.00  0.00    +0.000 F 
ATOM     29  C   UNL     1      -1.161  13.915  23.340  0.00  0.00    +0.000 A 
ATOM     30  C   UNL     1      -0.442  13.439  22.246  0.00  0.00    +0.000 A 
ATOM     31  F   UNL     1       0.762  13.977  22.007  0.00  0.00    +0.000 F 
ENDBRANCH  23  24
ENDBRANCH   1  18
TORSDOF 3
ENDMDL
MODEL 4
REMARK VINA RESULT:      -7.7      4.016      6.318
REMARK  Name = 
REMARK  3 active torsions:
REMARK  status: ('A' for Active; 'I' for Inactive)
REMARK    1  A    between atoms: C_8  and  S_9
REMARK    2  A    between atoms: S_9  and  N_12
REMARK    3  A    between atoms: C_17  and  C_18
REMARK                            x       y       z     vdW  Elec       q    Type
REMARK                         _______ _______ _______ _____ _____    ______ ____
ROOT
ATOM      1  S   UNL     1       3.605   5.470  18.757  0.00  0.00    +0.000 S 
ATOM      2  O   UNL     1       3.333   4.759  19.990  0.00  0.00    +0.000 OA
ATOM      3  O   UNL     1       3.291   4.900  17.467  0.00  0.00    +0.000 OA
ENDROOT
BRANCH   1  11
ATOM      4  O   UNL     1      -0.133  12.438  20.018  0.00  0.00    +0.000 OA
ATOM      5  C   UNL     1       0.297  11.290  20.001  0.00  0.00    +0.000 A 
ATOM      6  N   UNL     1       0.228  10.475  21.095  0.00  0.00    +0.000 N 
ATOM      7  C   UNL     1       0.779   9.221  21.208  0.00  0.00    +0.000 A 
ATOM      8  O   UNL     1       0.716   8.564  22.240  0.00  0.00    +0.000 OA
ATOM      9  C   UNL     1       1.449   8.695  20.002  0.00  0.00    +0.000 A 
ATOM     10  C   UNL     1       2.099   7.456  20.021  0.00  0.00    +0.000 A 
ATOM     11  C   UNL     1       2.663   6.979  18.839  0.00  0.00    +0.000 A 
ATOM     12  C   UNL     1       2.568   7.727  17.653  0.00  0.00    +0.000 A 
ATOM     13  C   UNL     1       1.958   8.983  17.657  0.00  0.00    +0.000 A 
ATOM     14  C   UNL     1       1.418   9.473  18.843  0.00  0.00    +0.000 A 
ATOM     15  N   UNL     1       0.869  10.757  18.883  0.00  0.00    +0.000 N 
ATOM     16  H   UNL     1      -0.220  10.857  21.915  0.00  0.00    +0.000 HD
ATOM     17  H   UNL     1       0.914  11.367  18.076  0.00  0.00    +0.000 HD
ENDBRANCH   1  11
BRANCH   1  18
ATOM     18  N   UNL     1       5.242   5.922  18.767  0.00  0.00    +0.000 NA
ATOM     19  C   UNL     1       6.184   5.058  19.529  0.00  0.00    +0.000 C 
ATOM     20  C   UNL     1       7.516   5.759  19.777  0.00  0.00    +0.000 C 
ATOM     21  C   UNL     1       8.104   6.372  18.513  0.00  0.00    +0.000 C 
ATOM     22  C   UNL     1       7.078   7.257  17.818  0.00  0.00    +0.000 C 
ATOM     23  C   UNL     1       5.772   6.504  17.488  0.00  0.00    +0.000 C 
BRANCH  23  24
ATOM     24  C   UNL     1       5.879   5.593  16.267  0.00  0.00    +0.000 A 
ATOM     25  C   UNL     1       6.447   4.308  16.278  0.00  0.00    +0.000 A 
ATOM     26  C   UNL     1       6.430   3.496  15.138  0.00  0.00    +0.000 A 
ATOM     27  C   UNL     1       5.844   3.958  13.970  0.00  0.00    +0.000 A 
ATOM     28  F   UNL     1       5.809   3.166  12.891  0.00  0.00    +0.000 F 
ATOM     29  C   UNL     1       5.284   5.223  13.914  0.00  0.00    +0.000 A 
ATOM     30  C   UNL     1       5.303   6.021  15.055  0.00  0.00    +0.000 A 
ATOM     31  F   UNL     1       4.727   7.229  14.984  0.00  0.00    +0.000 F 
ENDBRANCH  23  24
ENDBRANCH   1  18
TORSDOF 3
ENDMDL
MODEL 5
REMARK VINA RESULT:      -7.5      3.944      6.478
REMARK  Name = 
REMARK  3 active torsions:
REMARK  status: ('A' for Active; 'I' for Inactive)
REMARK    1  A    between atoms: C_8  and  S_9
REMARK    2  A    between atoms: S_9  and  N_12
REMARK    3  A    between atoms: C_17  and  C_18
REMARK                            x       y       z     vdW  Elec       q    Type
REMARK                         _______ _______ _______ _____ _____    ______ ____
ROOT
ATOM      1  S   UNL     1       3.649   5.281  18.786  0.00  0.00    +0.000 S 
ATOM      2  O   UNL     1       3.544   4.255  19.803  0.00  0.00    +0.000 OA
ATOM      3  O   UNL     1       3.214   5.051  17.427  0.00  0.00    +0.000 OA
ENDROOT
BRANCH   1  11
ATOM      4  O   UNL     1      -1.138  11.493  20.404  0.00  0.00    +0.000 OA
ATOM      5  C   UNL     1      -0.269  10.706  20.042  0.00  0.00    +0.000 A 
ATOM      6  N   UNL     1       0.513  10.944  18.948  0.00  0.00    +0.000 N 
ATOM      7  C   UNL     1       1.428  10.076  18.403  0.00  0.00    +0.000 A 
ATOM      8  O   UNL     1       2.065  10.340  17.390  0.00  0.00    +0.000 OA
ATOM      9  C   UNL     1       1.617   8.797  19.117  0.00  0.00    +0.000 A 
ATOM     10  C   UNL     1       2.477   7.813  18.617  0.00  0.00    +0.000 A 
ATOM     11  C   UNL     1       2.665   6.649  19.361  0.00  0.00    +0.000 A 
ATOM     12  C   UNL     1       2.010   6.479  20.593  0.00  0.00    +0.000 A 
ATOM     13  C   UNL     1       1.118   7.448  21.058  0.00  0.00    +0.000 A 
ATOM     14  C   UNL     1       0.909   8.598  20.304  0.00  0.00    +0.000 A 
ATOM     15  N   UNL     1      -0.033   9.543  20.717  0.00  0.00    +0.000 N 
ATOM     16  H   UNL     1       0.360  11.816  18.465  0.00  0.00    +0.000 HD
ATOM     17  H   UNL     1      -0.617   9.377  21.527  0.00  0.00    +0.000 HD
ENDBRANCH   1  11
BRANCH   1  18
ATOM     18  N   UNL     1       5.258   5.823  18.756  0.00  0.00    +0.000 NA
ATOM     19  C   UNL     1       6.265   5.010  19.490  0.00  0.00    +0.000 C 
ATOM     20  C   UNL     1       7.562   5.784  19.708  0.00  0.00    +0.000 C 
ATOM     21  C   UNL     1       8.083   6.431  18.432  0.00  0.00    +0.000 C 
ATOM     22  C   UNL     1       6.994   7.260  17.767  0.00  0.00    +0.000 C 
ATOM     23  C   UNL     1       5.723   6.437  17.467  0.00  0.00    +0.000 C 
BRANCH  23  24
ATOM     24  C   UNL     1       5.849   5.536  16.239  0.00  0.00    +0.000 A 
ATOM     25  C   UNL     1       6.394   4.241  16.253  0.00  0.00    +0.000 A 
ATOM     26  C   UNL     1       6.396   3.441  15.105  0.00  0.00    +0.000 A 
ATOM     27  C   UNL     1       5.851   3.925  13.925  0.00  0.00    +0.000 A 
ATOM     28  F   UNL     1       5.833   3.145  12.837  0.00  0.00    +0.000 F 
ATOM     29  C   UNL     1       5.315   5.200  13.867  0.00  0.00    +0.000 A 
ATOM     30  C   UNL     1       5.316   5.986  15.016  0.00  0.00    +0.000 A 
ATOM     31  F   UNL     1       4.763   7.205  14.941  0.00  0.00    +0.000 F 
ENDBRANCH  23  24
ENDBRANCH   1  18
TORSDOF 3
ENDMDL
MODEL 6
REMARK VINA RESULT:      -7.5      4.816      6.739
REMARK  Name = 
REMARK  3 active torsions:
REMARK  status: ('A' for Active; 'I' for Inactive)
REMARK    1  A    between atoms: C_8  and  S_9
REMARK    2  A    between atoms: S_9  and  N_12
REMARK    3  A    between atoms: C_17  and  C_18
REMARK                            x       y       z     vdW  Elec       q    Type
REMARK                         _______ _______ _______ _____ _____    ______ ____
ROOT
ATOM      1  S   UNL     1       2.549   7.184  18.246  0.00  0.00    +0.000 S 
ATOM      2  O   UNL     1       1.645   7.295  17.119  0.00  0.00    +0.000 OA
ATOM      3  O   UNL     1       3.926   7.612  18.159  0.00  0.00    +0.000 OA
ENDROOT
BRANCH   1  11
ATOM      4  O   UNL     1      -1.365  11.902  23.398  0.00  0.00    +0.000 OA
ATOM      5  C   UNL     1      -0.691  11.387  22.513  0.00  0.00    +0.000 A 
ATOM      6  N   UNL     1      -0.410  12.038  21.345  0.00  0.00    +0.000 N 
ATOM      7  C   UNL     1       0.238  11.506  20.256  0.00  0.00    +0.000 A 
ATOM      8  O   UNL     1       0.415  12.138  19.222  0.00  0.00    +0.000 OA
ATOM      9  C   UNL     1       0.725  10.121  20.403  0.00  0.00    +0.000 A 
ATOM     10  C   UNL     1       1.342   9.457  19.336  0.00  0.00    +0.000 A 
ATOM     11  C   UNL     1       1.838   8.171  19.547  0.00  0.00    +0.000 A 
ATOM     12  C   UNL     1       1.727   7.564  20.809  0.00  0.00    +0.000 A 
ATOM     13  C   UNL     1       1.068   8.218  21.852  0.00  0.00    +0.000 A 
ATOM     14  C   UNL     1       0.548   9.490  21.636  0.00  0.00    +0.000 A 
ATOM     15  N   UNL     1      -0.178  10.129  22.644  0.00  0.00    +0.000 N 
ATOM     16  H   UNL     1      -0.764  12.979  21.258  0.00  0.00    +0.000 HD
ATOM     17  H   UNL     1      -0.389   9.655  23.514  0.00  0.00    +0.000 HD
ENDBRANCH   1  11
BRANCH   1  18
ATOM     18  N   UNL     1       2.513   5.575  18.787  0.00  0.00    +0.000 NA
ATOM     19  C   UNL     1       1.520   4.665  18.155  0.00  0.00    +0.000 C 
ATOM     20  C   UNL     1       1.326   3.390  18.970  0.00  0.00    +0.000 C 
ATOM     21  C   UNL     1       2.644   2.724  19.345  0.00  0.00    +0.000 C 
ATOM     22  C   UNL     1       3.582   3.724  20.006  0.00  0.00    +0.000 C 
ATOM     23  C   UNL     1       3.843   4.964  19.125  0.00  0.00    +0.000 C 
BRANCH  23  24
ATOM     24  C   UNL     1       4.835   4.716  17.990  0.00  0.00    +0.000 A 
ATOM     25  C   UNL     1       4.475   4.367  16.678  0.00  0.00    +0.000 A 
ATOM     26  C   UNL     1       5.437   4.242  15.669  0.00  0.00    +0.000 A 
ATOM     27  C   UNL     1       6.775   4.462  15.960  0.00  0.00    +0.000 A 
ATOM     28  F   UNL     1       7.687   4.365  14.984  0.00  0.00    +0.000 F 
ATOM     29  C   UNL     1       7.172   4.795  17.243  0.00  0.00    +0.000 A 
ATOM     30  C   UNL     1       6.206   4.920  18.238  0.00  0.00    +0.000 A 
ATOM     31  F   UNL     1       6.614   5.273  19.466  0.00  0.00    +0.000 F 
ENDBRANCH  23  24
ENDBRANCH   1  18
TORSDOF 3
ENDMDL
MODEL 7
REMARK VINA RESULT:      -7.0      8.349     10.859
REMARK  Name = 
REMARK  3 active torsions:
REMARK  status: ('A' for Active; 'I' for Inactive)
REMARK    1  A    between atoms: C_8  and  S_9
REMARK    2  A    between atoms: S_9  and  N_12
REMARK    3  A    between atoms: C_17  and  C_18
REMARK                            x       y       z     vdW  Elec       q    Type
REMARK                         _______ _______ _______ _____ _____    ______ ____
ROOT
ATOM      1  S   UNL     1      -0.932  12.089  21.822  0.00  0.00    +0.000 S 
ATOM      2  O   UNL     1      -1.906  11.549  22.749  0.00  0.00    +0.000 OA
ATOM      3  O   UNL     1       0.477  11.794  21.945  0.00  0.00    +0.000 OA
ENDROOT
BRANCH   1  11
ATOM      4  O   UNL     1      -3.359  10.320  14.399  0.00  0.00    +0.000 OA
ATOM      5  C   UNL     1      -3.223  10.589  15.588  0.00  0.00    +0.000 A 
ATOM      6  N   UNL     1      -4.210  11.196  16.310  0.00  0.00    +0.000 N 
ATOM      7  C   UNL     1      -4.110  11.636  17.608  0.00  0.00    +0.000 A 
ATOM      8  O   UNL     1      -5.026  12.216  18.179  0.00  0.00    +0.000 OA
ATOM      9  C   UNL     1      -2.830  11.362  18.291  0.00  0.00    +0.000 A 
ATOM     10  C   UNL     1      -2.595  11.821  19.592  0.00  0.00    +0.000 A 
ATOM     11  C   UNL     1      -1.394  11.482  20.213  0.00  0.00    +0.000 A 
ATOM     12  C   UNL     1      -0.447  10.687  19.544  0.00  0.00    +0.000 A 
ATOM     13  C   UNL     1      -0.673  10.275  18.229  0.00  0.00    +0.000 A 
ATOM     14  C   UNL     1      -1.860  10.635  17.598  0.00  0.00    +0.000 A 
ATOM     15  N   UNL     1      -2.072  10.295  16.260  0.00  0.00    +0.000 N 
ATOM     16  H   UNL     1      -5.072  11.389  15.822  0.00  0.00    +0.000 HD
ATOM     17  H   UNL     1      -1.346   9.843  15.717  0.00  0.00    +0.000 HD
ENDBRANCH   1  11
BRANCH   1  18
ATOM     18  N   UNL     1      -1.133  13.775  21.778  0.00  0.00    +0.000 NA
ATOM     19  C   UNL     1      -0.747  14.540  22.994  0.00  0.00    +0.000 C 
ATOM     20  C   UNL     1      -1.319  15.954  22.974  0.00  0.00    +0.000 C 
ATOM     21  C   UNL     1      -1.053  16.679  21.661  0.00  0.00    +0.000 C 
ATOM     22  C   UNL     1      -1.502  15.832  20.479  0.00  0.00    +0.000 C 
ATOM     23  C   UNL     1      -0.840  14.438  20.463  0.00  0.00    +0.000 C 
BRANCH  23  24
ATOM     24  C   UNL     1       0.604  14.449  19.963  0.00  0.00    +0.000 A 
ATOM     25  C   UNL     1       1.712  14.839  20.734  0.00  0.00    +0.000 A 
ATOM     26  C   UNL     1       3.016  14.738  20.235  0.00  0.00    +0.000 A 
ATOM     27  C   UNL     1       3.230  14.247  18.957  0.00  0.00    +0.000 A 
ATOM     28  F   UNL     1       4.482  14.130  18.496  0.00  0.00    +0.000 F 
ATOM     29  C   UNL     1       2.165  13.864  18.161  0.00  0.00    +0.000 A 
ATOM     30  C   UNL     1       0.872  13.965  18.668  0.00  0.00    +0.000 A 
ATOM     31  F   UNL     1      -0.140  13.558  17.889  0.00  0.00    +0.000 F 
ENDBRANCH  23  24
ENDBRANCH   1  18
TORSDOF 3
ENDMDL
MODEL 8
REMARK VINA RESULT:      -6.9      5.797      7.812
REMARK  Name = 
REMARK  3 active torsions:
REMARK  status: ('A' for Active; 'I' for Inactive)
REMARK    1  A    between atoms: C_8  and  S_9
REMARK    2  A    between atoms: S_9  and  N_12
REMARK    3  A    between atoms: C_17  and  C_18
REMARK                            x       y       z     vdW  Elec       q    Type
REMARK                         _______ _______ _______ _____ _____    ______ ____
ROOT
ATOM      1  S   UNL     1       0.520   9.362  21.376  0.00  0.00    +0.000 S 
ATOM      2  O   UNL     1      -0.687   8.836  21.981  0.00  0.00    +0.000 OA
ATOM      3  O   UNL     1       1.565   9.968  22.169  0.00  0.00    +0.000 OA
ENDROOT
BRANCH   1  11
ATOM      4  O   UNL     1       4.843   3.812  17.552  0.00  0.00    +0.000 OA
ATOM      5  C   UNL     1       4.157   4.760  17.918  0.00  0.00    +0.000 A 
ATOM      6  N   UNL     1       4.112   5.934  17.221  0.00  0.00    +0.000 N 
ATOM      7  C   UNL     1       3.466   7.083  17.609  0.00  0.00    +0.000 A 
ATOM      8  O   UNL     1       3.506   8.116  16.952  0.00  0.00    +0.000 OA
ATOM      9  C   UNL     1       2.702   7.004  18.870  0.00  0.00    +0.000 A 
ATOM     10  C   UNL     1       2.058   8.131  19.394  0.00  0.00    +0.000 A 
ATOM     11  C   UNL     1       1.300   7.988  20.555  0.00  0.00    +0.000 A 
ATOM     12  C   UNL     1       1.180   6.733  21.176  0.00  0.00    +0.000 A 
ATOM     13  C   UNL     1       1.866   5.627  20.671  0.00  0.00    +0.000 A 
ATOM     14  C   UNL     1       2.645   5.773  19.527  0.00  0.00    +0.000 A 
ATOM     15  N   UNL     1       3.395   4.696  19.049  0.00  0.00    +0.000 N 
ATOM     16  H   UNL     1       4.652   5.973  16.369  0.00  0.00    +0.000 HD
ATOM     17  H   UNL     1       3.433   3.822  19.559  0.00  0.00    +0.000 HD
ENDBRANCH   1  11
BRANCH   1  18
ATOM     18  N   UNL     1       0.059  10.453  20.159  0.00  0.00    +0.000 NA
ATOM     19  C   UNL     1      -1.101  10.076  19.308  0.00  0.00    +0.000 C 
ATOM     20  C   UNL     1      -1.172  10.926  18.043  0.00  0.00    +0.000 C 
ATOM     21  C   UNL     1      -1.058  12.418  18.329  0.00  0.00    +0.000 C 
ATOM     22  C   UNL     1       0.168  12.709  19.182  0.00  0.00    +0.000 C 
ATOM     23  C   UNL     1       0.176  11.911  20.503  0.00  0.00    +0.000 C 
BRANCH  23  24
ATOM     24  C   UNL     1      -0.757  12.480  21.571  0.00  0.00    +0.000 A 
ATOM     25  C   UNL     1      -2.010  11.939  21.905  0.00  0.00    +0.000 A 
ATOM     26  C   UNL     1      -2.771  12.464  22.957  0.00  0.00    +0.000 A 
ATOM     27  C   UNL     1      -2.288  13.538  23.688  0.00  0.00    +0.000 A 
ATOM     28  F   UNL     1      -3.009  14.019  24.709  0.00  0.00    +0.000 F 
ATOM     29  C   UNL     1      -1.064  14.107  23.383  0.00  0.00    +0.000 A 
ATOM     30  C   UNL     1      -0.314  13.575  22.337  0.00  0.00    +0.000 A 
ATOM     31  F   UNL     1       0.882  14.124  22.081  0.00  0.00    +0.000 F 
ENDBRANCH  23  24
ENDBRANCH   1  18
TORSDOF 3
ENDMDL
MODEL 9
REMARK VINA RESULT:      -6.8      2.446      3.505
REMARK  Name = 
REMARK  3 active torsions:
REMARK  status: ('A' for Active; 'I' for Inactive)
REMARK    1  A    between atoms: C_8  and  S_9
REMARK    2  A    between atoms: S_9  and  N_12
REMARK    3  A    between atoms: C_17  and  C_18
REMARK                            x       y       z     vdW  Elec       q    Type
REMARK                         _______ _______ _______ _____ _____    ______ ____
ROOT
ATOM      1  S   UNL     1       4.777   3.933  19.371  0.00  0.00    +0.000 S 
ATOM      2  O   UNL     1       5.335   2.724  19.941  0.00  0.00    +0.000 OA
ATOM      3  O   UNL     1       4.757   5.178  20.104  0.00  0.00    +0.000 OA
ENDROOT
BRANCH   1  11
ATOM      4  O   UNL     1       8.167   5.760  12.350  0.00  0.00    +0.000 OA
ATOM      5  C   UNL     1       7.563   5.288  13.307  0.00  0.00    +0.000 A 
ATOM      6  N   UNL     1       6.487   4.462  13.149  0.00  0.00    +0.000 N 
ATOM      7  C   UNL     1       5.682   3.977  14.151  0.00  0.00    +0.000 A 
ATOM      8  O   UNL     1       4.703   3.275  13.930  0.00  0.00    +0.000 OA
ATOM      9  C   UNL     1       6.070   4.342  15.529  0.00  0.00    +0.000 A 
ATOM     10  C   UNL     1       5.287   3.957  16.624  0.00  0.00    +0.000 A 
ATOM     11  C   UNL     1       5.730   4.275  17.906  0.00  0.00    +0.000 A 
ATOM     12  C   UNL     1       6.944   4.959  18.090  0.00  0.00    +0.000 A 
ATOM     13  C   UNL     1       7.692   5.379  16.988  0.00  0.00    +0.000 A 
ATOM     14  C   UNL     1       7.238   5.086  15.706  0.00  0.00    +0.000 A 
ATOM     15  N   UNL     1       7.934   5.561  14.592  0.00  0.00    +0.000 N 
ATOM     16  H   UNL     1       6.228   4.236  12.200  0.00  0.00    +0.000 HD
ATOM     17  H   UNL     1       8.734   6.172  14.700  0.00  0.00    +0.000 HD
ENDBRANCH   1  11
BRANCH   1  18
ATOM     18  N   UNL     1       3.199   3.584  18.849  0.00  0.00    +0.000 NA
ATOM     19  C   UNL     1       2.385   2.675  19.700  0.00  0.00    +0.000 C 
ATOM     20  C   UNL     1       1.166   2.145  18.951  0.00  0.00    +0.000 C 
ATOM     21  C   UNL     1       0.370   3.249  18.266  0.00  0.00    +0.000 C 
ATOM     22  C   UNL     1       1.280   4.109  17.401  0.00  0.00    +0.000 C 
ATOM     23  C   UNL     1       2.456   4.714  18.196  0.00  0.00    +0.000 C 
BRANCH  23  24
ATOM     24  C   UNL     1       2.064   5.915  19.056  0.00  0.00    +0.000 A 
ATOM     25  C   UNL     1       1.548   5.828  20.360  0.00  0.00    +0.000 A 
ATOM     26  C   UNL     1       1.294   6.977  21.119  0.00  0.00    +0.000 A 
ATOM     27  C   UNL     1       1.552   8.229  20.583  0.00  0.00    +0.000 A 
ATOM     28  F   UNL     1       1.331   9.322  21.325  0.00  0.00    +0.000 F 
ATOM     29  C   UNL     1       2.049   8.358  19.298  0.00  0.00    +0.000 A 
ATOM     30  C   UNL     1       2.302   7.209  18.553  0.00  0.00    +0.000 A 
ATOM     31  F   UNL     1       2.812   7.360  17.322  0.00  0.00    +0.000 F 
ENDBRANCH  23  24
ENDBRANCH   1  18
TORSDOF 3
ENDMDL
