MODEL 1
REMARK VINA RESULT:      -8.7      0.000      0.000
REMARK  Name = 
REMARK  4 active torsions:
REMARK  status: ('A' for Active; 'I' for Inactive)
REMARK    1  A    between atoms: C_7  and  N_8
REMARK    2  A    between atoms: N_11  and  C_12
REMARK    3  A    between atoms: C_12  and  C_13
REMARK    4  A    between atoms: C_13  and  C_14
REMARK                            x       y       z     vdW  Elec       q    Type
REMARK                         _______ _______ _______ _____ _____    ______ ____
ROOT
ATOM      1  N   UNL     1       2.401   8.173  17.765  0.00  0.00    +0.000 N 
ATOM      2  C   UNL     1       1.665   8.935  18.652  0.00  0.00    +0.000 C 
ATOM      3  O   UNL     1       1.523   8.698  19.848  0.00  0.00    +0.000 OA
ATOM      4  N   UNL     1       1.059  10.017  18.040  0.00  0.00    +0.000 N 
ATOM      5  H   UNL     1       2.617   8.589  16.873  0.00  0.00    +0.000 HD
ATOM      6  H   UNL     1       1.497  10.396  17.212  0.00  0.00    +0.000 HD
ENDROOT
BRANCH   1  13
ATOM      7  O   UNL     1       5.110   1.457  20.214  0.00  0.00    +0.000 OA
ATOM      8  C   UNL     1       4.514   2.489  19.913  0.00  0.00    +0.000 C 
ATOM      9  C   UNL     1       3.135   2.853  20.462  0.00  0.00    +0.000 C 
ATOM     10  O   UNL     1       2.344   3.793  19.754  0.00  0.00    +0.000 OA
ATOM     11  C   UNL     1       3.073   4.757  19.112  0.00  0.00    +0.000 A 
ATOM     12  C   UNL     1       2.386   5.915  18.756  0.00  0.00    +0.000 A 
ATOM     13  C   UNL     1       3.038   6.952  18.083  0.00  0.00    +0.000 A 
ATOM     14  C   UNL     1       4.373   6.777  17.699  0.00  0.00    +0.000 A 
ATOM     15  C   UNL     1       5.064   5.607  18.045  0.00  0.00    +0.000 A 
ATOM     16  C   UNL     1       4.415   4.607  18.766  0.00  0.00    +0.000 A 
ATOM     17  N   UNL     1       5.096   3.444  19.121  0.00  0.00    +0.000 N 
ATOM     18  H   UNL     1       6.042   3.270  18.812  0.00  0.00    +0.000 HD
ENDBRANCH   1  13
BRANCH   4  19
ATOM     19  C   UNL     1       0.252  10.939  18.815  0.00  0.00    +0.000 C 
ATOM     20  C   UNL     1       0.410  12.433  18.545  0.00  0.00    +0.000 C 
ATOM     21  C   UNL     1       0.969  11.850  19.801  0.00  0.00    +0.000 C 
BRANCH  19  22
ATOM     22  C   UNL     1      -1.177  10.487  19.089  0.00  0.00    +0.000 C 
BRANCH  22  23
ATOM     23  C   UNL     1      -2.107  10.628  17.903  0.00  0.00    +0.000 A 
ATOM     24  C   UNL     1      -1.966   9.823  16.765  0.00  0.00    +0.000 A 
ATOM     25  C   UNL     1      -2.908   9.873  15.735  0.00  0.00    +0.000 A 
ATOM     26  C   UNL     1      -4.006  10.725  15.831  0.00  0.00    +0.000 A 
ATOM     27  C   UNL     1      -4.155  11.539  16.951  0.00  0.00    +0.000 A 
ATOM     28  C   UNL     1      -3.210  11.494  17.979  0.00  0.00    +0.000 A 
ENDBRANCH  22  23
ENDBRANCH  19  22
ENDBRANCH   4  19
TORSDOF 4
ENDMDL
MODEL 2
REMARK VINA RESULT:      -8.1      3.179      8.630
REMARK  Name = 
REMARK  4 active torsions:
REMARK  status: ('A' for Active; 'I' for Inactive)
REMARK    1  A    between atoms: C_7  and  N_8
REMARK    2  A    between atoms: N_11  and  C_12
REMARK    3  A    between atoms: C_12  and  C_13
REMARK    4  A    between atoms: C_13  and  C_14
REMARK                            x       y       z     vdW  Elec       q    Type
REMARK                         _______ _______ _______ _____ _____    ______ ____
ROOT
ATOM      1  N   UNL     1       2.273   7.157  20.364  0.00  0.00    +0.000 N 
ATOM      2  C   UNL     1       2.524   6.544  19.151  0.00  0.00    +0.000 C 
ATOM      3  O   UNL     1       2.212   6.988  18.050  0.00  0.00    +0.000 OA
ATOM      4  N   UNL     1       3.163   5.326  19.298  0.00  0.00    +0.000 N 
ATOM      5  H   UNL     1       2.768   6.803  21.167  0.00  0.00    +0.000 HD
ATOM      6  H   UNL     1       3.737   5.192  20.118  0.00  0.00    +0.000 HD
ENDROOT
BRANCH   1  13
ATOM      7  O   UNL     1      -2.033  13.218  22.142  0.00  0.00    +0.000 OA
ATOM      8  C   UNL     1      -1.360  12.195  22.040  0.00  0.00    +0.000 C 
ATOM      9  C   UNL     1      -1.194  11.183  23.173  0.00  0.00    +0.000 C 
ATOM     10  O   UNL     1      -0.087  10.297  23.141  0.00  0.00    +0.000 OA
ATOM     11  C   UNL     1       0.301   9.942  21.879  0.00  0.00    +0.000 A 
ATOM     12  C   UNL     1       1.080   8.793  21.773  0.00  0.00    +0.000 A 
ATOM     13  C   UNL     1       1.540   8.354  20.528  0.00  0.00    +0.000 A 
ATOM     14  C   UNL     1       1.273   9.132  19.395  0.00  0.00    +0.000 A 
ATOM     15  C   UNL     1       0.499  10.297  19.499  0.00  0.00    +0.000 A 
ATOM     16  C   UNL     1       0.001  10.688  20.740  0.00  0.00    +0.000 A 
ATOM     17  N   UNL     1      -0.776  11.840  20.852  0.00  0.00    +0.000 N 
ATOM     18  H   UNL     1      -0.939  12.447  20.061  0.00  0.00    +0.000 HD
ENDBRANCH   1  13
BRANCH   4  19
ATOM     19  C   UNL     1       3.518   4.541  18.132  0.00  0.00    +0.000 C 
ATOM     20  C   UNL     1       2.458   3.620  17.537  0.00  0.00    +0.000 C 
ATOM     21  C   UNL     1       3.600   3.030  18.295  0.00  0.00    +0.000 C 
BRANCH  19  22
ATOM     22  C   UNL     1       4.397   5.249  17.109  0.00  0.00    +0.000 C 
BRANCH  22  23
ATOM     23  C   UNL     1       5.651   5.864  17.692  0.00  0.00    +0.000 A 
ATOM     24  C   UNL     1       6.377   5.222  18.703  0.00  0.00    +0.000 A 
ATOM     25  C   UNL     1       7.601   5.736  19.138  0.00  0.00    +0.000 A 
ATOM     26  C   UNL     1       8.116   6.897  18.567  0.00  0.00    +0.000 A 
ATOM     27  C   UNL     1       7.400   7.554  17.569  0.00  0.00    +0.000 A 
ATOM     28  C   UNL     1       6.175   7.043  17.136  0.00  0.00    +0.000 A 
ENDBRANCH  22  23
ENDBRANCH  19  22
ENDBRANCH   4  19
TORSDOF 4
ENDMDL
MODEL 3
REMARK VINA RESULT:      -8.1      2.923      8.628
REMARK  Name = 
REMARK  4 active torsions:
REMARK  status: ('A' for Active; 'I' for Inactive)
REMARK    1  A    between atoms: C_7  and  N_8
REMARK    2  A    between atoms: N_11  and  C_12
REMARK    3  A    between atoms: C_12  and  C_13
REMARK    4  A    between atoms: C_13  and  C_14
REMARK                            x       y       z     vdW  Elec       q    Type
REMARK                         _______ _______ _______ _____ _____    ______ ____
ROOT
ATOM      1  N   UNL     1       2.638   6.584  20.019  0.00  0.00    +0.000 N 
ATOM      2  C   UNL     1       2.681   5.773  18.901  0.00  0.00    +0.000 C 
ATOM      3  O   UNL     1       2.051   5.953  17.863  0.00  0.00    +0.000 OA
ATOM      4  N   UNL     1       3.514   4.682  19.073  0.00  0.00    +0.000 N 
ATOM      5  H   UNL     1       3.359   6.450  20.710  0.00  0.00    +0.000 HD
ATOM      6  H   UNL     1       4.282   4.774  19.724  0.00  0.00    +0.000 HD
ENDROOT
BRANCH   1  13
ATOM      7  O   UNL     1      -1.301  13.134  20.170  0.00  0.00    +0.000 OA
ATOM      8  C   UNL     1      -0.588  12.150  19.986  0.00  0.00    +0.000 C 
ATOM      9  C   UNL     1       0.475  12.076  18.891  0.00  0.00    +0.000 C 
ATOM     10  O   UNL     1       0.928  10.803  18.463  0.00  0.00    +0.000 OA
ATOM     11  C   UNL     1       0.934   9.857  19.451  0.00  0.00    +0.000 A 
ATOM     12  C   UNL     1       1.729   8.736  19.227  0.00  0.00    +0.000 A 
ATOM     13  C   UNL     1       1.792   7.706  20.170  0.00  0.00    +0.000 A 
ATOM     14  C   UNL     1       0.980   7.779  21.308  0.00  0.00    +0.000 A 
ATOM     15  C   UNL     1       0.168   8.900  21.531  0.00  0.00    +0.000 A 
ATOM     16  C   UNL     1       0.161   9.944  20.608  0.00  0.00    +0.000 A 
ATOM     17  N   UNL     1      -0.636  11.068  20.825  0.00  0.00    +0.000 N 
ATOM     18  H   UNL     1      -1.270  11.121  21.609  0.00  0.00    +0.000 HD
ENDBRANCH   1  13
BRANCH   4  19
ATOM     19  C   UNL     1       3.696   3.723  18.002  0.00  0.00    +0.000 C 
ATOM     20  C   UNL     1       2.521   2.817  17.643  0.00  0.00    +0.000 C 
ATOM     21  C   UNL     1       3.694   2.245  18.367  0.00  0.00    +0.000 C 
BRANCH  19  22
ATOM     22  C   UNL     1       4.508   4.216  16.812  0.00  0.00    +0.000 C 
BRANCH  22  23
ATOM     23  C   UNL     1       5.675   5.105  17.186  0.00  0.00    +0.000 A 
ATOM     24  C   UNL     1       5.708   6.458  16.824  0.00  0.00    +0.000 A 
ATOM     25  C   UNL     1       6.726   7.295  17.287  0.00  0.00    +0.000 A 
ATOM     26  C   UNL     1       7.723   6.791  18.119  0.00  0.00    +0.000 A 
ATOM     27  C   UNL     1       7.711   5.446  18.478  0.00  0.00    +0.000 A 
ATOM     28  C   UNL     1       6.696   4.607  18.013  0.00  0.00    +0.000 A 
ENDBRANCH  22  23
ENDBRANCH  19  22
ENDBRANCH   4  19
TORSDOF 4
ENDMDL
MODEL 4
REMARK VINA RESULT:      -8.1      1.745      2.936
REMARK  Name = 
REMARK  4 active torsions:
REMARK  status: ('A' for Active; 'I' for Inactive)
REMARK    1  A    between atoms: C_7  and  N_8
REMARK    2  A    between atoms: N_11  and  C_12
REMARK    3  A    between atoms: C_12  and  C_13
REMARK    4  A    between atoms: C_13  and  C_14
REMARK                            x       y       z     vdW  Elec       q    Type
REMARK                         _______ _______ _______ _____ _____    ______ ____
ROOT
ATOM      1  N   UNL     1       2.483   8.160  17.657  0.00  0.00    +0.000 N 
ATOM      2  C   UNL     1       1.877   9.023  18.551  0.00  0.00    +0.000 C 
ATOM      3  O   UNL     1       1.851   8.883  19.770  0.00  0.00    +0.000 OA
ATOM      4  N   UNL     1       1.257  10.086  17.920  0.00  0.00    +0.000 N 
ATOM      5  H   UNL     1       2.623   8.498  16.718  0.00  0.00    +0.000 HD
ATOM      6  H   UNL     1       1.623  10.379  17.025  0.00  0.00    +0.000 HD
ENDROOT
BRANCH   1  13
ATOM      7  O   UNL     1       5.052   1.446  20.256  0.00  0.00    +0.000 OA
ATOM      8  C   UNL     1       4.477   2.481  19.928  0.00  0.00    +0.000 C 
ATOM      9  C   UNL     1       3.093   2.872  20.447  0.00  0.00    +0.000 C 
ATOM     10  O   UNL     1       2.329   3.813  19.711  0.00  0.00    +0.000 OA
ATOM     11  C   UNL     1       3.082   4.756  19.068  0.00  0.00    +0.000 A 
ATOM     12  C   UNL     1       2.419   5.918  18.682  0.00  0.00    +0.000 A 
ATOM     13  C   UNL     1       3.097   6.936  18.006  0.00  0.00    +0.000 A 
ATOM     14  C   UNL     1       4.436   6.736  17.649  0.00  0.00    +0.000 A 
ATOM     15  C   UNL     1       5.104   5.563  18.024  0.00  0.00    +0.000 A 
ATOM     16  C   UNL     1       4.427   4.583  18.748  0.00  0.00    +0.000 A 
ATOM     17  N   UNL     1       5.086   3.415  19.134  0.00  0.00    +0.000 N 
ATOM     18  H   UNL     1       6.035   3.224  18.844  0.00  0.00    +0.000 HD
ENDBRANCH   1  13
BRANCH   4  19
ATOM     19  C   UNL     1       0.576  11.102  18.697  0.00  0.00    +0.000 C 
ATOM     20  C   UNL     1       0.723  12.557  18.261  0.00  0.00    +0.000 C 
ATOM     21  C   UNL     1       1.433  12.084  19.485  0.00  0.00    +0.000 C 
BRANCH  19  22
ATOM     22  C   UNL     1      -0.811  10.723  19.199  0.00  0.00    +0.000 C 
BRANCH  22  23
ATOM     23  C   UNL     1      -1.073  11.107  20.640  0.00  0.00    +0.000 A 
ATOM     24  C   UNL     1      -1.897  12.191  20.967  0.00  0.00    +0.000 A 
ATOM     25  C   UNL     1      -2.235  12.454  22.297  0.00  0.00    +0.000 A 
ATOM     26  C   UNL     1      -1.756  11.634  23.316  0.00  0.00    +0.000 A 
ATOM     27  C   UNL     1      -0.927  10.559  23.008  0.00  0.00    +0.000 A 
ATOM     28  C   UNL     1      -0.585  10.298  21.679  0.00  0.00    +0.000 A 
ENDBRANCH  22  23
ENDBRANCH  19  22
ENDBRANCH   4  19
TORSDOF 4
ENDMDL
MODEL 5
REMARK VINA RESULT:      -8.1      2.793      8.296
REMARK  Name = 
REMARK  4 active torsions:
REMARK  status: ('A' for Active; 'I' for Inactive)
REMARK    1  A    between atoms: C_7  and  N_8
REMARK    2  A    between atoms: N_11  and  C_12
REMARK    3  A    between atoms: C_12  and  C_13
REMARK    4  A    between atoms: C_13  and  C_14
REMARK                            x       y       z     vdW  Elec       q    Type
REMARK                         _______ _______ _______ _____ _____    ______ ____
ROOT
ATOM      1  N   UNL     1       2.797   7.243  19.896  0.00  0.00    +0.000 N 
ATOM      2  C   UNL     1       2.944   6.450  18.774  0.00  0.00    +0.000 C 
ATOM      3  O   UNL     1       2.244   6.501  17.767  0.00  0.00    +0.000 OA
ATOM      4  N   UNL     1       3.979   5.541  18.902  0.00  0.00    +0.000 N 
ATOM      5  H   UNL     1       3.561   7.254  20.553  0.00  0.00    +0.000 HD
ATOM      6  H   UNL     1       4.744   5.783  19.518  0.00  0.00    +0.000 HD
ENDROOT
BRANCH   1  13
ATOM      7  O   UNL     1      -2.321  12.909  20.259  0.00  0.00    +0.000 OA
ATOM      8  C   UNL     1      -1.441  12.081  20.039  0.00  0.00    +0.000 C 
ATOM      9  C   UNL     1      -0.435  12.209  18.895  0.00  0.00    +0.000 C 
ATOM     10  O   UNL     1       0.235  11.045  18.440  0.00  0.00    +0.000 OA
ATOM     11  C   UNL     1       0.469  10.122  19.423  0.00  0.00    +0.000 A 
ATOM     12  C   UNL     1       1.454   9.175  19.157  0.00  0.00    +0.000 A 
ATOM     13  C   UNL     1       1.758   8.181  20.091  0.00  0.00    +0.000 A 
ATOM     14  C   UNL     1       1.000   8.101  21.267  0.00  0.00    +0.000 A 
ATOM     15  C   UNL     1      -0.001   9.045  21.532  0.00  0.00    +0.000 A 
ATOM     16  C   UNL     1      -0.252  10.064  20.614  0.00  0.00    +0.000 A 
ATOM     17  N   UNL     1      -1.240  11.013  20.873  0.00  0.00    +0.000 N 
ATOM     18  H   UNL     1      -1.835  10.947  21.687  0.00  0.00    +0.000 HD
ENDBRANCH   1  13
BRANCH   4  19
ATOM     19  C   UNL     1       4.293   4.631  17.820  0.00  0.00    +0.000 C 
ATOM     20  C   UNL     1       5.757   4.464  17.424  0.00  0.00    +0.000 C 
ATOM     21  C   UNL     1       4.838   5.226  16.529  0.00  0.00    +0.000 C 
BRANCH  19  22
ATOM     22  C   UNL     1       3.472   3.348  17.784  0.00  0.00    +0.000 C 
BRANCH  22  23
ATOM     23  C   UNL     1       2.735   3.050  19.072  0.00  0.00    +0.000 A 
ATOM     24  C   UNL     1       3.420   2.659  20.231  0.00  0.00    +0.000 A 
ATOM     25  C   UNL     1       2.743   2.514  21.444  0.00  0.00    +0.000 A 
ATOM     26  C   UNL     1       1.373   2.761  21.516  0.00  0.00    +0.000 A 
ATOM     27  C   UNL     1       0.677   3.139  20.371  0.00  0.00    +0.000 A 
ATOM     28  C   UNL     1       1.352   3.279  19.156  0.00  0.00    +0.000 A 
ENDBRANCH  22  23
ENDBRANCH  19  22
ENDBRANCH   4  19
TORSDOF 4
ENDMDL
MODEL 6
REMARK VINA RESULT:      -8.0      3.221      8.519
REMARK  Name = 
REMARK  4 active torsions:
REMARK  status: ('A' for Active; 'I' for Inactive)
REMARK    1  A    between atoms: C_7  and  N_8
REMARK    2  A    between atoms: N_11  and  C_12
REMARK    3  A    between atoms: C_12  and  C_13
REMARK    4  A    between atoms: C_13  and  C_14
REMARK                            x       y       z     vdW  Elec       q    Type
REMARK                         _______ _______ _______ _____ _____    ______ ____
ROOT
ATOM      1  N   UNL     1       2.616   6.722  20.108  0.00  0.00    +0.000 N 
ATOM      2  C   UNL     1       2.687   6.020  18.920  0.00  0.00    +0.000 C 
ATOM      3  O   UNL     1       2.158   6.351  17.863  0.00  0.00    +0.000 OA
ATOM      4  N   UNL     1       3.418   4.851  19.041  0.00  0.00    +0.000 N 
ATOM      5  H   UNL     1       3.266   6.463  20.833  0.00  0.00    +0.000 HD
ATOM      6  H   UNL     1       4.136   4.817  19.752  0.00  0.00    +0.000 HD
ENDROOT
BRANCH   1  13
ATOM      7  O   UNL     1      -1.877  12.588  22.069  0.00  0.00    +0.000 OA
ATOM      8  C   UNL     1      -1.175  11.588  21.935  0.00  0.00    +0.000 C 
ATOM      9  C   UNL     1      -0.999  10.534  23.027  0.00  0.00    +0.000 C 
ATOM     10  O   UNL     1       0.131   9.679  22.976  0.00  0.00    +0.000 OA
ATOM     11  C   UNL     1       0.548   9.388  21.706  0.00  0.00    +0.000 A 
ATOM     12  C   UNL     1       1.359   8.265  21.565  0.00  0.00    +0.000 A 
ATOM     13  C   UNL     1       1.848   7.891  20.310  0.00  0.00    +0.000 A 
ATOM     14  C   UNL     1       1.578   8.709  19.206  0.00  0.00    +0.000 A 
ATOM     15  C   UNL     1       0.772   9.848  19.347  0.00  0.00    +0.000 A 
ATOM     16  C   UNL     1       0.245  10.174  20.595  0.00  0.00    +0.000 A 
ATOM     17  N   UNL     1      -0.565  11.299  20.743  0.00  0.00    +0.000 N 
ATOM     18  H   UNL     1      -0.731  11.934  19.975  0.00  0.00    +0.000 HD
ENDBRANCH   1  13
BRANCH   4  19
ATOM     19  C   UNL     1       3.612   3.987  17.895  0.00  0.00    +0.000 C 
ATOM     20  C   UNL     1       2.449   3.098  17.461  0.00  0.00    +0.000 C 
ATOM     21  C   UNL     1       3.630   2.484  18.136  0.00  0.00    +0.000 C 
BRANCH  19  22
ATOM     22  C   UNL     1       4.418   4.588  16.750  0.00  0.00    +0.000 C 
BRANCH  22  23
ATOM     23  C   UNL     1       5.653   5.343  17.194  0.00  0.00    +0.000 A 
ATOM     24  C   UNL     1       5.822   6.702  16.898  0.00  0.00    +0.000 A 
ATOM     25  C   UNL     1       6.901   7.416  17.424  0.00  0.00    +0.000 A 
ATOM     26  C   UNL     1       7.823   6.783  18.254  0.00  0.00    +0.000 A 
ATOM     27  C   UNL     1       7.675   5.429  18.547  0.00  0.00    +0.000 A 
ATOM     28  C   UNL     1       6.599   4.713  18.018  0.00  0.00    +0.000 A 
ENDBRANCH  22  23
ENDBRANCH  19  22
ENDBRANCH   4  19
TORSDOF 4
ENDMDL
MODEL 7
REMARK VINA RESULT:      -8.0      1.757      2.891
REMARK  Name = 
REMARK  4 active torsions:
REMARK  status: ('A' for Active; 'I' for Inactive)
REMARK    1  A    between atoms: C_7  and  N_8
REMARK    2  A    between atoms: N_11  and  C_12
REMARK    3  A    between atoms: C_12  and  C_13
REMARK    4  A    between atoms: C_13  and  C_14
REMARK                            x       y       z     vdW  Elec       q    Type
REMARK                         _______ _______ _______ _____ _____    ______ ____
ROOT
ATOM      1  N   UNL     1       2.533   8.088  17.567  0.00  0.00    +0.000 N 
ATOM      2  C   UNL     1       2.001   9.003  18.456  0.00  0.00    +0.000 C 
ATOM      3  O   UNL     1       2.051   8.920  19.679  0.00  0.00    +0.000 OA
ATOM      4  N   UNL     1       1.362  10.049  17.816  0.00  0.00    +0.000 N 
ATOM      5  H   UNL     1       2.618   8.379  16.606  0.00  0.00    +0.000 HD
ATOM      6  H   UNL     1       1.674  10.293  16.886  0.00  0.00    +0.000 HD
ENDROOT
BRANCH   1  13
ATOM      7  O   UNL     1       5.086   1.402  20.254  0.00  0.00    +0.000 OA
ATOM      8  C   UNL     1       4.512   2.433  19.911  0.00  0.00    +0.000 C 
ATOM      9  C   UNL     1       3.123   2.827  20.411  0.00  0.00    +0.000 C 
ATOM     10  O   UNL     1       2.364   3.759  19.659  0.00  0.00    +0.000 OA
ATOM     11  C   UNL     1       3.123   4.698  19.015  0.00  0.00    +0.000 A 
ATOM     12  C   UNL     1       2.461   5.855  18.612  0.00  0.00    +0.000 A 
ATOM     13  C   UNL     1       3.145   6.868  17.933  0.00  0.00    +0.000 A 
ATOM     14  C   UNL     1       4.488   6.667  17.591  0.00  0.00    +0.000 A 
ATOM     15  C   UNL     1       5.154   5.498  17.984  0.00  0.00    +0.000 A 
ATOM     16  C   UNL     1       4.472   4.524  18.710  0.00  0.00    +0.000 A 
ATOM     17  N   UNL     1       5.128   3.361  19.113  0.00  0.00    +0.000 N 
ATOM     18  H   UNL     1       6.080   3.169  18.835  0.00  0.00    +0.000 HD
ENDBRANCH   1  13
BRANCH   4  19
ATOM     19  C   UNL     1       0.751  11.114  18.586  0.00  0.00    +0.000 C 
ATOM     20  C   UNL     1       1.041  12.555  18.174  0.00  0.00    +0.000 C 
ATOM     21  C   UNL     1       1.667  12.006  19.413  0.00  0.00    +0.000 C 
BRANCH  19  22
ATOM     22  C   UNL     1      -0.680  10.856  19.040  0.00  0.00    +0.000 C 
BRANCH  22  23
ATOM     23  C   UNL     1      -0.823  10.621  20.529  0.00  0.00    +0.000 A 
ATOM     24  C   UNL     1      -0.469   9.397  21.112  0.00  0.00    +0.000 A 
ATOM     25  C   UNL     1      -0.483   9.239  22.500  0.00  0.00    +0.000 A 
ATOM     26  C   UNL     1      -0.847  10.302  23.323  0.00  0.00    +0.000 A 
ATOM     27  C   UNL     1      -1.211  11.522  22.758  0.00  0.00    +0.000 A 
ATOM     28  C   UNL     1      -1.203  11.680  21.370  0.00  0.00    +0.000 A 
ENDBRANCH  22  23
ENDBRANCH  19  22
ENDBRANCH   4  19
TORSDOF 4
ENDMDL
MODEL 8
REMARK VINA RESULT:      -7.9      1.409      3.503
REMARK  Name = 
REMARK  4 active torsions:
REMARK  status: ('A' for Active; 'I' for Inactive)
REMARK    1  A    between atoms: C_7  and  N_8
REMARK    2  A    between atoms: N_11  and  C_12
REMARK    3  A    between atoms: C_12  and  C_13
REMARK    4  A    between atoms: C_13  and  C_14
REMARK                            x       y       z     vdW  Elec       q    Type
REMARK                         _______ _______ _______ _____ _____    ______ ____
ROOT
ATOM      1  N   UNL     1       2.322   8.066  17.695  0.00  0.00    +0.000 N 
ATOM      2  C   UNL     1       1.624   8.872  18.574  0.00  0.00    +0.000 C 
ATOM      3  O   UNL     1       1.544   8.702  19.787  0.00  0.00    +0.000 OA
ATOM      4  N   UNL     1       0.977   9.914  17.933  0.00  0.00    +0.000 N 
ATOM      5  H   UNL     1       2.490   8.432  16.772  0.00  0.00    +0.000 HD
ATOM      6  H   UNL     1       1.371  10.248  17.064  0.00  0.00    +0.000 HD
ENDROOT
BRANCH   1  13
ATOM      7  O   UNL     1       5.145   1.457  20.302  0.00  0.00    +0.000 OA
ATOM      8  C   UNL     1       4.529   2.466  19.968  0.00  0.00    +0.000 C 
ATOM      9  C   UNL     1       3.113   2.783  20.447  0.00  0.00    +0.000 C 
ATOM     10  O   UNL     1       2.325   3.692  19.698  0.00  0.00    +0.000 OA
ATOM     11  C   UNL     1       3.049   4.679  19.088  0.00  0.00    +0.000 A 
ATOM     12  C   UNL     1       2.340   5.811  18.694  0.00  0.00    +0.000 A 
ATOM     13  C   UNL     1       2.986   6.869  18.049  0.00  0.00    +0.000 A 
ATOM     14  C   UNL     1       4.344   6.741  17.731  0.00  0.00    +0.000 A 
ATOM     15  C   UNL     1       5.058   5.598  18.115  0.00  0.00    +0.000 A 
ATOM     16  C   UNL     1       4.410   4.577  18.808  0.00  0.00    +0.000 A 
ATOM     17  N   UNL     1       5.114   3.439  19.201  0.00  0.00    +0.000 N 
ATOM     18  H   UNL     1       6.080   3.299  18.938  0.00  0.00    +0.000 HD
ENDBRANCH   1  13
BRANCH   4  19
ATOM     19  C   UNL     1       0.201  10.872  18.695  0.00  0.00    +0.000 C 
ATOM     20  C   UNL     1      -1.187  10.454  19.172  0.00  0.00    +0.000 C 
ATOM     21  C   UNL     1      -1.059  11.432  18.052  0.00  0.00    +0.000 C 
BRANCH  19  22
ATOM     22  C   UNL     1       0.992  11.712  19.689  0.00  0.00    +0.000 C 
BRANCH  22  23
ATOM     23  C   UNL     1       1.458  13.044  19.140  0.00  0.00    +0.000 A 
ATOM     24  C   UNL     1       0.812  14.240  19.480  0.00  0.00    +0.000 A 
ATOM     25  C   UNL     1       1.331  15.471  19.072  0.00  0.00    +0.000 A 
ATOM     26  C   UNL     1       2.503  15.523  18.321  0.00  0.00    +0.000 A 
ATOM     27  C   UNL     1       3.151  14.342  17.966  0.00  0.00    +0.000 A 
ATOM     28  C   UNL     1       2.630  13.111  18.369  0.00  0.00    +0.000 A 
ENDBRANCH  22  23
ENDBRANCH  19  22
ENDBRANCH   4  19
TORSDOF 4
ENDMDL
MODEL 9
REMARK VINA RESULT:      -7.8      2.944      7.924
REMARK  Name = 
REMARK  4 active torsions:
REMARK  status: ('A' for Active; 'I' for Inactive)
REMARK    1  A    between atoms: C_7  and  N_8
REMARK    2  A    between atoms: N_11  and  C_12
REMARK    3  A    between atoms: C_12  and  C_13
REMARK    4  A    between atoms: C_13  and  C_14
REMARK                            x       y       z     vdW  Elec       q    Type
REMARK                         _______ _______ _______ _____ _____    ______ ____
ROOT
ATOM      1  N   UNL     1       2.422   7.241  18.021  0.00  0.00    +0.000 N 
ATOM      2  C   UNL     1       3.273   6.241  18.452  0.00  0.00    +0.000 C 
ATOM      3  O   UNL     1       3.600   6.037  19.617  0.00  0.00    +0.000 OA
ATOM      4  N   UNL     1       3.760   5.477  17.408  0.00  0.00    +0.000 N 
ATOM      5  H   UNL     1       2.065   7.166  17.082  0.00  0.00    +0.000 HD
ATOM      6  H   UNL     1       3.194   5.405  16.574  0.00  0.00    +0.000 HD
ENDROOT
BRANCH   1  13
ATOM      7  O   UNL     1      -0.887  11.858  23.138  0.00  0.00    +0.000 OA
ATOM      8  C   UNL     1      -0.358  10.985  22.454  0.00  0.00    +0.000 C 
ATOM      9  C   UNL     1      -0.181   9.542  22.925  0.00  0.00    +0.000 C 
ATOM     10  O   UNL     1       0.800   8.733  22.298  0.00  0.00    +0.000 OA
ATOM     11  C   UNL     1       0.991   9.022  20.974  0.00  0.00    +0.000 A 
ATOM     12  C   UNL     1       1.609   8.035  20.210  0.00  0.00    +0.000 A 
ATOM     13  C   UNL     1       1.862   8.239  18.851  0.00  0.00    +0.000 A 
ATOM     14  C   UNL     1       1.557   9.483  18.284  0.00  0.00    +0.000 A 
ATOM     15  C   UNL     1       0.947  10.483  19.053  0.00  0.00    +0.000 A 
ATOM     16  C   UNL     1       0.650  10.242  20.393  0.00  0.00    +0.000 A 
ATOM     17  N   UNL     1       0.034  11.228  21.164  0.00  0.00    +0.000 N 
ATOM     18  H   UNL     1      -0.147  12.150  20.795  0.00  0.00    +0.000 HD
ENDBRANCH   1  13
BRANCH   4  19
ATOM     19  C   UNL     1       4.661   4.372  17.667  0.00  0.00    +0.000 C 
ATOM     20  C   UNL     1       5.824   4.604  18.627  0.00  0.00    +0.000 C 
ATOM     21  C   UNL     1       6.092   4.491  17.163  0.00  0.00    +0.000 C 
BRANCH  19  22
ATOM     22  C   UNL     1       4.002   3.003  17.783  0.00  0.00    +0.000 C 
BRANCH  22  23
ATOM     23  C   UNL     1       3.039   2.877  18.944  0.00  0.00    +0.000 A 
ATOM     24  C   UNL     1       3.496   2.673  20.252  0.00  0.00    +0.000 A 
ATOM     25  C   UNL     1       2.606   2.689  21.329  0.00  0.00    +0.000 A 
ATOM     26  C   UNL     1       1.249   2.912  21.113  0.00  0.00    +0.000 A 
ATOM     27  C   UNL     1       0.777   3.105  19.816  0.00  0.00    +0.000 A 
ATOM     28  C   UNL     1       1.665   3.085  18.739  0.00  0.00    +0.000 A 
ENDBRANCH  22  23
ENDBRANCH  19  22
ENDBRANCH   4  19
TORSDOF 4
ENDMDL
