MODEL 1
REMARK VINA RESULT:      -8.9      0.000      0.000
REMARK  Name = 
REMARK  6 active torsions:
REMARK  status: ('A' for Active; 'I' for Inactive)
REMARK    1  A    between atoms: C_2  and  C_3
REMARK    2  A    between atoms: C_3  and  S_4
REMARK    3  A    between atoms: S_4  and  C_5
REMARK    4  A    between atoms: N_15  and  C_16
REMARK    5  A    between atoms: C_16  and  C_17
REMARK    6  A    between atoms: N_23  and  C_24
REMARK                            x       y       z     vdW  Elec       q    Type
REMARK                         _______ _______ _______ _____ _____    ______ ____
ROOT
ATOM      1  C   UNL     1       6.976   5.608  17.142  0.00  0.00    +0.000 A 
ATOM      2  N   UNL     1       7.588   5.621  16.009  0.00  0.00    +0.000 NA
ATOM      3  C   UNL     1       7.031   4.960  14.925  0.00  0.00    +0.000 A 
ATOM      4  C   UNL     1       7.603   5.141  13.665  0.00  0.00    +0.000 A 
ATOM      5  C   UNL     1       7.042   4.532  12.543  0.00  0.00    +0.000 A 
ATOM      6  C   UNL     1       5.915   3.724  12.679  0.00  0.00    +0.000 A 
ATOM      7  C   UNL     1       5.342   3.532  13.940  0.00  0.00    +0.000 A 
ATOM      8  C   UNL     1       5.903   4.162  15.055  0.00  0.00    +0.000 A 
ATOM      9  C   UNL     1       5.304   4.052  16.396  0.00  0.00    +0.000 A 
ATOM     10  O   UNL     1       4.398   3.245  16.569  0.00  0.00    +0.000 OA
ATOM     11  N   UNL     1       5.822   4.885  17.392  0.00  0.00    +0.000 N 
ENDROOT
BRANCH   1  12
ATOM     12  S   UNL     1       7.688   6.596  18.408  0.00  0.00    +0.000 S 
BRANCH  12  13
ATOM     13  C   UNL     1       7.689   8.238  17.605  0.00  0.00    +0.000 C 
BRANCH  13  15
ATOM     14  O   UNL     1       8.958   9.107  19.437  0.00  0.00    +0.000 OA
ATOM     15  C   UNL     1       8.566   9.285  18.281  0.00  0.00    +0.000 C 
ATOM     16  N   UNL     1       8.765  10.451  17.559  0.00  0.00    +0.000 N 
ATOM     17  H   UNL     1       8.232  10.549  16.699  0.00  0.00    +0.000 HD
BRANCH  16  18
ATOM     18  C   UNL     1       9.536  11.572  17.941  0.00  0.00    +0.000 A 
ATOM     19  C   UNL     1      10.856  11.461  18.393  0.00  0.00    +0.000 A 
ATOM     20  C   UNL     1      11.549  12.588  18.844  0.00  0.00    +0.000 A 
ATOM     21  C   UNL     1      10.925  13.828  18.834  0.00  0.00    +0.000 A 
ATOM     22  F   UNL     1      11.575  14.898  19.309  0.00  0.00    +0.000 F 
ATOM     23  C   UNL     1       9.636  13.976  18.339  0.00  0.00    +0.000 A 
ATOM     24  C   UNL     1       8.952  12.852  17.874  0.00  0.00    +0.000 A 
ATOM     25 CL   UNL     1       7.349  13.068  17.257  0.00  0.00    +0.000 Cl
ENDBRANCH  16  18
ENDBRANCH  13  15
ENDBRANCH  12  13
ENDBRANCH   1  12
BRANCH  11  26
ATOM     26  C   UNL     1       5.076   4.907  18.660  0.00  0.00    +0.000 C 
BRANCH  26  27
ATOM     27  C   UNL     1       3.988   5.965  18.646  0.00  0.00    +0.000 A 
ATOM     28  C   UNL     1       3.914   6.899  17.599  0.00  0.00    +0.000 A 
ATOM     29  C   UNL     1       2.995   7.948  17.640  0.00  0.00    +0.000 A 
ATOM     30  C   UNL     1       2.127   8.071  18.722  0.00  0.00    +0.000 A 
ATOM     31  C   UNL     1       2.156   7.125  19.744  0.00  0.00    +0.000 A 
ATOM     32  C   UNL     1       3.077   6.076  19.706  0.00  0.00    +0.000 A 
ENDBRANCH  26  27
ENDBRANCH  11  26
TORSDOF 6
ENDMDL
MODEL 2
REMARK VINA RESULT:      -8.8      4.864      8.027
REMARK  Name = 
REMARK  6 active torsions:
REMARK  status: ('A' for Active; 'I' for Inactive)
REMARK    1  A    between atoms: C_2  and  C_3
REMARK    2  A    between atoms: C_3  and  S_4
REMARK    3  A    between atoms: S_4  and  C_5
REMARK    4  A    between atoms: N_15  and  C_16
REMARK    5  A    between atoms: C_16  and  C_17
REMARK    6  A    between atoms: N_23  and  C_24
REMARK                            x       y       z     vdW  Elec       q    Type
REMARK                         _______ _______ _______ _____ _____    ______ ____
ROOT
ATOM      1  C   UNL     1       3.020   6.449  18.111  0.00  0.00    +0.000 A 
ATOM      2  N   UNL     1       2.126   6.129  18.982  0.00  0.00    +0.000 NA
ATOM      3  C   UNL     1       2.020   4.811  19.397  0.00  0.00    +0.000 A 
ATOM      4  C   UNL     1       1.181   4.515  20.473  0.00  0.00    +0.000 A 
ATOM      5  C   UNL     1       1.085   3.208  20.952  0.00  0.00    +0.000 A 
ATOM      6  C   UNL     1       1.815   2.189  20.345  0.00  0.00    +0.000 A 
ATOM      7  C   UNL     1       2.650   2.478  19.261  0.00  0.00    +0.000 A 
ATOM      8  C   UNL     1       2.751   3.794  18.802  0.00  0.00    +0.000 A 
ATOM      9  C   UNL     1       3.665   4.170  17.710  0.00  0.00    +0.000 A 
ATOM     10  O   UNL     1       4.214   3.278  17.072  0.00  0.00    +0.000 OA
ATOM     11  N   UNL     1       3.841   5.536  17.471  0.00  0.00    +0.000 N 
ENDROOT
BRANCH   1  12
ATOM     12  S   UNL     1       3.171   8.164  17.763  0.00  0.00    +0.000 S 
BRANCH  12  13
ATOM     13  C   UNL     1       1.416   8.672  17.760  0.00  0.00    +0.000 C 
BRANCH  13  15
ATOM     14  O   UNL     1       1.756  10.832  18.728  0.00  0.00    +0.000 OA
ATOM     15  C   UNL     1       1.071   9.807  18.718  0.00  0.00    +0.000 C 
ATOM     16  N   UNL     1       0.050   9.539  19.616  0.00  0.00    +0.000 N 
ATOM     17  H   UNL     1      -0.306   8.587  19.629  0.00  0.00    +0.000 HD
BRANCH  16  18
ATOM     18  C   UNL     1      -0.472  10.408  20.600  0.00  0.00    +0.000 A 
ATOM     19  C   UNL     1      -0.229  10.233  21.967  0.00  0.00    +0.000 A 
ATOM     20  C   UNL     1      -0.838  11.067  22.909  0.00  0.00    +0.000 A 
ATOM     21  C   UNL     1      -1.683  12.082  22.483  0.00  0.00    +0.000 A 
ATOM     22  F   UNL     1      -2.301  12.850  23.390  0.00  0.00    +0.000 F 
ATOM     23  C   UNL     1      -1.897  12.314  21.131  0.00  0.00    +0.000 A 
ATOM     24  C   UNL     1      -1.275  11.490  20.192  0.00  0.00    +0.000 A 
ATOM     25 CL   UNL     1      -1.556  11.808  18.513  0.00  0.00    +0.000 Cl
ENDBRANCH  16  18
ENDBRANCH  13  15
ENDBRANCH  12  13
ENDBRANCH   1  12
BRANCH  11  26
ATOM     26  C   UNL     1       4.909   5.888  16.523  0.00  0.00    +0.000 C 
BRANCH  26  27
ATOM     27  C   UNL     1       6.170   6.330  17.243  0.00  0.00    +0.000 A 
ATOM     28  C   UNL     1       6.737   5.526  18.245  0.00  0.00    +0.000 A 
ATOM     29  C   UNL     1       7.822   5.979  18.996  0.00  0.00    +0.000 A 
ATOM     30  C   UNL     1       8.365   7.237  18.746  0.00  0.00    +0.000 A 
ATOM     31  C   UNL     1       7.843   8.025  17.723  0.00  0.00    +0.000 A 
ATOM     32  C   UNL     1       6.756   7.574  16.972  0.00  0.00    +0.000 A 
ENDBRANCH  26  27
ENDBRANCH  11  26
TORSDOF 6
ENDMDL
MODEL 3
REMARK VINA RESULT:      -8.8      4.844      7.882
REMARK  Name = 
REMARK  6 active torsions:
REMARK  status: ('A' for Active; 'I' for Inactive)
REMARK    1  A    between atoms: C_2  and  C_3
REMARK    2  A    between atoms: C_3  and  S_4
REMARK    3  A    between atoms: S_4  and  C_5
REMARK    4  A    between atoms: N_15  and  C_16
REMARK    5  A    between atoms: C_16  and  C_17
REMARK    6  A    between atoms: N_23  and  C_24
REMARK                            x       y       z     vdW  Elec       q    Type
REMARK                         _______ _______ _______ _____ _____    ______ ____
ROOT
ATOM      1  C   UNL     1       3.042   6.415  18.097  0.00  0.00    +0.000 A 
ATOM      2  N   UNL     1       2.137   6.106  18.959  0.00  0.00    +0.000 NA
ATOM      3  C   UNL     1       2.024   4.793  19.388  0.00  0.00    +0.000 A 
ATOM      4  C   UNL     1       1.171   4.511  20.456  0.00  0.00    +0.000 A 
ATOM      5  C   UNL     1       1.067   3.210  20.949  0.00  0.00    +0.000 A 
ATOM      6  C   UNL     1       1.804   2.182  20.364  0.00  0.00    +0.000 A 
ATOM      7  C   UNL     1       2.654   2.458  19.288  0.00  0.00    +0.000 A 
ATOM      8  C   UNL     1       2.763   3.769  18.814  0.00  0.00    +0.000 A 
ATOM      9  C   UNL     1       3.691   4.131  17.731  0.00  0.00    +0.000 A 
ATOM     10  O   UNL     1       4.248   3.232  17.110  0.00  0.00    +0.000 OA
ATOM     11  N   UNL     1       3.872   5.495  17.478  0.00  0.00    +0.000 N 
ENDROOT
BRANCH   1  12
ATOM     12  S   UNL     1       3.199   8.127  17.730  0.00  0.00    +0.000 S 
BRANCH  12  13
ATOM     13  C   UNL     1       1.450   8.653  17.782  0.00  0.00    +0.000 C 
BRANCH  13  15
ATOM     14  O   UNL     1       1.810  10.926  18.433  0.00  0.00    +0.000 OA
ATOM     15  C   UNL     1       1.174   9.888  18.631  0.00  0.00    +0.000 C 
ATOM     16  N   UNL     1       0.279   9.706  19.674  0.00  0.00    +0.000 N 
ATOM     17  H   UNL     1      -0.031   8.753  19.845  0.00  0.00    +0.000 HD
BRANCH  16  18
ATOM     18  C   UNL     1      -0.159  10.677  20.603  0.00  0.00    +0.000 A 
ATOM     19  C   UNL     1      -0.237  12.038  20.290  0.00  0.00    +0.000 A 
ATOM     20  C   UNL     1      -0.593  12.972  21.267  0.00  0.00    +0.000 A 
ATOM     21  C   UNL     1      -0.879  12.543  22.556  0.00  0.00    +0.000 A 
ATOM     22  F   UNL     1      -1.175  13.444  23.501  0.00  0.00    +0.000 F 
ATOM     23  C   UNL     1      -0.865  11.193  22.879  0.00  0.00    +0.000 A 
ATOM     24  C   UNL     1      -0.525  10.261  21.897  0.00  0.00    +0.000 A 
ATOM     25 CL   UNL     1      -0.522   8.584  22.329  0.00  0.00    +0.000 Cl
ENDBRANCH  16  18
ENDBRANCH  13  15
ENDBRANCH  12  13
ENDBRANCH   1  12
BRANCH  11  26
ATOM     26  C   UNL     1       4.952   5.835  16.540  0.00  0.00    +0.000 C 
BRANCH  26  27
ATOM     27  C   UNL     1       6.205   6.280  17.272  0.00  0.00    +0.000 A 
ATOM     28  C   UNL     1       6.756   5.484  18.290  0.00  0.00    +0.000 A 
ATOM     29  C   UNL     1       7.834   5.940  19.049  0.00  0.00    +0.000 A 
ATOM     30  C   UNL     1       8.384   7.194  18.793  0.00  0.00    +0.000 A 
ATOM     31  C   UNL     1       7.878   7.974  17.756  0.00  0.00    +0.000 A 
ATOM     32  C   UNL     1       6.799   7.519  16.996  0.00  0.00    +0.000 A 
ENDBRANCH  26  27
ENDBRANCH  11  26
TORSDOF 6
ENDMDL
MODEL 4
REMARK VINA RESULT:      -8.7      4.591      7.020
REMARK  Name = 
REMARK  6 active torsions:
REMARK  status: ('A' for Active; 'I' for Inactive)
REMARK    1  A    between atoms: C_2  and  C_3
REMARK    2  A    between atoms: C_3  and  S_4
REMARK    3  A    between atoms: S_4  and  C_5
REMARK    4  A    between atoms: N_15  and  C_16
REMARK    5  A    between atoms: C_16  and  C_17
REMARK    6  A    between atoms: N_23  and  C_24
REMARK                            x       y       z     vdW  Elec       q    Type
REMARK                         _______ _______ _______ _____ _____    ______ ____
ROOT
ATOM      1  C   UNL     1       3.017   6.400  18.100  0.00  0.00    +0.000 A 
ATOM      2  N   UNL     1       2.118   6.077  18.963  0.00  0.00    +0.000 NA
ATOM      3  C   UNL     1       2.025   4.762  19.391  0.00  0.00    +0.000 A 
ATOM      4  C   UNL     1       1.178   4.466  20.460  0.00  0.00    +0.000 A 
ATOM      5  C   UNL     1       1.094   3.163  20.952  0.00  0.00    +0.000 A 
ATOM      6  C   UNL     1       1.846   2.147  20.365  0.00  0.00    +0.000 A 
ATOM      7  C   UNL     1       2.690   2.437  19.288  0.00  0.00    +0.000 A 
ATOM      8  C   UNL     1       2.778   3.750  18.816  0.00  0.00    +0.000 A 
ATOM      9  C   UNL     1       3.700   4.126  17.731  0.00  0.00    +0.000 A 
ATOM     10  O   UNL     1       4.269   3.236  17.109  0.00  0.00    +0.000 OA
ATOM     11  N   UNL     1       3.860   5.492  17.479  0.00  0.00    +0.000 N 
ENDROOT
BRANCH   1  12
ATOM     12  S   UNL     1       3.148   8.114  17.734  0.00  0.00    +0.000 S 
BRANCH  12  13
ATOM     13  C   UNL     1       1.428   8.660  18.019  0.00  0.00    +0.000 C 
BRANCH  13  15
ATOM     14  O   UNL     1       0.961   9.958  19.972  0.00  0.00    +0.000 OA
ATOM     15  C   UNL     1       1.286   9.971  18.783  0.00  0.00    +0.000 C 
ATOM     16  N   UNL     1       1.425  11.122  18.022  0.00  0.00    +0.000 N 
ATOM     17  H   UNL     1       1.504  10.995  17.017  0.00  0.00    +0.000 HD
BRANCH  16  18
ATOM     18  C   UNL     1       1.349  12.459  18.474  0.00  0.00    +0.000 A 
ATOM     19  C   UNL     1       2.477  13.185  18.870  0.00  0.00    +0.000 A 
ATOM     20  C   UNL     1       2.343  14.475  19.393  0.00  0.00    +0.000 A 
ATOM     21  C   UNL     1       1.082  15.041  19.511  0.00  0.00    +0.000 A 
ATOM     22  F   UNL     1       0.953  16.258  20.054  0.00  0.00    +0.000 F 
ATOM     23  C   UNL     1      -0.049  14.365  19.073  0.00  0.00    +0.000 A 
ATOM     24  C   UNL     1       0.089  13.084  18.537  0.00  0.00    +0.000 A 
ATOM     25 CL   UNL     1      -1.338  12.267  17.993  0.00  0.00    +0.000 Cl
ENDBRANCH  16  18
ENDBRANCH  13  15
ENDBRANCH  12  13
ENDBRANCH   1  12
BRANCH  11  26
ATOM     26  C   UNL     1       4.934   5.850  16.540  0.00  0.00    +0.000 C 
BRANCH  26  27
ATOM     27  C   UNL     1       6.189   6.289  17.271  0.00  0.00    +0.000 A 
ATOM     28  C   UNL     1       6.746   5.484  18.278  0.00  0.00    +0.000 A 
ATOM     29  C   UNL     1       7.826   5.934  19.038  0.00  0.00    +0.000 A 
ATOM     30  C   UNL     1       8.373   7.191  18.792  0.00  0.00    +0.000 A 
ATOM     31  C   UNL     1       7.861   7.981  17.766  0.00  0.00    +0.000 A 
ATOM     32  C   UNL     1       6.779   7.532  17.006  0.00  0.00    +0.000 A 
ENDBRANCH  26  27
ENDBRANCH  11  26
TORSDOF 6
ENDMDL
MODEL 5
REMARK VINA RESULT:      -8.5      5.143      8.309
REMARK  Name = 
REMARK  6 active torsions:
REMARK  status: ('A' for Active; 'I' for Inactive)
REMARK    1  A    between atoms: C_2  and  C_3
REMARK    2  A    between atoms: C_3  and  S_4
REMARK    3  A    between atoms: S_4  and  C_5
REMARK    4  A    between atoms: N_15  and  C_16
REMARK    5  A    between atoms: C_16  and  C_17
REMARK    6  A    between atoms: N_23  and  C_24
REMARK                            x       y       z     vdW  Elec       q    Type
REMARK                         _______ _______ _______ _____ _____    ______ ____
ROOT
ATOM      1  C   UNL     1       2.847   6.253  18.114  0.00  0.00    +0.000 A 
ATOM      2  N   UNL     1       1.981   5.803  18.955  0.00  0.00    +0.000 NA
ATOM      3  C   UNL     1       1.992   4.459  19.293  0.00  0.00    +0.000 A 
ATOM      4  C   UNL     1       1.178   4.026  20.340  0.00  0.00    +0.000 A 
ATOM      5  C   UNL     1       1.198   2.691  20.742  0.00  0.00    +0.000 A 
ATOM      6  C   UNL     1       2.021   1.778  20.086  0.00  0.00    +0.000 A 
ATOM      7  C   UNL     1       2.833   2.204  19.030  0.00  0.00    +0.000 A 
ATOM      8  C   UNL     1       2.817   3.549  18.648  0.00  0.00    +0.000 A 
ATOM      9  C   UNL     1       3.700   4.069  17.590  0.00  0.00    +0.000 A 
ATOM     10  O   UNL     1       4.331   3.269  16.908  0.00  0.00    +0.000 OA
ATOM     11  N   UNL     1       3.752   5.457  17.432  0.00  0.00    +0.000 N 
ENDROOT
BRANCH   1  12
ATOM     12  S   UNL     1       2.843   7.992  17.867  0.00  0.00    +0.000 S 
BRANCH  12  13
ATOM     13  C   UNL     1       1.948   8.551  19.358  0.00  0.00    +0.000 C 
BRANCH  13  15
ATOM     14  O   UNL     1       1.471  10.710  18.446  0.00  0.00    +0.000 OA
ATOM     15  C   UNL     1       1.077   9.786  19.161  0.00  0.00    +0.000 C 
ATOM     16  N   UNL     1      -0.081   9.826  19.924  0.00  0.00    +0.000 N 
ATOM     17  H   UNL     1      -0.195   9.090  20.615  0.00  0.00    +0.000 HD
BRANCH  16  18
ATOM     18  C   UNL     1      -1.064  10.842  19.931  0.00  0.00    +0.000 A 
ATOM     19  C   UNL     1      -1.210  11.741  20.993  0.00  0.00    +0.000 A 
ATOM     20  C   UNL     1      -2.253  12.672  20.996  0.00  0.00    +0.000 A 
ATOM     21  C   UNL     1      -3.143  12.710  19.932  0.00  0.00    +0.000 A 
ATOM     22  F   UNL     1      -4.167  13.572  19.959  0.00  0.00    +0.000 F 
ATOM     23  C   UNL     1      -2.987  11.868  18.839  0.00  0.00    +0.000 A 
ATOM     24  C   UNL     1      -1.936  10.950  18.832  0.00  0.00    +0.000 A 
ATOM     25 CL   UNL     1      -1.763   9.917  17.453  0.00  0.00    +0.000 Cl
ENDBRANCH  16  18
ENDBRANCH  13  15
ENDBRANCH  12  13
ENDBRANCH   1  12
BRANCH  11  26
ATOM     26  C   UNL     1       4.789   5.959  16.517  0.00  0.00    +0.000 C 
BRANCH  26  27
ATOM     27  C   UNL     1       6.063   6.312  17.261  0.00  0.00    +0.000 A 
ATOM     28  C   UNL     1       6.562   5.464  18.264  0.00  0.00    +0.000 A 
ATOM     29  C   UNL     1       7.662   5.838  19.035  0.00  0.00    +0.000 A 
ATOM     30  C   UNL     1       8.288   7.061  18.807  0.00  0.00    +0.000 A 
ATOM     31  C   UNL     1       7.834   7.891  17.784  0.00  0.00    +0.000 A 
ATOM     32  C   UNL     1       6.732   7.518  17.012  0.00  0.00    +0.000 A 
ENDBRANCH  26  27
ENDBRANCH  11  26
TORSDOF 6
ENDMDL
MODEL 6
REMARK VINA RESULT:      -8.5      1.644      1.729
REMARK  Name = 
REMARK  6 active torsions:
REMARK  status: ('A' for Active; 'I' for Inactive)
REMARK    1  A    between atoms: C_2  and  C_3
REMARK    2  A    between atoms: C_3  and  S_4
REMARK    3  A    between atoms: S_4  and  C_5
REMARK    4  A    between atoms: N_15  and  C_16
REMARK    5  A    between atoms: C_16  and  C_17
REMARK    6  A    between atoms: N_23  and  C_24
REMARK                            x       y       z     vdW  Elec       q    Type
REMARK                         _______ _______ _______ _____ _____    ______ ____
ROOT
ATOM      1  C   UNL     1       6.959   5.818  17.286  0.00  0.00    +0.000 A 
ATOM      2  N   UNL     1       7.569   5.789  16.153  0.00  0.00    +0.000 NA
ATOM      3  C   UNL     1       7.029   5.058  15.105  0.00  0.00    +0.000 A 
ATOM      4  C   UNL     1       7.595   5.191  13.837  0.00  0.00    +0.000 A 
ATOM      5  C   UNL     1       7.050   4.510  12.748  0.00  0.00    +0.000 A 
ATOM      6  C   UNL     1       5.945   3.680  12.928  0.00  0.00    +0.000 A 
ATOM      7  C   UNL     1       5.379   3.537  14.199  0.00  0.00    +0.000 A 
ATOM      8  C   UNL     1       5.924   4.239  15.279  0.00  0.00    +0.000 A 
ATOM      9  C   UNL     1       5.329   4.181  16.624  0.00  0.00    +0.000 A 
ATOM     10  O   UNL     1       4.445   3.359  16.840  0.00  0.00    +0.000 OA
ATOM     11  N   UNL     1       5.824   5.077  17.576  0.00  0.00    +0.000 N 
ENDROOT
BRANCH   1  12
ATOM     12  S   UNL     1       7.644   6.889  18.499  0.00  0.00    +0.000 S 
BRANCH  12  13
ATOM     13  C   UNL     1       8.298   8.230  17.445  0.00  0.00    +0.000 C 
BRANCH  13  15
ATOM     14  O   UNL     1       7.765  10.552  17.658  0.00  0.00    +0.000 OA
ATOM     15  C   UNL     1       8.389   9.594  18.120  0.00  0.00    +0.000 C 
ATOM     16  N   UNL     1       9.292   9.680  19.168  0.00  0.00    +0.000 N 
ATOM     17  H   UNL     1       9.882   8.868  19.327  0.00  0.00    +0.000 HD
BRANCH  16  18
ATOM     18  C   UNL     1       9.567  10.813  19.967  0.00  0.00    +0.000 A 
ATOM     19  C   UNL     1       8.921  11.052  21.185  0.00  0.00    +0.000 A 
ATOM     20  C   UNL     1       9.163  12.230  21.898  0.00  0.00    +0.000 A 
ATOM     21  C   UNL     1      10.058  13.165  21.396  0.00  0.00    +0.000 A 
ATOM     22  F   UNL     1      10.253  14.312  22.058  0.00  0.00    +0.000 F 
ATOM     23  C   UNL     1      10.756  12.927  20.219  0.00  0.00    +0.000 A 
ATOM     24  C   UNL     1      10.524  11.743  19.518  0.00  0.00    +0.000 A 
ATOM     25 CL   UNL     1      11.413  11.471  18.057  0.00  0.00    +0.000 Cl
ENDBRANCH  16  18
ENDBRANCH  13  15
ENDBRANCH  12  13
ENDBRANCH   1  12
BRANCH  11  26
ATOM     26  C   UNL     1       5.079   5.145  18.842  0.00  0.00    +0.000 C 
BRANCH  26  27
ATOM     27  C   UNL     1       3.950   6.156  18.770  0.00  0.00    +0.000 A 
ATOM     28  C   UNL     1       3.903   7.100  17.731  0.00  0.00    +0.000 A 
ATOM     29  C   UNL     1       2.940   8.109  17.723  0.00  0.00    +0.000 A 
ATOM     30  C   UNL     1       2.000   8.181  18.749  0.00  0.00    +0.000 A 
ATOM     31  C   UNL     1       2.005   7.224  19.760  0.00  0.00    +0.000 A 
ATOM     32  C   UNL     1       2.969   6.214  19.770  0.00  0.00    +0.000 A 
ENDBRANCH  26  27
ENDBRANCH  11  26
TORSDOF 6
ENDMDL
MODEL 7
REMARK VINA RESULT:      -8.5      4.659      7.532
REMARK  Name = 
REMARK  6 active torsions:
REMARK  status: ('A' for Active; 'I' for Inactive)
REMARK    1  A    between atoms: C_2  and  C_3
REMARK    2  A    between atoms: C_3  and  S_4
REMARK    3  A    between atoms: S_4  and  C_5
REMARK    4  A    between atoms: N_15  and  C_16
REMARK    5  A    between atoms: C_16  and  C_17
REMARK    6  A    between atoms: N_23  and  C_24
REMARK                            x       y       z     vdW  Elec       q    Type
REMARK                         _______ _______ _______ _____ _____    ______ ____
ROOT
ATOM      1  C   UNL     1       2.962   6.365  18.121  0.00  0.00    +0.000 A 
ATOM      2  N   UNL     1       2.036   6.013  18.943  0.00  0.00    +0.000 NA
ATOM      3  C   UNL     1       1.942   4.687  19.337  0.00  0.00    +0.000 A 
ATOM      4  C   UNL     1       1.060   4.358  20.368  0.00  0.00    +0.000 A 
ATOM      5  C   UNL     1       0.973   3.044  20.826  0.00  0.00    +0.000 A 
ATOM      6  C   UNL     1       1.755   2.049  20.243  0.00  0.00    +0.000 A 
ATOM      7  C   UNL     1       2.634   2.372  19.205  0.00  0.00    +0.000 A 
ATOM      8  C   UNL     1       2.725   3.696  18.766  0.00  0.00    +0.000 A 
ATOM      9  C   UNL     1       3.681   4.107  17.724  0.00  0.00    +0.000 A 
ATOM     10  O   UNL     1       4.281   3.237  17.102  0.00  0.00    +0.000 OA
ATOM     11  N   UNL     1       3.835   5.480  17.510  0.00  0.00    +0.000 N 
ENDROOT
BRANCH   1  12
ATOM     12  S   UNL     1       3.088   8.088  17.800  0.00  0.00    +0.000 S 
BRANCH  12  13
ATOM     13  C   UNL     1       1.325   8.567  17.786  0.00  0.00    +0.000 C 
BRANCH  13  15
ATOM     14  O   UNL     1       1.123   9.533  19.964  0.00  0.00    +0.000 OA
ATOM     15  C   UNL     1       0.953   9.685  18.752  0.00  0.00    +0.000 C 
ATOM     16  N   UNL     1       0.320  10.779  18.182  0.00  0.00    +0.000 N 
ATOM     17  H   UNL     1       0.069  10.698  17.201  0.00  0.00    +0.000 HD
BRANCH  16  18
ATOM     18  C   UNL     1      -0.122  11.949  18.841  0.00  0.00    +0.000 A 
ATOM     19  C   UNL     1      -1.348  12.018  19.511  0.00  0.00    +0.000 A 
ATOM     20  C   UNL     1      -1.782  13.223  20.073  0.00  0.00    +0.000 A 
ATOM     21  C   UNL     1      -0.985  14.355  19.972  0.00  0.00    +0.000 A 
ATOM     22  F   UNL     1      -1.424  15.517  20.471  0.00  0.00    +0.000 F 
ATOM     23  C   UNL     1       0.261  14.300  19.362  0.00  0.00    +0.000 A 
ATOM     24  C   UNL     1       0.699  13.092  18.817  0.00  0.00    +0.000 A 
ATOM     25 CL   UNL     1       2.260  13.052  18.068  0.00  0.00    +0.000 Cl
ENDBRANCH  16  18
ENDBRANCH  13  15
ENDBRANCH  12  13
ENDBRANCH   1  12
BRANCH  11  26
ATOM     26  C   UNL     1       4.938   5.870  16.618  0.00  0.00    +0.000 C 
BRANCH  26  27
ATOM     27  C   UNL     1       6.122   6.409  17.400  0.00  0.00    +0.000 A 
ATOM     28  C   UNL     1       6.686   7.652  17.071  0.00  0.00    +0.000 A 
ATOM     29  C   UNL     1       7.847   8.100  17.702  0.00  0.00    +0.000 A 
ATOM     30  C   UNL     1       8.453   7.316  18.681  0.00  0.00    +0.000 A 
ATOM     31  C   UNL     1       7.878   6.103  19.051  0.00  0.00    +0.000 A 
ATOM     32  C   UNL     1       6.717   5.653  18.419  0.00  0.00    +0.000 A 
ENDBRANCH  26  27
ENDBRANCH  11  26
TORSDOF 6
ENDMDL
MODEL 8
REMARK VINA RESULT:      -8.4      4.922      8.076
REMARK  Name = 
REMARK  6 active torsions:
REMARK  status: ('A' for Active; 'I' for Inactive)
REMARK    1  A    between atoms: C_2  and  C_3
REMARK    2  A    between atoms: C_3  and  S_4
REMARK    3  A    between atoms: S_4  and  C_5
REMARK    4  A    between atoms: N_15  and  C_16
REMARK    5  A    between atoms: C_16  and  C_17
REMARK    6  A    between atoms: N_23  and  C_24
REMARK                            x       y       z     vdW  Elec       q    Type
REMARK                         _______ _______ _______ _____ _____    ______ ____
ROOT
ATOM      1  C   UNL     1       2.899   6.594  18.224  0.00  0.00    +0.000 A 
ATOM      2  N   UNL     1       1.993   6.192  19.046  0.00  0.00    +0.000 NA
ATOM      3  C   UNL     1       1.892   4.841  19.343  0.00  0.00    +0.000 A 
ATOM      4  C   UNL     1       1.037   4.446  20.372  0.00  0.00    +0.000 A 
ATOM      5  C   UNL     1       0.945   3.101  20.733  0.00  0.00    +0.000 A 
ATOM      6  C   UNL     1       1.696   2.145  20.054  0.00  0.00    +0.000 A 
ATOM      7  C   UNL     1       2.548   2.534  19.016  0.00  0.00    +0.000 A 
ATOM      8  C   UNL     1       2.645   3.887  18.675  0.00  0.00    +0.000 A 
ATOM      9  C   UNL     1       3.575   4.364  17.638  0.00  0.00    +0.000 A 
ATOM     10  O   UNL     1       4.144   3.536  16.935  0.00  0.00    +0.000 OA
ATOM     11  N   UNL     1       3.742   5.747  17.523  0.00  0.00    +0.000 N 
ENDROOT
BRANCH   1  12
ATOM     12  S   UNL     1       3.039   8.334  18.030  0.00  0.00    +0.000 S 
BRANCH  12  13
ATOM     13  C   UNL     1       1.286   8.801  17.817  0.00  0.00    +0.000 C 
BRANCH  13  15
ATOM     14  O   UNL     1       1.332  11.094  18.493  0.00  0.00    +0.000 OA
ATOM     15  C   UNL     1       0.826   9.982  18.662  0.00  0.00    +0.000 C 
ATOM     16  N   UNL     1      -0.074   9.679  19.672  0.00  0.00    +0.000 N 
ATOM     17  H   UNL     1      -0.268   8.693  19.826  0.00  0.00    +0.000 HD
BRANCH  16  18
ATOM     18  C   UNL     1      -0.664  10.577  20.589  0.00  0.00    +0.000 A 
ATOM     19  C   UNL     1      -1.523  11.607  20.190  0.00  0.00    +0.000 A 
ATOM     20  C   UNL     1      -2.013  12.525  21.123  0.00  0.00    +0.000 A 
ATOM     21  C   UNL     1      -1.651  12.408  22.458  0.00  0.00    +0.000 A 
ATOM     22  F   UNL     1      -2.084  13.315  23.341  0.00  0.00    +0.000 F 
ATOM     23  C   UNL     1      -0.845  11.362  22.891  0.00  0.00    +0.000 A 
ATOM     24  C   UNL     1      -0.371  10.438  21.959  0.00  0.00    +0.000 A 
ATOM     25 CL   UNL     1       0.626   9.142  22.529  0.00  0.00    +0.000 Cl
ENDBRANCH  16  18
ENDBRANCH  13  15
ENDBRANCH  12  13
ENDBRANCH   1  12
BRANCH  11  26
ATOM     26  C   UNL     1       4.823   6.190  16.629  0.00  0.00    +0.000 C 
BRANCH  26  27
ATOM     27  C   UNL     1       6.056   6.605  17.411  0.00  0.00    +0.000 A 
ATOM     28  C   UNL     1       6.715   7.809  17.117  0.00  0.00    +0.000 A 
ATOM     29  C   UNL     1       7.916   8.140  17.746  0.00  0.00    +0.000 A 
ATOM     30  C   UNL     1       8.469   7.275  18.687  0.00  0.00    +0.000 A 
ATOM     31  C   UNL     1       7.802   6.099  19.024  0.00  0.00    +0.000 A 
ATOM     32  C   UNL     1       6.601   5.767  18.394  0.00  0.00    +0.000 A 
ENDBRANCH  26  27
ENDBRANCH  11  26
TORSDOF 6
ENDMDL
MODEL 9
REMARK VINA RESULT:      -8.4      4.672      7.410
REMARK  Name = 
REMARK  6 active torsions:
REMARK  status: ('A' for Active; 'I' for Inactive)
REMARK    1  A    between atoms: C_2  and  C_3
REMARK    2  A    between atoms: C_3  and  S_4
REMARK    3  A    between atoms: S_4  and  C_5
REMARK    4  A    between atoms: N_15  and  C_16
REMARK    5  A    between atoms: C_16  and  C_17
REMARK    6  A    between atoms: N_23  and  C_24
REMARK                            x       y       z     vdW  Elec       q    Type
REMARK                         _______ _______ _______ _____ _____    ______ ____
ROOT
ATOM      1  C   UNL     1       2.796   6.386  18.248  0.00  0.00    +0.000 A 
ATOM      2  N   UNL     1       1.950   5.962  19.121  0.00  0.00    +0.000 NA
ATOM      3  C   UNL     1       1.958   4.624  19.484  0.00  0.00    +0.000 A 
ATOM      4  C   UNL     1       1.169   4.220  20.563  0.00  0.00    +0.000 A 
ATOM      5  C   UNL     1       1.187   2.892  20.990  0.00  0.00    +0.000 A 
ATOM      6  C   UNL     1       1.983   1.959  20.328  0.00  0.00    +0.000 A 
ATOM      7  C   UNL     1       2.768   2.356  19.242  0.00  0.00    +0.000 A 
ATOM      8  C   UNL     1       2.755   3.693  18.834  0.00  0.00    +0.000 A 
ATOM      9  C   UNL     1       3.612   4.183  17.742  0.00  0.00    +0.000 A 
ATOM     10  O   UNL     1       4.216   3.364  17.058  0.00  0.00    +0.000 OA
ATOM     11  N   UNL     1       3.674   5.568  17.556  0.00  0.00    +0.000 N 
ENDROOT
BRANCH   1  12
ATOM     12  S   UNL     1       2.803   8.120  17.967  0.00  0.00    +0.000 S 
BRANCH  12  13
ATOM     13  C   UNL     1       1.657   8.686  19.273  0.00  0.00    +0.000 C 
BRANCH  13  15
ATOM     14  O   UNL     1       0.146  10.006  17.971  0.00  0.00    +0.000 OA
ATOM     15  C   UNL     1       0.894   9.965  18.951  0.00  0.00    +0.000 C 
ATOM     16  N   UNL     1       1.202  11.059  19.746  0.00  0.00    +0.000 N 
ATOM     17  H   UNL     1       1.974  10.944  20.397  0.00  0.00    +0.000 HD
BRANCH  16  18
ATOM     18  C   UNL     1       0.643  12.354  19.670  0.00  0.00    +0.000 A 
ATOM     19  C   UNL     1      -0.561  12.693  20.298  0.00  0.00    +0.000 A 
ATOM     20  C   UNL     1      -1.120  13.962  20.123  0.00  0.00    +0.000 A 
ATOM     21  C   UNL     1      -0.470  14.896  19.328  0.00  0.00    +0.000 A 
ATOM     22  F   UNL     1      -1.031  16.094  19.125  0.00  0.00    +0.000 F 
ATOM     23  C   UNL     1       0.754  14.605  18.740  0.00  0.00    +0.000 A 
ATOM     24  C   UNL     1       1.317  13.343  18.929  0.00  0.00    +0.000 A 
ATOM     25 CL   UNL     1       2.847  13.012  18.188  0.00  0.00    +0.000 Cl
ENDBRANCH  16  18
ENDBRANCH  13  15
ENDBRANCH  12  13
ENDBRANCH   1  12
BRANCH  11  26
ATOM     26  C   UNL     1       4.689   6.041  16.603  0.00  0.00    +0.000 C 
BRANCH  26  27
ATOM     27  C   UNL     1       5.995   6.374  17.301  0.00  0.00    +0.000 A 
ATOM     28  C   UNL     1       6.518   5.516  18.282  0.00  0.00    +0.000 A 
ATOM     29  C   UNL     1       7.650   5.872  19.014  0.00  0.00    +0.000 A 
ATOM     30  C   UNL     1       8.285   7.087  18.766  0.00  0.00    +0.000 A 
ATOM     31  C   UNL     1       7.806   7.927  17.764  0.00  0.00    +0.000 A 
ATOM     32  C   UNL     1       6.671   7.572  17.031  0.00  0.00    +0.000 A 
ENDBRANCH  26  27
ENDBRANCH  11  26
TORSDOF 6
ENDMDL
