MODEL 1
REMARK VINA RESULT:      -8.9      0.000      0.000
REMARK  Name = 
REMARK  6 active torsions:
REMARK  status: ('A' for Active; 'I' for Inactive)
REMARK    1  A    between atoms: C_1  and  C_2
REMARK    2  A    between atoms: C_5  and  C_6
REMARK    3  A    between atoms: C_8  and  C_9
REMARK    4  A    between atoms: C_13  and  N_14
REMARK    5  A    between atoms: C_15  and  C_16
REMARK    6  A    between atoms: C_25  and  C_26
REMARK                            x       y       z     vdW  Elec       q    Type
REMARK                         _______ _______ _______ _____ _____    ______ ____
ROOT
ATOM      1  C   UNL     1       2.671   6.270  19.764  0.00  0.00    +0.000 A 
ATOM      2  C   UNL     1       2.162   5.153  20.439  0.00  0.00    +0.000 A 
ATOM      3  C   UNL     1       2.780   3.904  20.319  0.00  0.00    +0.000 A 
ATOM      4  C   UNL     1       3.925   3.764  19.534  0.00  0.00    +0.000 A 
ATOM      5  C   UNL     1       4.493   4.888  18.931  0.00  0.00    +0.000 A 
ATOM      6  C   UNL     1       3.859   6.131  19.035  0.00  0.00    +0.000 A 
ENDROOT
BRANCH   5   7
ATOM      7  N   UNL     1       5.729   4.797  18.272  0.00  0.00    +0.000 N 
ATOM      8  C   UNL     1       5.969   4.432  16.951  0.00  0.00    +0.000 A 
ATOM      9  C   UNL     1       4.904   4.272  15.925  0.00  0.00    +0.000 C 
ATOM     10  C   UNL     1       7.296   4.403  16.750  0.00  0.00    +0.000 A 
ATOM     11  N   UNL     1       7.932   4.738  17.915  0.00  0.00    +0.000 N 
ATOM     12  C   UNL     1       6.980   5.025  18.914  0.00  0.00    +0.000 A 
ATOM     13  O   UNL     1       7.230   5.359  20.058  0.00  0.00    +0.000 OA
ATOM     14  H   UNL     1       8.927   4.794  18.072  0.00  0.00    +0.000 HD
ENDBRANCH   5   7
BRANCH   1  17
ATOM     15  C   UNL     1       0.742   9.097  20.506  0.00  0.00    +0.000 A 
ATOM     16  N   UNL     1       1.217   7.931  20.887  0.00  0.00    +0.000 NA
ATOM     17  C   UNL     1       1.973   7.546  19.801  0.00  0.00    +0.000 A 
ATOM     18  N   UNL     1       1.972   8.430  18.793  0.00  0.00    +0.000 NA
ATOM     19  O   UNL     1       1.153   9.460  19.254  0.00  0.00    +0.000 OA
BRANCH  15  24
ATOM     20  C   UNL     1      -2.397  12.972  23.277  0.00  0.00    +0.000 C 
ATOM     21  C   UNL     1      -1.606  11.920  22.549  0.00  0.00    +0.000 A 
ATOM     22  C   UNL     1      -1.169  10.781  23.227  0.00  0.00    +0.000 A 
ATOM     23  C   UNL     1      -0.414   9.822  22.562  0.00  0.00    +0.000 A 
ATOM     24  C   UNL     1      -0.107  10.035  21.223  0.00  0.00    +0.000 A 
ATOM     25  N   UNL     1      -0.544  11.117  20.534  0.00  0.00    +0.000 NA
ATOM     26  C   UNL     1      -1.288  12.039  21.194  0.00  0.00    +0.000 A 
ATOM     27  C   UNL     1      -1.756  13.203  20.370  0.00  0.00    +0.000 C 
ENDBRANCH  15  24
ENDBRANCH   1  17
TORSDOF 3
ENDMDL
MODEL 2
REMARK VINA RESULT:      -8.7      5.666      7.749
REMARK  Name = 
REMARK  6 active torsions:
REMARK  status: ('A' for Active; 'I' for Inactive)
REMARK    1  A    between atoms: C_1  and  C_2
REMARK    2  A    between atoms: C_5  and  C_6
REMARK    3  A    between atoms: C_8  and  C_9
REMARK    4  A    between atoms: C_13  and  N_14
REMARK    5  A    between atoms: C_15  and  C_16
REMARK    6  A    between atoms: C_25  and  C_26
REMARK                            x       y       z     vdW  Elec       q    Type
REMARK                         _______ _______ _______ _____ _____    ______ ____
ROOT
ATOM      1  C   UNL     1       6.302   5.991  17.386  0.00  0.00    +0.000 A 
ATOM      2  C   UNL     1       6.271   5.689  16.018  0.00  0.00    +0.000 A 
ATOM      3  C   UNL     1       5.450   4.666  15.532  0.00  0.00    +0.000 A 
ATOM      4  C   UNL     1       4.639   3.946  16.409  0.00  0.00    +0.000 A 
ATOM      5  C   UNL     1       4.594   4.299  17.759  0.00  0.00    +0.000 A 
ATOM      6  C   UNL     1       5.434   5.307  18.246  0.00  0.00    +0.000 A 
ENDROOT
BRANCH   5   7
ATOM      7  N   UNL     1       3.669   3.695  18.625  0.00  0.00    +0.000 N 
ATOM      8  C   UNL     1       2.290   3.873  18.664  0.00  0.00    +0.000 A 
ATOM      9  C   UNL     1       1.515   4.602  17.624  0.00  0.00    +0.000 C 
ATOM     10  C   UNL     1       1.795   3.164  19.691  0.00  0.00    +0.000 A 
ATOM     11  N   UNL     1       2.824   2.526  20.330  0.00  0.00    +0.000 N 
ATOM     12  C   UNL     1       4.040   2.808  19.676  0.00  0.00    +0.000 A 
ATOM     13  O   UNL     1       5.136   2.384  20.000  0.00  0.00    +0.000 OA
ATOM     14  H   UNL     1       2.761   1.927  21.139  0.00  0.00    +0.000 HD
ENDBRANCH   5   7
BRANCH   1  17
ATOM     15  C   UNL     1       8.228   8.817  18.144  0.00  0.00    +0.000 A 
ATOM     16  N   UNL     1       7.240   8.282  17.458  0.00  0.00    +0.000 NA
ATOM     17  C   UNL     1       7.232   6.980  17.910  0.00  0.00    +0.000 A 
ATOM     18  N   UNL     1       8.166   6.716  18.835  0.00  0.00    +0.000 NA
ATOM     19  O   UNL     1       8.832   7.932  18.992  0.00  0.00    +0.000 OA
BRANCH  15  24
ATOM     20  C   UNL     1      10.144  14.183  18.427  0.00  0.00    +0.000 C 
ATOM     21  C   UNL     1       9.652  12.766  18.307  0.00  0.00    +0.000 A 
ATOM     22  C   UNL     1       8.520  12.483  17.541  0.00  0.00    +0.000 A 
ATOM     23  C   UNL     1       8.048  11.178  17.452  0.00  0.00    +0.000 A 
ATOM     24  C   UNL     1       8.726  10.182  18.146  0.00  0.00    +0.000 A 
ATOM     25  N   UNL     1       9.844  10.425  18.872  0.00  0.00    +0.000 NA
ATOM     26  C   UNL     1      10.298  11.702  18.941  0.00  0.00    +0.000 A 
ATOM     27  C   UNL     1      11.550  11.902  19.745  0.00  0.00    +0.000 C 
ENDBRANCH  15  24
ENDBRANCH   1  17
TORSDOF 3
ENDMDL
MODEL 3
REMARK VINA RESULT:      -8.6      1.359      1.390
REMARK  Name = 
REMARK  6 active torsions:
REMARK  status: ('A' for Active; 'I' for Inactive)
REMARK    1  A    between atoms: C_1  and  C_2
REMARK    2  A    between atoms: C_5  and  C_6
REMARK    3  A    between atoms: C_8  and  C_9
REMARK    4  A    between atoms: C_13  and  N_14
REMARK    5  A    between atoms: C_15  and  C_16
REMARK    6  A    between atoms: C_25  and  C_26
REMARK                            x       y       z     vdW  Elec       q    Type
REMARK                         _______ _______ _______ _____ _____    ______ ____
ROOT
ATOM      1  C   UNL     1       2.579   6.510  18.196  0.00  0.00    +0.000 A 
ATOM      2  C   UNL     1       1.718   5.410  18.303  0.00  0.00    +0.000 A 
ATOM      3  C   UNL     1       2.140   4.133  17.919  0.00  0.00    +0.000 A 
ATOM      4  C   UNL     1       3.437   3.942  17.439  0.00  0.00    +0.000 A 
ATOM      5  C   UNL     1       4.332   5.012  17.414  0.00  0.00    +0.000 A 
ATOM      6  C   UNL     1       3.898   6.293  17.777  0.00  0.00    +0.000 A 
ENDROOT
BRANCH   5   7
ATOM      7  N   UNL     1       5.681   4.808  17.087  0.00  0.00    +0.000 N 
ATOM      8  C   UNL     1       6.240   4.642  15.824  0.00  0.00    +0.000 A 
ATOM      9  C   UNL     1       5.502   4.867  14.552  0.00  0.00    +0.000 C 
ATOM     10  C   UNL     1       7.553   4.400  15.966  0.00  0.00    +0.000 A 
ATOM     11  N   UNL     1       7.866   4.401  17.297  0.00  0.00    +0.000 N 
ATOM     12  C   UNL     1       6.714   4.682  18.060  0.00  0.00    +0.000 A 
ATOM     13  O   UNL     1       6.667   4.757  19.275  0.00  0.00    +0.000 OA
ATOM     14  H   UNL     1       8.773   4.241  17.711  0.00  0.00    +0.000 HD
ENDBRANCH   5   7
BRANCH   1  17
ATOM     15  C   UNL     1       1.176   9.432  19.522  0.00  0.00    +0.000 A 
ATOM     16  N   UNL     1       1.449   8.153  19.665  0.00  0.00    +0.000 NA
ATOM     17  C   UNL     1       2.111   7.855  18.493  0.00  0.00    +0.000 A 
ATOM     18  N   UNL     1       2.248   8.898  17.662  0.00  0.00    +0.000 NA
ATOM     19  O   UNL     1       1.626   9.947  18.338  0.00  0.00    +0.000 OA
BRANCH  15  24
ATOM     20  C   UNL     1      -1.193  13.173  23.118  0.00  0.00    +0.000 C 
ATOM     21  C   UNL     1      -0.612  12.167  22.163  0.00  0.00    +0.000 A 
ATOM     22  C   UNL     1      -0.534  10.822  22.527  0.00  0.00    +0.000 A 
ATOM     23  C   UNL     1       0.030   9.897  21.656  0.00  0.00    +0.000 A 
ATOM     24  C   UNL     1       0.512  10.349  20.434  0.00  0.00    +0.000 A 
ATOM     25  N   UNL     1       0.421  11.643  20.043  0.00  0.00    +0.000 NA
ATOM     26  C   UNL     1      -0.140  12.533  20.900  0.00  0.00    +0.000 A 
ATOM     27  C   UNL     1      -0.227  13.946  20.400  0.00  0.00    +0.000 C 
ENDBRANCH  15  24
ENDBRANCH   1  17
TORSDOF 3
ENDMDL
MODEL 4
REMARK VINA RESULT:      -8.4      1.917      2.761
REMARK  Name = 
REMARK  6 active torsions:
REMARK  status: ('A' for Active; 'I' for Inactive)
REMARK    1  A    between atoms: C_1  and  C_2
REMARK    2  A    between atoms: C_5  and  C_6
REMARK    3  A    between atoms: C_8  and  C_9
REMARK    4  A    between atoms: C_13  and  N_14
REMARK    5  A    between atoms: C_15  and  C_16
REMARK    6  A    between atoms: C_25  and  C_26
REMARK                            x       y       z     vdW  Elec       q    Type
REMARK                         _______ _______ _______ _____ _____    ______ ____
ROOT
ATOM      1  C   UNL     1       2.178   7.650  19.399  0.00  0.00    +0.000 A 
ATOM      2  C   UNL     1       2.512   8.278  18.192  0.00  0.00    +0.000 A 
ATOM      3  C   UNL     1       3.324   7.634  17.253  0.00  0.00    +0.000 A 
ATOM      4  C   UNL     1       3.797   6.346  17.506  0.00  0.00    +0.000 A 
ATOM      5  C   UNL     1       3.396   5.675  18.663  0.00  0.00    +0.000 A 
ATOM      6  C   UNL     1       2.603   6.332  19.611  0.00  0.00    +0.000 A 
ENDROOT
BRANCH   5   7
ATOM      7  N   UNL     1       3.730   4.326  18.859  0.00  0.00    +0.000 N 
ATOM      8  C   UNL     1       2.890   3.220  18.795  0.00  0.00    +0.000 A 
ATOM      9  C   UNL     1       1.491   3.263  18.289  0.00  0.00    +0.000 C 
ATOM     10  C   UNL     1       3.598   2.125  19.120  0.00  0.00    +0.000 A 
ATOM     11  N   UNL     1       4.886   2.494  19.398  0.00  0.00    +0.000 N 
ATOM     12  C   UNL     1       5.034   3.884  19.222  0.00  0.00    +0.000 A 
ATOM     13  O   UNL     1       6.063   4.516  19.388  0.00  0.00    +0.000 OA
ATOM     14  H   UNL     1       5.645   1.891  19.677  0.00  0.00    +0.000 HD
ENDBRANCH   5   7
BRANCH   1  17
ATOM     15  C   UNL     1       0.484   9.941  21.435  0.00  0.00    +0.000 A 
ATOM     16  N   UNL     1       1.125   9.697  20.312  0.00  0.00    +0.000 NA
ATOM     17  C   UNL     1       1.424   8.356  20.424  0.00  0.00    +0.000 A 
ATOM     18  N   UNL     1       0.988   7.790  21.558  0.00  0.00    +0.000 NA
ATOM     19  O   UNL     1       0.366   8.839  22.236  0.00  0.00    +0.000 OA
BRANCH  15  24
ATOM     20  C   UNL     1      -1.665  14.832  23.435  0.00  0.00    +0.000 C 
ATOM     21  C   UNL     1      -1.137  13.537  22.880  0.00  0.00    +0.000 A 
ATOM     22  C   UNL     1      -1.755  12.331  23.214  0.00  0.00    +0.000 A 
ATOM     23  C   UNL     1      -1.250  11.132  22.724  0.00  0.00    +0.000 A 
ATOM     24  C   UNL     1      -0.124  11.173  21.911  0.00  0.00    +0.000 A 
ATOM     25  N   UNL     1       0.476  12.332  21.546  0.00  0.00    +0.000 NA
ATOM     26  C   UNL     1      -0.034  13.495  22.025  0.00  0.00    +0.000 A 
ATOM     27  C   UNL     1       0.664  14.744  21.570  0.00  0.00    +0.000 C 
ENDBRANCH  15  24
ENDBRANCH   1  17
TORSDOF 3
ENDMDL
MODEL 5
REMARK VINA RESULT:      -8.4      1.402      1.903
REMARK  Name = 
REMARK  6 active torsions:
REMARK  status: ('A' for Active; 'I' for Inactive)
REMARK    1  A    between atoms: C_1  and  C_2
REMARK    2  A    between atoms: C_5  and  C_6
REMARK    3  A    between atoms: C_8  and  C_9
REMARK    4  A    between atoms: C_13  and  N_14
REMARK    5  A    between atoms: C_15  and  C_16
REMARK    6  A    between atoms: C_25  and  C_26
REMARK                            x       y       z     vdW  Elec       q    Type
REMARK                         _______ _______ _______ _____ _____    ______ ____
ROOT
ATOM      1  C   UNL     1       2.703   6.648  18.194  0.00  0.00    +0.000 A 
ATOM      2  C   UNL     1       1.879   5.576  18.560  0.00  0.00    +0.000 A 
ATOM      3  C   UNL     1       2.292   4.256  18.355  0.00  0.00    +0.000 A 
ATOM      4  C   UNL     1       3.544   3.995  17.797  0.00  0.00    +0.000 A 
ATOM      5  C   UNL     1       4.410   5.053  17.513  0.00  0.00    +0.000 A 
ATOM      6  C   UNL     1       3.984   6.373  17.698  0.00  0.00    +0.000 A 
ENDROOT
BRANCH   5   7
ATOM      7  N   UNL     1       5.729   4.805  17.102  0.00  0.00    +0.000 N 
ATOM      8  C   UNL     1       6.192   4.562  15.813  0.00  0.00    +0.000 A 
ATOM      9  C   UNL     1       5.368   4.735  14.586  0.00  0.00    +0.000 C 
ATOM     10  C   UNL     1       7.508   4.302  15.873  0.00  0.00    +0.000 A 
ATOM     11  N   UNL     1       7.917   4.366  17.177  0.00  0.00    +0.000 N 
ATOM     12  C   UNL     1       6.828   4.709  18.003  0.00  0.00    +0.000 A 
ATOM     13  O   UNL     1       6.870   4.849  19.213  0.00  0.00    +0.000 OA
ATOM     14  H   UNL     1       8.848   4.211  17.532  0.00  0.00    +0.000 HD
ENDBRANCH   5   7
BRANCH   1  17
ATOM     15  C   UNL     1       1.225   9.701  19.066  0.00  0.00    +0.000 A 
ATOM     16  N   UNL     1       1.449   8.438  19.360  0.00  0.00    +0.000 NA
ATOM     17  C   UNL     1       2.235   8.022  18.307  0.00  0.00    +0.000 A 
ATOM     18  N   UNL     1       2.491   8.978  17.402  0.00  0.00    +0.000 NA
ATOM     19  O   UNL     1       1.819  10.094  17.900  0.00  0.00    +0.000 OA
BRANCH  15  24
ATOM     20  C   UNL     1      -1.908  13.486  21.964  0.00  0.00    +0.000 C 
ATOM     21  C   UNL     1      -1.044  12.516  21.206  0.00  0.00    +0.000 A 
ATOM     22  C   UNL     1      -0.555  12.856  19.944  0.00  0.00    +0.000 A 
ATOM     23  C   UNL     1       0.220  11.948  19.231  0.00  0.00    +0.000 A 
ATOM     24  C   UNL     1       0.481  10.709  19.804  0.00  0.00    +0.000 A 
ATOM     25  N   UNL     1       0.045  10.366  21.040  0.00  0.00    +0.000 NA
ATOM     26  C   UNL     1      -0.703  11.266  21.728  0.00  0.00    +0.000 A 
ATOM     27  C   UNL     1      -1.139  10.833  23.097  0.00  0.00    +0.000 C 
ENDBRANCH  15  24
ENDBRANCH   1  17
TORSDOF 3
ENDMDL
MODEL 6
REMARK VINA RESULT:      -8.4      2.969      9.649
REMARK  Name = 
REMARK  6 active torsions:
REMARK  status: ('A' for Active; 'I' for Inactive)
REMARK    1  A    between atoms: C_1  and  C_2
REMARK    2  A    between atoms: C_5  and  C_6
REMARK    3  A    between atoms: C_8  and  C_9
REMARK    4  A    between atoms: C_13  and  N_14
REMARK    5  A    between atoms: C_15  and  C_16
REMARK    6  A    between atoms: C_25  and  C_26
REMARK                            x       y       z     vdW  Elec       q    Type
REMARK                         _______ _______ _______ _____ _____    ______ ____
ROOT
ATOM      1  C   UNL     1       0.571  10.526  18.622  0.00  0.00    +0.000 A 
ATOM      2  C   UNL     1       1.122  11.776  18.933  0.00  0.00    +0.000 A 
ATOM      3  C   UNL     1       0.389  12.949  18.732  0.00  0.00    +0.000 A 
ATOM      4  C   UNL     1      -0.912  12.883  18.232  0.00  0.00    +0.000 A 
ATOM      5  C   UNL     1      -1.504  11.639  18.005  0.00  0.00    +0.000 A 
ATOM      6  C   UNL     1      -0.759  10.468  18.186  0.00  0.00    +0.000 A 
ENDROOT
BRANCH   5   7
ATOM      7  N   UNL     1      -2.860  11.546  17.656  0.00  0.00    +0.000 N 
ATOM      8  C   UNL     1      -3.969  11.762  18.467  0.00  0.00    +0.000 A 
ATOM      9  C   UNL     1      -3.901  12.348  19.832  0.00  0.00    +0.000 C 
ATOM     10  C   UNL     1      -5.077  11.495  17.756  0.00  0.00    +0.000 A 
ATOM     11  N   UNL     1      -4.716  11.105  16.496  0.00  0.00    +0.000 N 
ATOM     12  C   UNL     1      -3.313  11.144  16.366  0.00  0.00    +0.000 A 
ATOM     13  O   UNL     1      -2.684  10.858  15.363  0.00  0.00    +0.000 OA
ATOM     14  H   UNL     1      -5.330  10.835  15.742  0.00  0.00    +0.000 HD
ENDBRANCH   5   7
BRANCH   1  17
ATOM     15  C   UNL     1       2.569   7.690  18.148  0.00  0.00    +0.000 A 
ATOM     16  N   UNL     1       2.014   8.769  17.640  0.00  0.00    +0.000 NA
ATOM     17  C   UNL     1       1.366   9.312  18.729  0.00  0.00    +0.000 A 
ATOM     18  N   UNL     1       1.513   8.609  19.861  0.00  0.00    +0.000 NA
ATOM     19  O   UNL     1       2.308   7.528  19.480  0.00  0.00    +0.000 OA
BRANCH  15  24
ATOM     20  C   UNL     1       5.985   3.705  15.913  0.00  0.00    +0.000 C 
ATOM     21  C   UNL     1       5.068   4.765  16.458  0.00  0.00    +0.000 A 
ATOM     22  C   UNL     1       5.313   6.111  16.181  0.00  0.00    +0.000 A 
ATOM     23  C   UNL     1       4.482   7.093  16.709  0.00  0.00    +0.000 A 
ATOM     24  C   UNL     1       3.421   6.696  17.514  0.00  0.00    +0.000 A 
ATOM     25  N   UNL     1       3.143   5.396  17.774  0.00  0.00    +0.000 NA
ATOM     26  C   UNL     1       3.958   4.448  17.245  0.00  0.00    +0.000 A 
ATOM     27  C   UNL     1       3.585   3.028  17.555  0.00  0.00    +0.000 C 
ENDBRANCH  15  24
ENDBRANCH   1  17
TORSDOF 3
ENDMDL
MODEL 7
REMARK VINA RESULT:      -8.3      5.294      7.870
REMARK  Name = 
REMARK  6 active torsions:
REMARK  status: ('A' for Active; 'I' for Inactive)
REMARK    1  A    between atoms: C_1  and  C_2
REMARK    2  A    between atoms: C_5  and  C_6
REMARK    3  A    between atoms: C_8  and  C_9
REMARK    4  A    between atoms: C_13  and  N_14
REMARK    5  A    between atoms: C_15  and  C_16
REMARK    6  A    between atoms: C_25  and  C_26
REMARK                            x       y       z     vdW  Elec       q    Type
REMARK                         _______ _______ _______ _____ _____    ______ ____
ROOT
ATOM      1  C   UNL     1       6.321   6.012  17.333  0.00  0.00    +0.000 A 
ATOM      2  C   UNL     1       6.464   5.553  16.017  0.00  0.00    +0.000 A 
ATOM      3  C   UNL     1       5.642   4.536  15.523  0.00  0.00    +0.000 A 
ATOM      4  C   UNL     1       4.654   3.980  16.336  0.00  0.00    +0.000 A 
ATOM      5  C   UNL     1       4.442   4.492  17.617  0.00  0.00    +0.000 A 
ATOM      6  C   UNL     1       5.283   5.493  18.116  0.00  0.00    +0.000 A 
ENDROOT
BRANCH   5   7
ATOM      7  N   UNL     1       3.354   4.056  18.390  0.00  0.00    +0.000 N 
ATOM      8  C   UNL     1       3.307   2.983  19.273  0.00  0.00    +0.000 A 
ATOM      9  C   UNL     1       4.503   2.217  19.716  0.00  0.00    +0.000 C 
ATOM     10  C   UNL     1       2.055   2.872  19.746  0.00  0.00    +0.000 A 
ATOM     11  N   UNL     1       1.279   3.850  19.187  0.00  0.00    +0.000 N 
ATOM     12  C   UNL     1       2.062   4.653  18.333  0.00  0.00    +0.000 A 
ATOM     13  O   UNL     1       1.662   5.609  17.692  0.00  0.00    +0.000 OA
ATOM     14  H   UNL     1       0.296   4.013  19.346  0.00  0.00    +0.000 HD
ENDBRANCH   5   7
BRANCH   1  17
ATOM     15  C   UNL     1       8.242   8.823  18.154  0.00  0.00    +0.000 A 
ATOM     16  N   UNL     1       7.269   8.298  17.441  0.00  0.00    +0.000 NA
ATOM     17  C   UNL     1       7.243   6.994  17.885  0.00  0.00    +0.000 A 
ATOM     18  N   UNL     1       8.153   6.719  18.831  0.00  0.00    +0.000 NA
ATOM     19  O   UNL     1       8.822   7.930  19.011  0.00  0.00    +0.000 OA
BRANCH  15  24
ATOM     20  C   UNL     1      10.179  14.177  18.516  0.00  0.00    +0.000 C 
ATOM     21  C   UNL     1       9.683  12.764  18.375  0.00  0.00    +0.000 A 
ATOM     22  C   UNL     1       8.568  12.491  17.580  0.00  0.00    +0.000 A 
ATOM     23  C   UNL     1       8.092  11.189  17.473  0.00  0.00    +0.000 A 
ATOM     24  C   UNL     1       8.747  10.186  18.177  0.00  0.00    +0.000 A 
ATOM     25  N   UNL     1       9.849  10.419  18.931  0.00  0.00    +0.000 NA
ATOM     26  C   UNL     1      10.308  11.693  19.019  0.00  0.00    +0.000 A 
ATOM     27  C   UNL     1      11.541  11.881  19.853  0.00  0.00    +0.000 C 
ENDBRANCH  15  24
ENDBRANCH   1  17
TORSDOF 3
ENDMDL
MODEL 8
REMARK VINA RESULT:      -8.3      2.239      2.718
REMARK  Name = 
REMARK  6 active torsions:
REMARK  status: ('A' for Active; 'I' for Inactive)
REMARK    1  A    between atoms: C_1  and  C_2
REMARK    2  A    between atoms: C_5  and  C_6
REMARK    3  A    between atoms: C_8  and  C_9
REMARK    4  A    between atoms: C_13  and  N_14
REMARK    5  A    between atoms: C_15  and  C_16
REMARK    6  A    between atoms: C_25  and  C_26
REMARK                            x       y       z     vdW  Elec       q    Type
REMARK                         _______ _______ _______ _____ _____    ______ ____
ROOT
ATOM      1  C   UNL     1       2.496   6.072  18.466  0.00  0.00    +0.000 A 
ATOM      2  C   UNL     1       1.658   4.956  18.351  0.00  0.00    +0.000 A 
ATOM      3  C   UNL     1       2.103   3.791  17.717  0.00  0.00    +0.000 A 
ATOM      4  C   UNL     1       3.399   3.727  17.206  0.00  0.00    +0.000 A 
ATOM      5  C   UNL     1       4.273   4.799  17.395  0.00  0.00    +0.000 A 
ATOM      6  C   UNL     1       3.816   5.971  18.009  0.00  0.00    +0.000 A 
ENDROOT
BRANCH   5   7
ATOM      7  N   UNL     1       5.624   4.693  17.030  0.00  0.00    +0.000 N 
ATOM      8  C   UNL     1       6.163   4.643  15.749  0.00  0.00    +0.000 A 
ATOM      9  C   UNL     1       5.387   4.911  14.508  0.00  0.00    +0.000 C 
ATOM     10  C   UNL     1       7.490   4.466  15.850  0.00  0.00    +0.000 A 
ATOM     11  N   UNL     1       7.832   4.394  17.173  0.00  0.00    +0.000 N 
ATOM     12  C   UNL     1       6.684   4.559  17.973  0.00  0.00    +0.000 A 
ATOM     13  O   UNL     1       6.659   4.551  19.191  0.00  0.00    +0.000 OA
ATOM     14  H   UNL     1       8.755   4.258  17.558  0.00  0.00    +0.000 HD
ENDBRANCH   5   7
BRANCH   1  17
ATOM     15  C   UNL     1       1.376   9.324  19.124  0.00  0.00    +0.000 A 
ATOM     16  N   UNL     1       1.764   8.428  18.243  0.00  0.00    +0.000 NA
ATOM     17  C   UNL     1       2.003   7.321  19.028  0.00  0.00    +0.000 A 
ATOM     18  N   UNL     1       1.773   7.516  20.334  0.00  0.00    +0.000 NA
ATOM     19  O   UNL     1       1.360   8.846  20.404  0.00  0.00    +0.000 OA
BRANCH  15  24
ATOM     20  C   UNL     1      -0.154  14.791  18.560  0.00  0.00    +0.000 C 
ATOM     21  C   UNL     1       0.228  13.340  18.667  0.00  0.00    +0.000 A 
ATOM     22  C   UNL     1      -0.752  12.377  18.914  0.00  0.00    +0.000 A 
ATOM     23  C   UNL     1      -0.395  11.039  19.042  0.00  0.00    +0.000 A 
ATOM     24  C   UNL     1       0.947  10.699  18.925  0.00  0.00    +0.000 A 
ATOM     25  N   UNL     1       1.914  11.610  18.655  0.00  0.00    +0.000 NA
ATOM     26  C   UNL     1       1.549  12.910  18.524  0.00  0.00    +0.000 A 
ATOM     27  C   UNL     1       2.663  13.866  18.207  0.00  0.00    +0.000 C 
ENDBRANCH  15  24
ENDBRANCH   1  17
TORSDOF 3
ENDMDL
MODEL 9
REMARK VINA RESULT:      -8.3      3.033      9.577
REMARK  Name = 
REMARK  6 active torsions:
REMARK  status: ('A' for Active; 'I' for Inactive)
REMARK    1  A    between atoms: C_1  and  C_2
REMARK    2  A    between atoms: C_5  and  C_6
REMARK    3  A    between atoms: C_8  and  C_9
REMARK    4  A    between atoms: C_13  and  N_14
REMARK    5  A    between atoms: C_15  and  C_16
REMARK    6  A    between atoms: C_25  and  C_26
REMARK                            x       y       z     vdW  Elec       q    Type
REMARK                         _______ _______ _______ _____ _____    ______ ____
ROOT
ATOM      1  C   UNL     1       0.669  10.549  18.691  0.00  0.00    +0.000 A 
ATOM      2  C   UNL     1       1.277  11.791  18.916  0.00  0.00    +0.000 A 
ATOM      3  C   UNL     1       0.560  12.978  18.739  0.00  0.00    +0.000 A 
ATOM      4  C   UNL     1      -0.779  12.935  18.350  0.00  0.00    +0.000 A 
ATOM      5  C   UNL     1      -1.420  11.703  18.210  0.00  0.00    +0.000 A 
ATOM      6  C   UNL     1      -0.693  10.516  18.366  0.00  0.00    +0.000 A 
ENDROOT
BRANCH   5   7
ATOM      7  N   UNL     1      -2.802  11.639  17.976  0.00  0.00    +0.000 N 
ATOM      8  C   UNL     1      -3.455  11.291  16.799  0.00  0.00    +0.000 A 
ATOM      9  C   UNL     1      -2.775  10.708  15.611  0.00  0.00    +0.000 C 
ATOM     10  C   UNL     1      -4.778  11.431  16.985  0.00  0.00    +0.000 A 
ATOM     11  N   UNL     1      -5.005  11.869  18.261  0.00  0.00    +0.000 N 
ATOM     12  C   UNL     1      -3.781  11.994  18.949  0.00  0.00    +0.000 A 
ATOM     13  O   UNL     1      -3.648  12.358  20.104  0.00  0.00    +0.000 OA
ATOM     14  H   UNL     1      -5.897  12.071  18.687  0.00  0.00    +0.000 HD
ENDBRANCH   5   7
BRANCH   1  17
ATOM     15  C   UNL     1       2.612   7.686  18.153  0.00  0.00    +0.000 A 
ATOM     16  N   UNL     1       2.084   8.790  17.672  0.00  0.00    +0.000 NA
ATOM     17  C   UNL     1       1.438   9.316  18.770  0.00  0.00    +0.000 A 
ATOM     18  N   UNL     1       1.560   8.578  19.882  0.00  0.00    +0.000 NA
ATOM     19  O   UNL     1       2.336   7.492  19.478  0.00  0.00    +0.000 OA
BRANCH  15  24
ATOM     20  C   UNL     1       5.972   3.700  15.835  0.00  0.00    +0.000 C 
ATOM     21  C   UNL     1       5.069   4.761  16.403  0.00  0.00    +0.000 A 
ATOM     22  C   UNL     1       5.319   6.107  16.135  0.00  0.00    +0.000 A 
ATOM     23  C   UNL     1       4.501   7.089  16.683  0.00  0.00    +0.000 A 
ATOM     24  C   UNL     1       3.449   6.693  17.499  0.00  0.00    +0.000 A 
ATOM     25  N   UNL     1       3.166   5.391  17.751  0.00  0.00    +0.000 NA
ATOM     26  C   UNL     1       3.967   4.444  17.202  0.00  0.00    +0.000 A 
ATOM     27  C   UNL     1       3.589   3.023  17.503  0.00  0.00    +0.000 C 
ENDBRANCH  15  24
ENDBRANCH   1  17
TORSDOF 3
ENDMDL
