MODEL 1
REMARK VINA RESULT:      -9.3      0.000      0.000
REMARK  Name = 
REMARK  7 active torsions:
REMARK  status: ('A' for Active; 'I' for Inactive)
REMARK    1  A    between atoms: C_1  and  C_2
REMARK    2  A    between atoms: C_6  and  C_7
REMARK    3  A    between atoms: N_13  and  C_14
REMARK    4  A    between atoms: C_18  and  C_19
REMARK    5  A    between atoms: C_19  and  C_20
REMARK    6  A    between atoms: C_20  and  C_21
REMARK    7  A    between atoms: N_25  and  C_26
REMARK                            x       y       z     vdW  Elec       q    Type
REMARK                         _______ _______ _______ _____ _____    ______ ____
ROOT
ATOM      1  C   UNL     1       3.038   6.347  19.448  0.00  0.00    +0.000 A 
ATOM      2  C   UNL     1       2.671   5.080  19.914  0.00  0.00    +0.000 A 
ATOM      3  C   UNL     1       3.519   3.981  19.782  0.00  0.00    +0.000 A 
ATOM      4  C   UNL     1       4.784   4.139  19.215  0.00  0.00    +0.000 A 
ATOM      5  C   UNL     1       5.240   5.392  18.775  0.00  0.00    +0.000 A 
ATOM      6  C   UNL     1       4.318   6.452  18.858  0.00  0.00    +0.000 A 
ENDROOT
BRANCH   1  15
ATOM      7  C   UNL     1      -0.673  12.718  18.641  0.00  0.00    +0.000 C 
ATOM      8  C   UNL     1      -0.156  11.448  19.254  0.00  0.00    +0.000 A 
ATOM      9  C   UNL     1       0.647  10.586  18.506  0.00  0.00    +0.000 A 
ATOM     10  C   UNL     1       1.116   9.427  19.103  0.00  0.00    +0.000 A 
ATOM     11  C   UNL     1       0.805   9.098  20.427  0.00  0.00    +0.000 A 
ATOM     12  C   UNL     1       0.015   9.946  21.202  0.00  0.00    +0.000 A 
ATOM     13  C   UNL     1      -0.463  11.127  20.592  0.00  0.00    +0.000 A 
ATOM     14  C   UNL     1       1.442   7.781  20.784  0.00  0.00    +0.000 C 
ATOM     15  N   UNL     1       2.206   7.438  19.571  0.00  0.00    +0.000 N 
ATOM     16  C   UNL     1       2.010   8.402  18.487  0.00  0.00    +0.000 C 
BRANCH  12  17
ATOM     17  C   UNL     1      -0.331   9.665  22.641  0.00  0.00    +0.000 C 
ATOM     18  F   UNL     1       0.749   9.558  23.463  0.00  0.00    +0.000 F 
ATOM     19  F   UNL     1      -1.114  10.638  23.186  0.00  0.00    +0.000 F 
ATOM     20  F   UNL     1      -1.027   8.503  22.792  0.00  0.00    +0.000 F 
ENDBRANCH  12  17
ENDBRANCH   1  15
BRANCH   5  21
ATOM     21  C   UNL     1       6.761   5.614  18.304  0.00  0.00    +0.000 C 
ATOM     22  C   UNL     1       7.753   5.912  19.472  0.00  0.00    +0.000 C 
ATOM     23  O   UNL     1       8.397   6.953  18.699  0.00  0.00    +0.000 OA
ATOM     24  C   UNL     1       7.216   7.034  17.851  0.00  0.00    +0.000 C 
BRANCH  21  25
ATOM     25  C   UNL     1       7.285   4.483  17.403  0.00  0.00    +0.000 C 
BRANCH  25  26
ATOM     26  C   UNL     1       6.940   4.635  15.960  0.00  0.00    +0.000 A 
ATOM     27  N   UNL     1       7.672   5.238  15.043  0.00  0.00    +0.000 NA
ATOM     28  N   UNL     1       7.058   5.079  13.823  0.00  0.00    +0.000 NA
ATOM     29  C   UNL     1       5.964   4.383  14.019  0.00  0.00    +0.000 A 
ATOM     30  N   UNL     1       5.838   4.097  15.344  0.00  0.00    +0.000 N 
ATOM     31  C   UNL     1       4.762   3.354  15.940  0.00  0.00    +0.000 C 
ENDBRANCH  25  26
ENDBRANCH  21  25
ENDBRANCH   5  21
TORSDOF 5
ENDMDL
MODEL 2
REMARK VINA RESULT:      -9.2      1.653      2.612
REMARK  Name = 
REMARK  7 active torsions:
REMARK  status: ('A' for Active; 'I' for Inactive)
REMARK    1  A    between atoms: C_1  and  C_2
REMARK    2  A    between atoms: C_6  and  C_7
REMARK    3  A    between atoms: N_13  and  C_14
REMARK    4  A    between atoms: C_18  and  C_19
REMARK    5  A    between atoms: C_19  and  C_20
REMARK    6  A    between atoms: C_20  and  C_21
REMARK    7  A    between atoms: N_25  and  C_26
REMARK                            x       y       z     vdW  Elec       q    Type
REMARK                         _______ _______ _______ _____ _____    ______ ____
ROOT
ATOM      1  C   UNL     1       2.981   6.032  19.060  0.00  0.00    +0.000 A 
ATOM      2  C   UNL     1       2.936   4.993  19.995  0.00  0.00    +0.000 A 
ATOM      3  C   UNL     1       3.631   3.801  19.793  0.00  0.00    +0.000 A 
ATOM      4  C   UNL     1       4.429   3.641  18.660  0.00  0.00    +0.000 A 
ATOM      5  C   UNL     1       4.563   4.662  17.706  0.00  0.00    +0.000 A 
ATOM      6  C   UNL     1       3.780   5.814  17.916  0.00  0.00    +0.000 A 
ENDROOT
BRANCH   1  15
ATOM      7  C   UNL     1       0.120  12.862  18.635  0.00  0.00    +0.000 C 
ATOM      8  C   UNL     1       0.469  11.504  19.173  0.00  0.00    +0.000 A 
ATOM      9  C   UNL     1       1.155  10.590  18.372  0.00  0.00    +0.000 A 
ATOM     10  C   UNL     1       1.471   9.348  18.900  0.00  0.00    +0.000 A 
ATOM     11  C   UNL     1       1.119   8.988  20.206  0.00  0.00    +0.000 A 
ATOM     12  C   UNL     1       0.444   9.885  21.032  0.00  0.00    +0.000 A 
ATOM     13  C   UNL     1       0.122  11.150  20.493  0.00  0.00    +0.000 A 
ATOM     14  C   UNL     1       1.581   7.582  20.484  0.00  0.00    +0.000 C 
ATOM     15  N   UNL     1       2.296   7.212  19.250  0.00  0.00    +0.000 N 
ATOM     16  C   UNL     1       2.226   8.253  18.222  0.00  0.00    +0.000 C 
BRANCH  12  17
ATOM     17  C   UNL     1       0.063   9.571  22.455  0.00  0.00    +0.000 C 
ATOM     18  F   UNL     1       1.117   9.251  23.256  0.00  0.00    +0.000 F 
ATOM     19  F   UNL     1      -0.563  10.615  23.069  0.00  0.00    +0.000 F 
ATOM     20  F   UNL     1      -0.799   8.520  22.544  0.00  0.00    +0.000 F 
ENDBRANCH  12  17
ENDBRANCH   1  15
BRANCH   5  21
ATOM     21  C   UNL     1       5.629   4.557  16.507  0.00  0.00    +0.000 C 
ATOM     22  C   UNL     1       5.364   5.546  15.329  0.00  0.00    +0.000 C 
ATOM     23  O   UNL     1       5.645   4.511  14.357  0.00  0.00    +0.000 OA
ATOM     24  C   UNL     1       5.401   3.504  15.381  0.00  0.00    +0.000 C 
BRANCH  21  25
ATOM     25  C   UNL     1       7.087   4.640  16.988  0.00  0.00    +0.000 C 
BRANCH  25  26
ATOM     26  C   UNL     1       7.531   6.009  17.380  0.00  0.00    +0.000 A 
ATOM     27  N   UNL     1       7.597   7.063  16.589  0.00  0.00    +0.000 NA
ATOM     28  N   UNL     1       7.957   8.152  17.347  0.00  0.00    +0.000 NA
ATOM     29  C   UNL     1       8.104   7.742  18.585  0.00  0.00    +0.000 A 
ATOM     30  N   UNL     1       7.865   6.403  18.651  0.00  0.00    +0.000 N 
ATOM     31  C   UNL     1       7.933   5.601  19.841  0.00  0.00    +0.000 C 
ENDBRANCH  25  26
ENDBRANCH  21  25
ENDBRANCH   5  21
TORSDOF 5
ENDMDL
MODEL 3
REMARK VINA RESULT:      -9.1      4.341      9.031
REMARK  Name = 
REMARK  7 active torsions:
REMARK  status: ('A' for Active; 'I' for Inactive)
REMARK    1  A    between atoms: C_1  and  C_2
REMARK    2  A    between atoms: C_6  and  C_7
REMARK    3  A    between atoms: N_13  and  C_14
REMARK    4  A    between atoms: C_18  and  C_19
REMARK    5  A    between atoms: C_19  and  C_20
REMARK    6  A    between atoms: C_20  and  C_21
REMARK    7  A    between atoms: N_25  and  C_26
REMARK                            x       y       z     vdW  Elec       q    Type
REMARK                         _______ _______ _______ _____ _____    ______ ____
ROOT
ATOM      1  C   UNL     1       1.803   7.953  19.703  0.00  0.00    +0.000 A 
ATOM      2  C   UNL     1       1.423   7.634  21.011  0.00  0.00    +0.000 A 
ATOM      3  C   UNL     1       0.635   8.497  21.771  0.00  0.00    +0.000 A 
ATOM      4  C   UNL     1       0.167   9.689  21.216  0.00  0.00    +0.000 A 
ATOM      5  C   UNL     1       0.465  10.047  19.891  0.00  0.00    +0.000 A 
ATOM      6  C   UNL     1       1.328   9.181  19.193  0.00  0.00    +0.000 A 
ENDROOT
BRANCH   1  15
ATOM      7  C   UNL     1       6.294   4.836  14.690  0.00  0.00    +0.000 C 
ATOM      8  C   UNL     1       5.325   4.979  15.828  0.00  0.00    +0.000 A 
ATOM      9  C   UNL     1       4.956   6.247  16.279  0.00  0.00    +0.000 A 
ATOM     10  C   UNL     1       4.053   6.345  17.325  0.00  0.00    +0.000 A 
ATOM     11  C   UNL     1       3.506   5.213  17.940  0.00  0.00    +0.000 A 
ATOM     12  C   UNL     1       3.848   3.934  17.503  0.00  0.00    +0.000 A 
ATOM     13  C   UNL     1       4.769   3.835  16.437  0.00  0.00    +0.000 A 
ATOM     14  C   UNL     1       2.577   5.638  19.046  0.00  0.00    +0.000 C 
ATOM     15  N   UNL     1       2.584   7.108  18.945  0.00  0.00    +0.000 N 
ATOM     16  C   UNL     1       3.510   7.600  17.923  0.00  0.00    +0.000 C 
BRANCH  12  17
ATOM     17  C   UNL     1       3.273   2.677  18.102  0.00  0.00    +0.000 C 
ATOM     18  F   UNL     1       1.920   2.574  17.990  0.00  0.00    +0.000 F 
ATOM     19  F   UNL     1       3.777   1.549  17.525  0.00  0.00    +0.000 F 
ATOM     20  F   UNL     1       3.542   2.563  19.432  0.00  0.00    +0.000 F 
ENDBRANCH  12  17
ENDBRANCH   1  15
BRANCH   5  21
ATOM     21  C   UNL     1      -0.229  11.316  19.189  0.00  0.00    +0.000 C 
ATOM     22  C   UNL     1      -1.499  11.840  19.930  0.00  0.00    +0.000 C 
ATOM     23  O   UNL     1      -2.202  12.002  18.674  0.00  0.00    +0.000 OA
ATOM     24  C   UNL     1      -1.265  11.079  18.048  0.00  0.00    +0.000 C 
BRANCH  21  25
ATOM     25  C   UNL     1       0.758  12.458  18.897  0.00  0.00    +0.000 C 
BRANCH  25  26
ATOM     26  C   UNL     1       0.973  13.394  20.038  0.00  0.00    +0.000 A 
ATOM     27  N   UNL     1       1.665  13.143  21.133  0.00  0.00    +0.000 NA
ATOM     28  N   UNL     1       1.708  14.288  21.892  0.00  0.00    +0.000 NA
ATOM     29  C   UNL     1       1.041  15.216  21.247  0.00  0.00    +0.000 A 
ATOM     30  N   UNL     1       0.547  14.698  20.089  0.00  0.00    +0.000 N 
ATOM     31  C   UNL     1      -0.240  15.413  19.123  0.00  0.00    +0.000 C 
ENDBRANCH  25  26
ENDBRANCH  21  25
ENDBRANCH   5  21
TORSDOF 5
ENDMDL
MODEL 4
REMARK VINA RESULT:      -8.8      1.092      1.305
REMARK  Name = 
REMARK  7 active torsions:
REMARK  status: ('A' for Active; 'I' for Inactive)
REMARK    1  A    between atoms: C_1  and  C_2
REMARK    2  A    between atoms: C_6  and  C_7
REMARK    3  A    between atoms: N_13  and  C_14
REMARK    4  A    between atoms: C_18  and  C_19
REMARK    5  A    between atoms: C_19  and  C_20
REMARK    6  A    between atoms: C_20  and  C_21
REMARK    7  A    between atoms: N_25  and  C_26
REMARK                            x       y       z     vdW  Elec       q    Type
REMARK                         _______ _______ _______ _____ _____    ______ ____
ROOT
ATOM      1  C   UNL     1       2.629   6.762  18.322  0.00  0.00    +0.000 A 
ATOM      2  C   UNL     1       1.959   5.543  18.177  0.00  0.00    +0.000 A 
ATOM      3  C   UNL     1       2.614   4.403  17.712  0.00  0.00    +0.000 A 
ATOM      4  C   UNL     1       3.979   4.449  17.424  0.00  0.00    +0.000 A 
ATOM      5  C   UNL     1       4.726   5.625  17.598  0.00  0.00    +0.000 A 
ATOM      6  C   UNL     1       4.003   6.767  17.993  0.00  0.00    +0.000 A 
ENDROOT
BRANCH   1  15
ATOM      7  C   UNL     1      -0.081  13.584  19.380  0.00  0.00    +0.000 C 
ATOM      8  C   UNL     1       0.272  12.147  19.631  0.00  0.00    +0.000 A 
ATOM      9  C   UNL     1       0.874  11.388  18.625  0.00  0.00    +0.000 A 
ATOM     10  C   UNL     1       1.196  10.067  18.891  0.00  0.00    +0.000 A 
ATOM     11  C   UNL     1       0.933   9.475  20.131  0.00  0.00    +0.000 A 
ATOM     12  C   UNL     1       0.343  10.212  21.157  0.00  0.00    +0.000 A 
ATOM     13  C   UNL     1       0.014  11.559  20.886  0.00  0.00    +0.000 A 
ATOM     14  C   UNL     1       1.378   8.037  20.110  0.00  0.00    +0.000 C 
ATOM     15  N   UNL     1       1.990   7.894  18.777  0.00  0.00    +0.000 N 
ATOM     16  C   UNL     1       1.871   9.108  17.967  0.00  0.00    +0.000 C 
BRANCH  12  17
ATOM     17  C   UNL     1       0.060   9.644  22.524  0.00  0.00    +0.000 C 
ATOM     18  F   UNL     1      -0.563  10.509  23.370  0.00  0.00    +0.000 F 
ATOM     19  F   UNL     1      -0.737   8.539  22.473  0.00  0.00    +0.000 F 
ATOM     20  F   UNL     1       1.194   9.250  23.169  0.00  0.00    +0.000 F 
ENDBRANCH  12  17
ENDBRANCH   1  15
BRANCH   5  21
ATOM     21  C   UNL     1       6.327   5.631  17.455  0.00  0.00    +0.000 C 
ATOM     22  C   UNL     1       7.089   5.701  18.816  0.00  0.00    +0.000 C 
ATOM     23  O   UNL     1       8.021   6.670  18.278  0.00  0.00    +0.000 OA
ATOM     24  C   UNL     1       7.064   6.986  17.227  0.00  0.00    +0.000 C 
BRANCH  21  25
ATOM     25  C   UNL     1       6.859   4.486  16.577  0.00  0.00    +0.000 C 
BRANCH  25  26
ATOM     26  C   UNL     1       7.149   4.874  15.166  0.00  0.00    +0.000 A 
ATOM     27  N   UNL     1       8.147   5.633  14.756  0.00  0.00    +0.000 NA
ATOM     28  N   UNL     1       8.126   5.673  13.382  0.00  0.00    +0.000 NA
ATOM     29  C   UNL     1       7.116   4.938  12.980  0.00  0.00    +0.000 A 
ATOM     30  N   UNL     1       6.464   4.432  14.063  0.00  0.00    +0.000 N 
ATOM     31  C   UNL     1       5.305   3.584  14.018  0.00  0.00    +0.000 C 
ENDBRANCH  25  26
ENDBRANCH  21  25
ENDBRANCH   5  21
TORSDOF 5
ENDMDL
MODEL 5
REMARK VINA RESULT:      -8.8      4.319      8.708
REMARK  Name = 
REMARK  7 active torsions:
REMARK  status: ('A' for Active; 'I' for Inactive)
REMARK    1  A    between atoms: C_1  and  C_2
REMARK    2  A    between atoms: C_6  and  C_7
REMARK    3  A    between atoms: N_13  and  C_14
REMARK    4  A    between atoms: C_18  and  C_19
REMARK    5  A    between atoms: C_19  and  C_20
REMARK    6  A    between atoms: C_20  and  C_21
REMARK    7  A    between atoms: N_25  and  C_26
REMARK                            x       y       z     vdW  Elec       q    Type
REMARK                         _______ _______ _______ _____ _____    ______ ____
ROOT
ATOM      1  C   UNL     1       1.592   8.351  19.555  0.00  0.00    +0.000 A 
ATOM      2  C   UNL     1       1.379   8.211  20.930  0.00  0.00    +0.000 A 
ATOM      3  C   UNL     1       0.566   9.098  21.636  0.00  0.00    +0.000 A 
ATOM      4  C   UNL     1      -0.094  10.126  20.963  0.00  0.00    +0.000 A 
ATOM      5  C   UNL     1       0.030  10.293  19.575  0.00  0.00    +0.000 A 
ATOM      6  C   UNL     1       0.924   9.423  18.922  0.00  0.00    +0.000 A 
ENDROOT
BRANCH   1  15
ATOM      7  C   UNL     1       6.257   5.080  14.807  0.00  0.00    +0.000 C 
ATOM      8  C   UNL     1       5.243   5.257  15.900  0.00  0.00    +0.000 A 
ATOM      9  C   UNL     1       4.868   6.539  16.306  0.00  0.00    +0.000 A 
ATOM     10  C   UNL     1       3.923   6.669  17.310  0.00  0.00    +0.000 A 
ATOM     11  C   UNL     1       3.341   5.556  17.929  0.00  0.00    +0.000 A 
ATOM     12  C   UNL     1       3.689   4.265  17.537  0.00  0.00    +0.000 A 
ATOM     13  C   UNL     1       4.652   4.133  16.512  0.00  0.00    +0.000 A 
ATOM     14  C   UNL     1       2.371   6.015  18.985  0.00  0.00    +0.000 C 
ATOM     15  N   UNL     1       2.396   7.482  18.850  0.00  0.00    +0.000 N 
ATOM     16  C   UNL     1       3.367   7.942  17.856  0.00  0.00    +0.000 C 
BRANCH  12  17
ATOM     17  C   UNL     1       3.078   3.027  18.140  0.00  0.00    +0.000 C 
ATOM     18  F   UNL     1       3.258   2.915  19.485  0.00  0.00    +0.000 F 
ATOM     19  F   UNL     1       1.731   2.962  17.942  0.00  0.00    +0.000 F 
ATOM     20  F   UNL     1       3.585   1.881  17.604  0.00  0.00    +0.000 F 
ENDBRANCH  12  17
ENDBRANCH   1  15
BRANCH   5  21
ATOM     21  C   UNL     1      -0.878  11.350  18.771  0.00  0.00    +0.000 C 
ATOM     22  C   UNL     1      -2.258  11.642  19.438  0.00  0.00    +0.000 C 
ATOM     23  O   UNL     1      -2.924  11.584  18.154  0.00  0.00    +0.000 OA
ATOM     24  C   UNL     1      -1.793  10.841  17.617  0.00  0.00    +0.000 C 
BRANCH  21  25
ATOM     25  C   UNL     1      -0.133  12.653  18.438  0.00  0.00    +0.000 C 
BRANCH  25  26
ATOM     26  C   UNL     1       0.780  13.136  19.514  0.00  0.00    +0.000 A 
ATOM     27  N   UNL     1       0.425  13.499  20.732  0.00  0.00    +0.000 NA
ATOM     28  N   UNL     1       1.564  13.784  21.449  0.00  0.00    +0.000 NA
ATOM     29  C   UNL     1       2.590  13.590  20.655  0.00  0.00    +0.000 A 
ATOM     30  N   UNL     1       2.148  13.201  19.428  0.00  0.00    +0.000 N 
ATOM     31  C   UNL     1       2.981  12.901  18.296  0.00  0.00    +0.000 C 
ENDBRANCH  25  26
ENDBRANCH  21  25
ENDBRANCH   5  21
TORSDOF 5
ENDMDL
MODEL 6
REMARK VINA RESULT:      -8.8      1.907      2.939
REMARK  Name = 
REMARK  7 active torsions:
REMARK  status: ('A' for Active; 'I' for Inactive)
REMARK    1  A    between atoms: C_1  and  C_2
REMARK    2  A    between atoms: C_6  and  C_7
REMARK    3  A    between atoms: N_13  and  C_14
REMARK    4  A    between atoms: C_18  and  C_19
REMARK    5  A    between atoms: C_19  and  C_20
REMARK    6  A    between atoms: C_20  and  C_21
REMARK    7  A    between atoms: N_25  and  C_26
REMARK                            x       y       z     vdW  Elec       q    Type
REMARK                         _______ _______ _______ _____ _____    ______ ____
ROOT
ATOM      1  C   UNL     1       2.935   6.113  18.462  0.00  0.00    +0.000 A 
ATOM      2  C   UNL     1       2.720   4.963  19.229  0.00  0.00    +0.000 A 
ATOM      3  C   UNL     1       3.325   3.749  18.906  0.00  0.00    +0.000 A 
ATOM      4  C   UNL     1       4.202   3.671  17.824  0.00  0.00    +0.000 A 
ATOM      5  C   UNL     1       4.505   4.798  17.042  0.00  0.00    +0.000 A 
ATOM      6  C   UNL     1       3.809   5.979  17.361  0.00  0.00    +0.000 A 
ENDROOT
BRANCH   1  15
ATOM      7  C   UNL     1       0.561  13.136  18.709  0.00  0.00    +0.000 C 
ATOM      8  C   UNL     1       0.823  11.714  19.116  0.00  0.00    +0.000 A 
ATOM      9  C   UNL     1       1.426  10.829  18.222  0.00  0.00    +0.000 A 
ATOM     10  C   UNL     1       1.663   9.527  18.631  0.00  0.00    +0.000 A 
ATOM     11  C   UNL     1       1.311   9.077  19.909  0.00  0.00    +0.000 A 
ATOM     12  C   UNL     1       0.717   9.941  20.827  0.00  0.00    +0.000 A 
ATOM     13  C   UNL     1       0.476  11.269  20.409  0.00  0.00    +0.000 A 
ATOM     14  C   UNL     1       1.676   7.623  20.051  0.00  0.00    +0.000 C 
ATOM     15  N   UNL     1       2.339   7.316  18.771  0.00  0.00    +0.000 N 
ATOM     16  C   UNL     1       2.324   8.447  17.841  0.00  0.00    +0.000 C 
BRANCH  12  17
ATOM     17  C   UNL     1       0.342   9.528  22.226  0.00  0.00    +0.000 C 
ATOM     18  F   UNL     1       1.375   9.020  22.953  0.00  0.00    +0.000 F 
ATOM     19  F   UNL     1      -0.150  10.567  22.960  0.00  0.00    +0.000 F 
ATOM     20  F   UNL     1      -0.628   8.572  22.244  0.00  0.00    +0.000 F 
ENDBRANCH  12  17
ENDBRANCH   1  15
BRANCH   5  21
ATOM     21  C   UNL     1       5.659   4.757  15.923  0.00  0.00    +0.000 C 
ATOM     22  C   UNL     1       5.128   4.843  14.457  0.00  0.00    +0.000 C 
ATOM     23  O   UNL     1       6.045   3.806  14.033  0.00  0.00    +0.000 OA
ATOM     24  C   UNL     1       6.178   3.377  15.418  0.00  0.00    +0.000 C 
BRANCH  21  25
ATOM     25  C   UNL     1       6.777   5.782  16.172  0.00  0.00    +0.000 C 
BRANCH  25  26
ATOM     26  C   UNL     1       7.320   5.778  17.561  0.00  0.00    +0.000 A 
ATOM     27  N   UNL     1       7.507   4.716  18.322  0.00  0.00    +0.000 NA
ATOM     28  N   UNL     1       8.112   5.119  19.489  0.00  0.00    +0.000 NA
ATOM     29  C   UNL     1       8.282   6.418  19.419  0.00  0.00    +0.000 A 
ATOM     30  N   UNL     1       7.785   6.877  18.238  0.00  0.00    +0.000 N 
ATOM     31  C   UNL     1       7.788   8.249  17.808  0.00  0.00    +0.000 C 
ENDBRANCH  25  26
ENDBRANCH  21  25
ENDBRANCH   5  21
TORSDOF 5
ENDMDL
MODEL 7
REMARK VINA RESULT:      -8.7      4.401      8.701
REMARK  Name = 
REMARK  7 active torsions:
REMARK  status: ('A' for Active; 'I' for Inactive)
REMARK    1  A    between atoms: C_1  and  C_2
REMARK    2  A    between atoms: C_6  and  C_7
REMARK    3  A    between atoms: N_13  and  C_14
REMARK    4  A    between atoms: C_18  and  C_19
REMARK    5  A    between atoms: C_19  and  C_20
REMARK    6  A    between atoms: C_20  and  C_21
REMARK    7  A    between atoms: N_25  and  C_26
REMARK                            x       y       z     vdW  Elec       q    Type
REMARK                         _______ _______ _______ _____ _____    ______ ____
ROOT
ATOM      1  C   UNL     1       1.648   8.107  19.780  0.00  0.00    +0.000 A 
ATOM      2  C   UNL     1       1.631   8.034  21.177  0.00  0.00    +0.000 A 
ATOM      3  C   UNL     1       0.830   8.883  21.941  0.00  0.00    +0.000 A 
ATOM      4  C   UNL     1      -0.013   9.802  21.313  0.00  0.00    +0.000 A 
ATOM      5  C   UNL     1      -0.086   9.893  19.914  0.00  0.00    +0.000 A 
ATOM      6  C   UNL     1       0.799   9.070  19.191  0.00  0.00    +0.000 A 
ENDROOT
BRANCH   1  15
ATOM      7  C   UNL     1       6.182   5.071  14.757  0.00  0.00    +0.000 C 
ATOM      8  C   UNL     1       5.207   5.195  15.892  0.00  0.00    +0.000 A 
ATOM      9  C   UNL     1       4.828   6.457  16.354  0.00  0.00    +0.000 A 
ATOM     10  C   UNL     1       3.919   6.538  17.396  0.00  0.00    +0.000 A 
ATOM     11  C   UNL     1       3.376   5.397  17.997  0.00  0.00    +0.000 A 
ATOM     12  C   UNL     1       3.727   4.124  17.548  0.00  0.00    +0.000 A 
ATOM     13  C   UNL     1       4.654   4.042  16.486  0.00  0.00    +0.000 A 
ATOM     14  C   UNL     1       2.438   5.804  19.102  0.00  0.00    +0.000 C 
ATOM     15  N   UNL     1       2.438   7.275  19.018  0.00  0.00    +0.000 N 
ATOM     16  C   UNL     1       3.366   7.784  18.005  0.00  0.00    +0.000 C 
BRANCH  12  17
ATOM     17  C   UNL     1       3.156   2.858  18.130  0.00  0.00    +0.000 C 
ATOM     18  F   UNL     1       3.292   2.754  19.481  0.00  0.00    +0.000 F 
ATOM     19  F   UNL     1       1.822   2.727  17.883  0.00  0.00    +0.000 F 
ATOM     20  F   UNL     1       3.738   1.739  17.614  0.00  0.00    +0.000 F 
ENDBRANCH  12  17
ENDBRANCH   1  15
BRANCH   5  21
ATOM     21  C   UNL     1      -1.192  10.808  19.189  0.00  0.00    +0.000 C 
ATOM     22  C   UNL     1      -0.611  11.779  18.114  0.00  0.00    +0.000 C 
ATOM     23  O   UNL     1      -1.455  12.856  18.588  0.00  0.00    +0.000 OA
ATOM     24  C   UNL     1      -1.618  12.152  19.852  0.00  0.00    +0.000 C 
BRANCH  21  25
ATOM     25  C   UNL     1      -2.372   9.997  18.629  0.00  0.00    +0.000 C 
BRANCH  25  26
ATOM     26  C   UNL     1      -2.698  10.286  17.202  0.00  0.00    +0.000 A 
ATOM     27  N   UNL     1      -2.076   9.797  16.146  0.00  0.00    +0.000 NA
ATOM     28  N   UNL     1      -2.735  10.224  15.018  0.00  0.00    +0.000 NA
ATOM     29  C   UNL     1      -3.745  10.966  15.406  0.00  0.00    +0.000 A 
ATOM     30  N   UNL     1      -3.752  11.048  16.765  0.00  0.00    +0.000 N 
ATOM     31  C   UNL     1      -4.706  11.778  17.553  0.00  0.00    +0.000 C 
ENDBRANCH  25  26
ENDBRANCH  21  25
ENDBRANCH   5  21
TORSDOF 5
ENDMDL
MODEL 8
REMARK VINA RESULT:      -8.7      4.367      8.579
REMARK  Name = 
REMARK  7 active torsions:
REMARK  status: ('A' for Active; 'I' for Inactive)
REMARK    1  A    between atoms: C_1  and  C_2
REMARK    2  A    between atoms: C_6  and  C_7
REMARK    3  A    between atoms: N_13  and  C_14
REMARK    4  A    between atoms: C_18  and  C_19
REMARK    5  A    between atoms: C_19  and  C_20
REMARK    6  A    between atoms: C_20  and  C_21
REMARK    7  A    between atoms: N_25  and  C_26
REMARK                            x       y       z     vdW  Elec       q    Type
REMARK                         _______ _______ _______ _____ _____    ______ ____
ROOT
ATOM      1  C   UNL     1       0.752   8.991  20.771  0.00  0.00    +0.000 A 
ATOM      2  C   UNL     1       0.515   9.135  22.142  0.00  0.00    +0.000 A 
ATOM      3  C   UNL     1      -0.189  10.228  22.648  0.00  0.00    +0.000 A 
ATOM      4  C   UNL     1      -0.714  11.185  21.778  0.00  0.00    +0.000 A 
ATOM      5  C   UNL     1      -0.559  11.075  20.387  0.00  0.00    +0.000 A 
ATOM      6  C   UNL     1       0.225   9.998  19.933  0.00  0.00    +0.000 A 
ENDROOT
BRANCH   1  15
ATOM      7  C   UNL     1       4.660   4.227  16.641  0.00  0.00    +0.000 C 
ATOM      8  C   UNL     1       3.829   4.776  17.766  0.00  0.00    +0.000 A 
ATOM      9  C   UNL     1       3.501   6.133  17.796  0.00  0.00    +0.000 A 
ATOM     10  C   UNL     1       2.726   6.606  18.842  0.00  0.00    +0.000 A 
ATOM     11  C   UNL     1       2.268   5.766  19.864  0.00  0.00    +0.000 A 
ATOM     12  C   UNL     1       2.571   4.406  19.853  0.00  0.00    +0.000 A 
ATOM     13  C   UNL     1       3.362   3.924  18.787  0.00  0.00    +0.000 A 
ATOM     14  C   UNL     1       1.470   6.568  20.858  0.00  0.00    +0.000 C 
ATOM     15  N   UNL     1       1.449   7.916  20.263  0.00  0.00    +0.000 N 
ATOM     16  C   UNL     1       2.242   8.005  19.035  0.00  0.00    +0.000 C 
BRANCH  12  17
ATOM     17  C   UNL     1       2.085   3.444  20.906  0.00  0.00    +0.000 C 
ATOM     18  F   UNL     1       2.448   3.776  22.175  0.00  0.00    +0.000 F 
ATOM     19  F   UNL     1       0.725   3.340  20.927  0.00  0.00    +0.000 F 
ATOM     20  F   UNL     1       2.548   2.178  20.708  0.00  0.00    +0.000 F 
ENDBRANCH  12  17
ENDBRANCH   1  15
BRANCH   5  21
ATOM     21  C   UNL     1      -1.325  12.064  19.377  0.00  0.00    +0.000 C 
ATOM     22  C   UNL     1      -2.873  12.103  19.573  0.00  0.00    +0.000 C 
ATOM     23  O   UNL     1      -3.085  12.068  18.141  0.00  0.00    +0.000 OA
ATOM     24  C   UNL     1      -1.740  11.538  17.969  0.00  0.00    +0.000 C 
BRANCH  21  25
ATOM     25  C   UNL     1      -0.729  13.481  19.354  0.00  0.00    +0.000 C 
BRANCH  25  26
ATOM     26  C   UNL     1       0.760  13.524  19.283  0.00  0.00    +0.000 A 
ATOM     27  N   UNL     1       1.501  13.212  18.236  0.00  0.00    +0.000 NA
ATOM     28  N   UNL     1       2.815  13.475  18.541  0.00  0.00    +0.000 NA
ATOM     29  C   UNL     1       2.852  13.941  19.767  0.00  0.00    +0.000 A 
ATOM     30  N   UNL     1       1.591  13.973  20.279  0.00  0.00    +0.000 N 
ATOM     31  C   UNL     1       1.237  14.420  21.598  0.00  0.00    +0.000 C 
ENDBRANCH  25  26
ENDBRANCH  21  25
ENDBRANCH   5  21
TORSDOF 5
ENDMDL
MODEL 9
REMARK VINA RESULT:      -8.6      2.484      3.709
REMARK  Name = 
REMARK  7 active torsions:
REMARK  status: ('A' for Active; 'I' for Inactive)
REMARK    1  A    between atoms: C_1  and  C_2
REMARK    2  A    between atoms: C_6  and  C_7
REMARK    3  A    between atoms: N_13  and  C_14
REMARK    4  A    between atoms: C_18  and  C_19
REMARK    5  A    between atoms: C_19  and  C_20
REMARK    6  A    between atoms: C_20  and  C_21
REMARK    7  A    between atoms: N_25  and  C_26
REMARK                            x       y       z     vdW  Elec       q    Type
REMARK                         _______ _______ _______ _____ _____    ______ ____
ROOT
ATOM      1  C   UNL     1       2.842   5.282  18.637  0.00  0.00    +0.000 A 
ATOM      2  C   UNL     1       2.393   3.992  18.933  0.00  0.00    +0.000 A 
ATOM      3  C   UNL     1       2.925   2.871  18.296  0.00  0.00    +0.000 A 
ATOM      4  C   UNL     1       3.960   3.018  17.373  0.00  0.00    +0.000 A 
ATOM      5  C   UNL     1       4.497   4.278  17.066  0.00  0.00    +0.000 A 
ATOM      6  C   UNL     1       3.873   5.383  17.676  0.00  0.00    +0.000 A 
ENDROOT
BRANCH   1  15
ATOM      7  C   UNL     1      -0.450  10.127  23.187  0.00  0.00    +0.000 C 
ATOM      8  C   UNL     1       0.220   9.558  21.970  0.00  0.00    +0.000 A 
ATOM      9  C   UNL     1       0.701   8.247  21.983  0.00  0.00    +0.000 A 
ATOM     10  C   UNL     1       1.305   7.749  20.841  0.00  0.00    +0.000 A 
ATOM     11  C   UNL     1       1.450   8.520  19.682  0.00  0.00    +0.000 A 
ATOM     12  C   UNL     1       0.970   9.828  19.636  0.00  0.00    +0.000 A 
ATOM     13  C   UNL     1       0.353  10.336  20.802  0.00  0.00    +0.000 A 
ATOM     14  C   UNL     1       2.155   7.715  18.623  0.00  0.00    +0.000 C 
ATOM     15  N   UNL     1       2.321   6.396  19.258  0.00  0.00    +0.000 N 
ATOM     16  C   UNL     1       1.848   6.372  20.644  0.00  0.00    +0.000 C 
BRANCH  12  17
ATOM     17  C   UNL     1       1.066  10.700  18.412  0.00  0.00    +0.000 C 
ATOM     18  F   UNL     1       2.312  10.758  17.865  0.00  0.00    +0.000 F 
ATOM     19  F   UNL     1       0.243  10.281  17.409  0.00  0.00    +0.000 F 
ATOM     20  F   UNL     1       0.713  11.992  18.663  0.00  0.00    +0.000 F 
ENDBRANCH  12  17
ENDBRANCH   1  15
BRANCH   5  21
ATOM     21  C   UNL     1       5.813   4.432  16.155  0.00  0.00    +0.000 C 
ATOM     22  C   UNL     1       5.731   5.584  15.105  0.00  0.00    +0.000 C 
ATOM     23  O   UNL     1       6.322   4.739  14.088  0.00  0.00    +0.000 OA
ATOM     24  C   UNL     1       5.949   3.566  14.867  0.00  0.00    +0.000 C 
BRANCH  21  25
ATOM     25  C   UNL     1       7.109   4.519  16.978  0.00  0.00    +0.000 C 
BRANCH  25  26
ATOM     26  C   UNL     1       7.512   5.907  17.350  0.00  0.00    +0.000 A 
ATOM     27  N   UNL     1       7.556   6.949  16.541  0.00  0.00    +0.000 NA
ATOM     28  N   UNL     1       7.879   8.060  17.283  0.00  0.00    +0.000 NA
ATOM     29  C   UNL     1       8.027   7.675  18.528  0.00  0.00    +0.000 A 
ATOM     30  N   UNL     1       7.825   6.332  18.616  0.00  0.00    +0.000 N 
ATOM     31  C   UNL     1       7.906   5.552  19.820  0.00  0.00    +0.000 C 
ENDBRANCH  25  26
ENDBRANCH  21  25
ENDBRANCH   5  21
TORSDOF 5
ENDMDL
