MODEL 1
REMARK VINA RESULT:      -8.4      0.000      0.000
REMARK  Name = 
REMARK  5 active torsions:
REMARK  status: ('A' for Active; 'I' for Inactive)
REMARK    1  A    between atoms: C_2  and  C_3
REMARK    2  A    between atoms: C_3  and  N_4
REMARK    3  A    between atoms: N_9  and  C_10
REMARK    4  A    between atoms: C_10  and  C_11
REMARK    5  A    between atoms: N_19  and  C_20
REMARK                            x       y       z     vdW  Elec       q    Type
REMARK                         _______ _______ _______ _____ _____    ______ ____
ROOT
ATOM      1  O   UNL     1      -1.800  10.078  16.900  0.00  0.00    +0.000 OA
ATOM      2  C   UNL     1      -1.782  10.823  17.880  0.00  0.00    +0.000 C 
ATOM      3  N   UNL     1      -2.908  11.393  18.481  0.00  0.00    +0.000 N 
ATOM      4  H   UNL     1      -2.792  11.771  19.417  0.00  0.00    +0.000 HD
ENDROOT
BRANCH   3   5
ATOM      5  C   UNL     1      -4.251  11.133  18.073  0.00  0.00    +0.000 A 
ATOM      6  C   UNL     1      -4.883   9.925  18.368  0.00  0.00    +0.000 A 
ATOM      7  C   UNL     1      -6.231   9.943  18.717  0.00  0.00    +0.000 A 
ATOM      8  C   UNL     1      -6.906  11.141  18.586  0.00  0.00    +0.000 A 
ATOM      9  C   UNL     1      -6.436  12.030  17.601  0.00  0.00    +0.000 A 
ATOM     10  C   UNL     1      -5.040  12.163  17.542  0.00  0.00    +0.000 A 
ATOM     11  C   UNL     1      -7.397  13.207  17.586  0.00  0.00    +0.000 C 
ATOM     12  C   UNL     1      -7.453  13.382  19.083  0.00  0.00    +0.000 A 
ATOM     13  C   UNL     1      -7.114  14.565  19.723  0.00  0.00    +0.000 A 
ATOM     14  C   UNL     1      -6.621  14.476  21.017  0.00  0.00    +0.000 A 
ATOM     15  C   UNL     1      -6.564  13.233  21.676  0.00  0.00    +0.000 A 
ATOM     16  C   UNL     1      -6.919  12.034  21.025  0.00  0.00    +0.000 A 
ATOM     17  C   UNL     1      -7.300  12.094  19.687  0.00  0.00    +0.000 A 
ENDBRANCH   3   5
BRANCH   2  18
ATOM     18  C   UNL     1      -0.440  11.148  18.551  0.00  0.00    +0.000 C 
BRANCH  18  19
ATOM     19  N   UNL     1       0.011  10.115  19.480  0.00  0.00    +0.000 N 
ATOM     20  C   UNL     1      -0.351  10.251  20.807  0.00  0.00    +0.000 A 
ATOM     21  O   UNL     1      -1.053  11.160  21.244  0.00  0.00    +0.000 OA
ATOM     22  C   UNL     1       0.165   9.241  21.747  0.00  0.00    +0.000 A 
ATOM     23  C   UNL     1       1.039   8.339  21.307  0.00  0.00    +0.000 A 
ATOM     24  N   UNL     1       1.456   8.297  19.997  0.00  0.00    +0.000 N 
ATOM     25  C   UNL     1       0.958   9.188  19.029  0.00  0.00    +0.000 A 
ATOM     26  O   UNL     1       1.366   9.176  17.870  0.00  0.00    +0.000 OA
BRANCH  24  27
ATOM     27  C   UNL     1       2.544   7.394  19.622  0.00  0.00    +0.000 C 
BRANCH  27  28
ATOM     28  C   UNL     1       2.044   5.978  19.390  0.00  0.00    +0.000 A 
ATOM     29  C   UNL     1       1.629   5.173  20.460  0.00  0.00    +0.000 A 
ATOM     30  C   UNL     1       1.233   3.852  20.237  0.00  0.00    +0.000 A 
ATOM     31  C   UNL     1       1.252   3.318  18.945  0.00  0.00    +0.000 A 
ATOM     32  C   UNL     1       1.651   4.119  17.877  0.00  0.00    +0.000 A 
ATOM     33  C   UNL     1       2.048   5.431  18.095  0.00  0.00    +0.000 A 
ENDBRANCH  27  28
ENDBRANCH  24  27
ENDBRANCH  18  19
ENDBRANCH   2  18
TORSDOF 5
ENDMDL
MODEL 2
REMARK VINA RESULT:      -8.3      3.011     10.365
REMARK  Name = 
REMARK  5 active torsions:
REMARK  status: ('A' for Active; 'I' for Inactive)
REMARK    1  A    between atoms: C_2  and  C_3
REMARK    2  A    between atoms: C_3  and  N_4
REMARK    3  A    between atoms: N_9  and  C_10
REMARK    4  A    between atoms: C_10  and  C_11
REMARK    5  A    between atoms: N_19  and  C_20
REMARK                            x       y       z     vdW  Elec       q    Type
REMARK                         _______ _______ _______ _____ _____    ______ ____
ROOT
ATOM      1  O   UNL     1       1.433   8.414  20.079  0.00  0.00    +0.000 OA
ATOM      2  C   UNL     1       1.704   8.593  18.892  0.00  0.00    +0.000 C 
ATOM      3  N   UNL     1       2.259   7.635  18.037  0.00  0.00    +0.000 N 
ATOM      4  H   UNL     1       2.197   7.814  17.039  0.00  0.00    +0.000 HD
ENDROOT
BRANCH   3   5
ATOM      5  C   UNL     1       2.529   6.286  18.417  0.00  0.00    +0.000 A 
ATOM      6  C   UNL     1       1.766   5.224  17.933  0.00  0.00    +0.000 A 
ATOM      7  C   UNL     1       2.407   4.029  17.614  0.00  0.00    +0.000 A 
ATOM      8  C   UNL     1       3.740   3.913  17.955  0.00  0.00    +0.000 A 
ATOM      9  C   UNL     1       4.179   4.655  19.068  0.00  0.00    +0.000 A 
ATOM     10  C   UNL     1       3.698   5.973  19.127  0.00  0.00    +0.000 A 
ATOM     11  C   UNL     1       5.633   4.278  19.296  0.00  0.00    +0.000 C 
ATOM     12  C   UNL     1       6.051   4.384  17.851  0.00  0.00    +0.000 A 
ATOM     13  C   UNL     1       7.065   5.224  17.414  0.00  0.00    +0.000 A 
ATOM     14  C   UNL     1       6.983   5.707  16.116  0.00  0.00    +0.000 A 
ATOM     15  C   UNL     1       5.954   5.276  15.256  0.00  0.00    +0.000 A 
ATOM     16  C   UNL     1       4.931   4.414  15.701  0.00  0.00    +0.000 A 
ATOM     17  C   UNL     1       4.933   4.018  17.036  0.00  0.00    +0.000 A 
ENDBRANCH   3   5
BRANCH   2  18
ATOM     18  C   UNL     1       1.388   9.949  18.245  0.00  0.00    +0.000 C 
BRANCH  18  19
ATOM     19  N   UNL     1       0.165  10.564  18.755  0.00  0.00    +0.000 N 
ATOM     20  C   UNL     1      -1.006  10.320  18.062  0.00  0.00    +0.000 A 
ATOM     21  O   UNL     1      -1.088   9.595  17.074  0.00  0.00    +0.000 OA
ATOM     22  C   UNL     1      -2.222  10.999  18.544  0.00  0.00    +0.000 A 
ATOM     23  C   UNL     1      -2.113  11.896  19.522  0.00  0.00    +0.000 A 
ATOM     24  N   UNL     1      -0.910  12.189  20.121  0.00  0.00    +0.000 N 
ATOM     25  C   UNL     1       0.281  11.534  19.758  0.00  0.00    +0.000 A 
ATOM     26  O   UNL     1       1.361  11.830  20.264  0.00  0.00    +0.000 OA
BRANCH  24  27
ATOM     27  C   UNL     1      -0.835  13.303  21.065  0.00  0.00    +0.000 C 
BRANCH  27  28
ATOM     28  C   UNL     1      -2.001  13.295  22.039  0.00  0.00    +0.000 A 
ATOM     29  C   UNL     1      -2.179  12.241  22.946  0.00  0.00    +0.000 A 
ATOM     30  C   UNL     1      -3.292  12.217  23.791  0.00  0.00    +0.000 A 
ATOM     31  C   UNL     1      -4.241  13.241  23.736  0.00  0.00    +0.000 A 
ATOM     32  C   UNL     1      -4.061  14.297  22.846  0.00  0.00    +0.000 A 
ATOM     33  C   UNL     1      -2.959  14.323  22.003  0.00  0.00    +0.000 A 
ENDBRANCH  27  28
ENDBRANCH  24  27
ENDBRANCH  18  19
ENDBRANCH   2  18
TORSDOF 5
ENDMDL
MODEL 3
REMARK VINA RESULT:      -8.3      2.388     10.208
REMARK  Name = 
REMARK  5 active torsions:
REMARK  status: ('A' for Active; 'I' for Inactive)
REMARK    1  A    between atoms: C_2  and  C_3
REMARK    2  A    between atoms: C_3  and  N_4
REMARK    3  A    between atoms: N_9  and  C_10
REMARK    4  A    between atoms: C_10  and  C_11
REMARK    5  A    between atoms: N_19  and  C_20
REMARK                            x       y       z     vdW  Elec       q    Type
REMARK                         _______ _______ _______ _____ _____    ______ ____
ROOT
ATOM      1  O   UNL     1       1.382   8.646  20.021  0.00  0.00    +0.000 OA
ATOM      2  C   UNL     1       1.678   8.805  18.838  0.00  0.00    +0.000 C 
ATOM      3  N   UNL     1       2.241   7.831  18.008  0.00  0.00    +0.000 N 
ATOM      4  H   UNL     1       2.201   7.996  17.006  0.00  0.00    +0.000 HD
ENDROOT
BRANCH   3   5
ATOM      5  C   UNL     1       2.489   6.484  18.411  0.00  0.00    +0.000 A 
ATOM      6  C   UNL     1       1.724   5.423  17.928  0.00  0.00    +0.000 A 
ATOM      7  C   UNL     1       2.358   4.217  17.637  0.00  0.00    +0.000 A 
ATOM      8  C   UNL     1       3.683   4.092  18.005  0.00  0.00    +0.000 A 
ATOM      9  C   UNL     1       4.109   4.845  19.116  0.00  0.00    +0.000 A 
ATOM     10  C   UNL     1       3.641   6.168  19.147  0.00  0.00    +0.000 A 
ATOM     11  C   UNL     1       5.554   4.455  19.377  0.00  0.00    +0.000 C 
ATOM     12  C   UNL     1       6.000   4.537  17.939  0.00  0.00    +0.000 A 
ATOM     13  C   UNL     1       7.031   5.360  17.510  0.00  0.00    +0.000 A 
ATOM     14  C   UNL     1       6.979   5.826  16.203  0.00  0.00    +0.000 A 
ATOM     15  C   UNL     1       5.962   5.393  15.331  0.00  0.00    +0.000 A 
ATOM     16  C   UNL     1       4.922   4.549  15.768  0.00  0.00    +0.000 A 
ATOM     17  C   UNL     1       4.893   4.172  17.108  0.00  0.00    +0.000 A 
ENDBRANCH   3   5
BRANCH   2  18
ATOM     18  C   UNL     1       1.390  10.156  18.167  0.00  0.00    +0.000 C 
BRANCH  18  19
ATOM     19  N   UNL     1       0.061  10.683  18.470  0.00  0.00    +0.000 N 
ATOM     20  C   UNL     1      -0.051  11.547  19.542  0.00  0.00    +0.000 A 
ATOM     21  O   UNL     1       0.895  11.927  20.228  0.00  0.00    +0.000 OA
ATOM     22  C   UNL     1      -1.405  12.019  19.880  0.00  0.00    +0.000 A 
ATOM     23  C   UNL     1      -2.447  11.501  19.234  0.00  0.00    +0.000 A 
ATOM     24  N   UNL     1      -2.303  10.563  18.238  0.00  0.00    +0.000 N 
ATOM     25  C   UNL     1      -1.039  10.114  17.817  0.00  0.00    +0.000 A 
ATOM     26  O   UNL     1      -0.916   9.243  16.958  0.00  0.00    +0.000 OA
BRANCH  24  27
ATOM     27  C   UNL     1      -3.494   9.913  17.691  0.00  0.00    +0.000 C 
BRANCH  27  28
ATOM     28  C   UNL     1      -4.715  10.813  17.777  0.00  0.00    +0.000 A 
ATOM     29  C   UNL     1      -5.757  10.535  18.674  0.00  0.00    +0.000 A 
ATOM     30  C   UNL     1      -6.902  11.335  18.695  0.00  0.00    +0.000 A 
ATOM     31  C   UNL     1      -7.023  12.417  17.820  0.00  0.00    +0.000 A 
ATOM     32  C   UNL     1      -5.985  12.705  16.937  0.00  0.00    +0.000 A 
ATOM     33  C   UNL     1      -4.847  11.910  16.909  0.00  0.00    +0.000 A 
ENDBRANCH  27  28
ENDBRANCH  24  27
ENDBRANCH  18  19
ENDBRANCH   2  18
TORSDOF 5
ENDMDL
MODEL 4
REMARK VINA RESULT:      -8.2      8.018     11.396
REMARK  Name = 
REMARK  5 active torsions:
REMARK  status: ('A' for Active; 'I' for Inactive)
REMARK    1  A    between atoms: C_2  and  C_3
REMARK    2  A    between atoms: C_3  and  N_4
REMARK    3  A    between atoms: N_9  and  C_10
REMARK    4  A    between atoms: C_10  and  C_11
REMARK    5  A    between atoms: N_19  and  C_20
REMARK                            x       y       z     vdW  Elec       q    Type
REMARK                         _______ _______ _______ _____ _____    ______ ____
ROOT
ATOM      1  O   UNL     1       8.344   7.483  18.601  0.00  0.00    +0.000 OA
ATOM      2  C   UNL     1       7.835   8.357  17.901  0.00  0.00    +0.000 C 
ATOM      3  N   UNL     1       8.202   9.706  17.900  0.00  0.00    +0.000 N 
ATOM      4  H   UNL     1       7.897  10.269  17.111  0.00  0.00    +0.000 HD
ENDROOT
BRANCH   3   5
ATOM      5  C   UNL     1       9.275  10.243  18.674  0.00  0.00    +0.000 A 
ATOM      6  C   UNL     1      10.485  10.614  18.089  0.00  0.00    +0.000 A 
ATOM      7  C   UNL     1      11.130  11.759  18.551  0.00  0.00    +0.000 A 
ATOM      8  C   UNL     1      10.614  12.367  19.679  0.00  0.00    +0.000 A 
ATOM      9  C   UNL     1       9.938  11.539  20.595  0.00  0.00    +0.000 A 
ATOM     10  C   UNL     1       9.067  10.602  20.014  0.00  0.00    +0.000 A 
ATOM     11  C   UNL     1       9.566  12.414  21.779  0.00  0.00    +0.000 C 
ATOM     12  C   UNL     1       9.038  13.567  20.962  0.00  0.00    +0.000 A 
ATOM     13  C   UNL     1       7.746  14.057  21.087  0.00  0.00    +0.000 A 
ATOM     14  C   UNL     1       7.172  14.644  19.968  0.00  0.00    +0.000 A 
ATOM     15  C   UNL     1       7.920  14.814  18.787  0.00  0.00    +0.000 A 
ATOM     16  C   UNL     1       9.236  14.323  18.668  0.00  0.00    +0.000 A 
ATOM     17  C   UNL     1       9.782  13.624  19.741  0.00  0.00    +0.000 A 
ENDBRANCH   3   5
BRANCH   2  18
ATOM     18  C   UNL     1       6.730   7.974  16.907  0.00  0.00    +0.000 C 
BRANCH  18  19
ATOM     19  N   UNL     1       5.988   6.777  17.296  0.00  0.00    +0.000 N 
ATOM     20  C   UNL     1       6.581   5.553  17.050  0.00  0.00    +0.000 A 
ATOM     21  O   UNL     1       7.699   5.410  16.562  0.00  0.00    +0.000 OA
ATOM     22  C   UNL     1       5.796   4.352  17.384  0.00  0.00    +0.000 A 
ATOM     23  C   UNL     1       4.533   4.497  17.778  0.00  0.00    +0.000 A 
ATOM     24  N   UNL     1       3.942   5.732  17.914  0.00  0.00    +0.000 N 
ATOM     25  C   UNL     1       4.648   6.924  17.675  0.00  0.00    +0.000 A 
ATOM     26  O   UNL     1       4.105   8.024  17.754  0.00  0.00    +0.000 OA
BRANCH  24  27
ATOM     27  C   UNL     1       2.507   5.812  18.182  0.00  0.00    +0.000 C 
BRANCH  27  28
ATOM     28  C   UNL     1       2.064   4.767  19.193  0.00  0.00    +0.000 A 
ATOM     29  C   UNL     1       2.488   4.827  20.528  0.00  0.00    +0.000 A 
ATOM     30  C   UNL     1       2.124   3.824  21.430  0.00  0.00    +0.000 A 
ATOM     31  C   UNL     1       1.339   2.748  21.008  0.00  0.00    +0.000 A 
ATOM     32  C   UNL     1       0.904   2.691  19.686  0.00  0.00    +0.000 A 
ATOM     33  C   UNL     1       1.266   3.684  18.786  0.00  0.00    +0.000 A 
ENDBRANCH  27  28
ENDBRANCH  24  27
ENDBRANCH  18  19
ENDBRANCH   2  18
TORSDOF 5
ENDMDL
MODEL 5
REMARK VINA RESULT:      -8.2      3.123      8.343
REMARK  Name = 
REMARK  5 active torsions:
REMARK  status: ('A' for Active; 'I' for Inactive)
REMARK    1  A    between atoms: C_2  and  C_3
REMARK    2  A    between atoms: C_3  and  N_4
REMARK    3  A    between atoms: N_9  and  C_10
REMARK    4  A    between atoms: C_10  and  C_11
REMARK    5  A    between atoms: N_19  and  C_20
REMARK                            x       y       z     vdW  Elec       q    Type
REMARK                         _______ _______ _______ _____ _____    ______ ____
ROOT
ATOM      1  O   UNL     1      -3.815   9.754  17.748  0.00  0.00    +0.000 OA
ATOM      2  C   UNL     1      -4.091  10.932  17.971  0.00  0.00    +0.000 C 
ATOM      3  N   UNL     1      -3.162  11.942  18.240  0.00  0.00    +0.000 N 
ATOM      4  H   UNL     1      -3.484  12.902  18.153  0.00  0.00    +0.000 HD
ENDROOT
BRANCH   3   5
ATOM      5  C   UNL     1      -1.747  11.752  18.226  0.00  0.00    +0.000 A 
ATOM      6  C   UNL     1      -0.870  12.810  17.995  0.00  0.00    +0.000 A 
ATOM      7  C   UNL     1       0.321  12.863  18.716  0.00  0.00    +0.000 A 
ATOM      8  C   UNL     1       0.638  11.770  19.499  0.00  0.00    +0.000 A 
ATOM      9  C   UNL     1       0.140  10.522  19.080  0.00  0.00    +0.000 A 
ATOM     10  C   UNL     1      -1.196  10.533  18.647  0.00  0.00    +0.000 A 
ATOM     11  C   UNL     1       0.709   9.485  20.033  0.00  0.00    +0.000 C 
ATOM     12  C   UNL     1       0.415  10.256  21.296  0.00  0.00    +0.000 A 
ATOM     13  C   UNL     1      -0.367   9.755  22.326  0.00  0.00    +0.000 A 
ATOM     14  C   UNL     1      -1.060  10.669  23.107  0.00  0.00    +0.000 A 
ATOM     15  C   UNL     1      -0.892  12.053  22.908  0.00  0.00    +0.000 A 
ATOM     16  C   UNL     1      -0.088  12.557  21.866  0.00  0.00    +0.000 A 
ATOM     17  C   UNL     1       0.518  11.652  20.998  0.00  0.00    +0.000 A 
ENDBRANCH   3   5
BRANCH   2  18
ATOM     18  C   UNL     1      -5.558  11.381  17.925  0.00  0.00    +0.000 C 
BRANCH  18  19
ATOM     19  N   UNL     1      -6.196  11.417  19.239  0.00  0.00    +0.000 N 
ATOM     20  C   UNL     1      -7.077  10.398  19.547  0.00  0.00    +0.000 A 
ATOM     21  O   UNL     1      -7.327   9.451  18.806  0.00  0.00    +0.000 OA
ATOM     22  C   UNL     1      -7.766  10.480  20.847  0.00  0.00    +0.000 A 
ATOM     23  C   UNL     1      -7.609  11.573  21.590  0.00  0.00    +0.000 A 
ATOM     24  N   UNL     1      -6.801  12.617  21.202  0.00  0.00    +0.000 N 
ATOM     25  C   UNL     1      -6.062  12.581  20.006  0.00  0.00    +0.000 A 
ATOM     26  O   UNL     1      -5.377  13.533  19.641  0.00  0.00    +0.000 OA
BRANCH  24  27
ATOM     27  C   UNL     1      -6.810  13.855  21.981  0.00  0.00    +0.000 C 
BRANCH  27  28
ATOM     28  C   UNL     1      -5.587  13.964  22.877  0.00  0.00    +0.000 A 
ATOM     29  C   UNL     1      -5.183  12.890  23.683  0.00  0.00    +0.000 A 
ATOM     30  C   UNL     1      -4.095  13.029  24.549  0.00  0.00    +0.000 A 
ATOM     31  C   UNL     1      -3.402  14.240  24.623  0.00  0.00    +0.000 A 
ATOM     32  C   UNL     1      -3.791  15.304  23.814  0.00  0.00    +0.000 A 
ATOM     33  C   UNL     1      -4.874  15.173  22.956  0.00  0.00    +0.000 A 
ENDBRANCH  27  28
ENDBRANCH  24  27
ENDBRANCH  18  19
ENDBRANCH   2  18
TORSDOF 5
ENDMDL
MODEL 6
REMARK VINA RESULT:      -8.2      3.654     10.635
REMARK  Name = 
REMARK  5 active torsions:
REMARK  status: ('A' for Active; 'I' for Inactive)
REMARK    1  A    between atoms: C_2  and  C_3
REMARK    2  A    between atoms: C_3  and  N_4
REMARK    3  A    between atoms: N_9  and  C_10
REMARK    4  A    between atoms: C_10  and  C_11
REMARK    5  A    between atoms: N_19  and  C_20
REMARK                            x       y       z     vdW  Elec       q    Type
REMARK                         _______ _______ _______ _____ _____    ______ ____
ROOT
ATOM      1  O   UNL     1       1.455   8.649  19.830  0.00  0.00    +0.000 OA
ATOM      2  C   UNL     1       1.774   8.768  18.648  0.00  0.00    +0.000 C 
ATOM      3  N   UNL     1       2.348   7.765  17.861  0.00  0.00    +0.000 N 
ATOM      4  H   UNL     1       2.327   7.898  16.853  0.00  0.00    +0.000 HD
ENDROOT
BRANCH   3   5
ATOM      5  C   UNL     1       2.584   6.432  18.312  0.00  0.00    +0.000 A 
ATOM      6  C   UNL     1       1.790   5.366  17.888  0.00  0.00    +0.000 A 
ATOM      7  C   UNL     1       2.398   4.139  17.632  0.00  0.00    +0.000 A 
ATOM      8  C   UNL     1       3.729   4.005  17.976  0.00  0.00    +0.000 A 
ATOM      9  C   UNL     1       4.192   4.795  19.046  0.00  0.00    +0.000 A 
ATOM     10  C   UNL     1       3.746   6.126  19.034  0.00  0.00    +0.000 A 
ATOM     11  C   UNL     1       5.636   4.391  19.290  0.00  0.00    +0.000 C 
ATOM     12  C   UNL     1       6.051   4.409  17.841  0.00  0.00    +0.000 A 
ATOM     13  C   UNL     1       7.085   5.196  17.356  0.00  0.00    +0.000 A 
ATOM     14  C   UNL     1       7.011   5.610  16.034  0.00  0.00    +0.000 A 
ATOM     15  C   UNL     1       5.968   5.161  15.202  0.00  0.00    +0.000 A 
ATOM     16  C   UNL     1       4.924   4.352  15.695  0.00  0.00    +0.000 A 
ATOM     17  C   UNL     1       4.920   4.029  17.050  0.00  0.00    +0.000 A 
ENDBRANCH   3   5
BRANCH   2  18
ATOM     18  C   UNL     1       1.503  10.097  17.928  0.00  0.00    +0.000 C 
BRANCH  18  19
ATOM     19  N   UNL     1       0.501  10.925  18.595  0.00  0.00    +0.000 N 
ATOM     20  C   UNL     1      -0.823  10.713  18.262  0.00  0.00    +0.000 A 
ATOM     21  O   UNL     1      -1.211   9.854  17.474  0.00  0.00    +0.000 OA
ATOM     22  C   UNL     1      -1.820  11.598  18.890  0.00  0.00    +0.000 A 
ATOM     23  C   UNL     1      -1.397  12.620  19.631  0.00  0.00    +0.000 A 
ATOM     24  N   UNL     1      -0.062  12.861  19.857  0.00  0.00    +0.000 N 
ATOM     25  C   UNL     1       0.943  12.022  19.345  0.00  0.00    +0.000 A 
ATOM     26  O   UNL     1       2.136  12.266  19.512  0.00  0.00    +0.000 OA
BRANCH  24  27
ATOM     27  C   UNL     1       0.336  14.095  20.534  0.00  0.00    +0.000 C 
BRANCH  27  28
ATOM     28  C   UNL     1       0.469  15.254  19.560  0.00  0.00    +0.000 A 
ATOM     29  C   UNL     1       1.727  15.671  19.101  0.00  0.00    +0.000 A 
ATOM     30  C   UNL     1       1.837  16.778  18.256  0.00  0.00    +0.000 A 
ATOM     31  C   UNL     1       0.696  17.483  17.864  0.00  0.00    +0.000 A 
ATOM     32  C   UNL     1      -0.556  17.063  18.306  0.00  0.00    +0.000 A 
ATOM     33  C   UNL     1      -0.670  15.966  19.149  0.00  0.00    +0.000 A 
ENDBRANCH  27  28
ENDBRANCH  24  27
ENDBRANCH  18  19
ENDBRANCH   2  18
TORSDOF 5
ENDMDL
MODEL 7
REMARK VINA RESULT:      -8.1      2.734      9.555
REMARK  Name = 
REMARK  5 active torsions:
REMARK  status: ('A' for Active; 'I' for Inactive)
REMARK    1  A    between atoms: C_2  and  C_3
REMARK    2  A    between atoms: C_3  and  N_4
REMARK    3  A    between atoms: N_9  and  C_10
REMARK    4  A    between atoms: C_10  and  C_11
REMARK    5  A    between atoms: N_19  and  C_20
REMARK                            x       y       z     vdW  Elec       q    Type
REMARK                         _______ _______ _______ _____ _____    ______ ____
ROOT
ATOM      1  O   UNL     1       0.171   7.643  21.238  0.00  0.00    +0.000 OA
ATOM      2  C   UNL     1       1.309   8.111  21.203  0.00  0.00    +0.000 C 
ATOM      3  N   UNL     1       2.404   7.525  20.563  0.00  0.00    +0.000 N 
ATOM      4  H   UNL     1       3.210   8.118  20.385  0.00  0.00    +0.000 HD
ENDROOT
BRANCH   3   5
ATOM      5  C   UNL     1       2.334   6.320  19.800  0.00  0.00    +0.000 A 
ATOM      6  C   UNL     1       1.563   6.233  18.641  0.00  0.00    +0.000 A 
ATOM      7  C   UNL     1       2.058   5.507  17.560  0.00  0.00    +0.000 A 
ATOM      8  C   UNL     1       3.211   4.775  17.762  0.00  0.00    +0.000 A 
ATOM      9  C   UNL     1       3.452   4.315  19.070  0.00  0.00    +0.000 A 
ATOM     10  C   UNL     1       3.200   5.254  20.083  0.00  0.00    +0.000 A 
ATOM     11  C   UNL     1       4.707   3.461  19.006  0.00  0.00    +0.000 C 
ATOM     12  C   UNL     1       5.510   4.425  18.169  0.00  0.00    +0.000 A 
ATOM     13  C   UNL     1       6.729   4.949  18.573  0.00  0.00    +0.000 A 
ATOM     14  C   UNL     1       7.081   6.202  18.092  0.00  0.00    +0.000 A 
ATOM     15  C   UNL     1       6.264   6.862  17.154  0.00  0.00    +0.000 A 
ATOM     16  C   UNL     1       5.030   6.321  16.738  0.00  0.00    +0.000 A 
ATOM     17  C   UNL     1       4.607   5.123  17.305  0.00  0.00    +0.000 A 
ENDBRANCH   3   5
BRANCH   2  18
ATOM     18  C   UNL     1       1.583   9.467  21.870  0.00  0.00    +0.000 C 
BRANCH  18  19
ATOM     19  N   UNL     1       0.507  10.436  21.679  0.00  0.00    +0.000 N 
ATOM     20  C   UNL     1      -0.441  10.542  22.679  0.00  0.00    +0.000 A 
ATOM     21  O   UNL     1      -0.414   9.903  23.729  0.00  0.00    +0.000 OA
ATOM     22  C   UNL     1      -1.558  11.473  22.446  0.00  0.00    +0.000 A 
ATOM     23  C   UNL     1      -1.669  12.059  21.256  0.00  0.00    +0.000 A 
ATOM     24  N   UNL     1      -0.760  11.850  20.245  0.00  0.00    +0.000 N 
ATOM     25  C   UNL     1       0.366  11.026  20.416  0.00  0.00    +0.000 A 
ATOM     26  O   UNL     1       1.152  10.806  19.497  0.00  0.00    +0.000 OA
BRANCH  24  27
ATOM     27  C   UNL     1      -1.036  12.388  18.914  0.00  0.00    +0.000 C 
BRANCH  27  28
ATOM     28  C   UNL     1      -2.019  11.518  18.148  0.00  0.00    +0.000 A 
ATOM     29  C   UNL     1      -1.572  10.469  17.331  0.00  0.00    +0.000 A 
ATOM     30  C   UNL     1      -2.484   9.719  16.584  0.00  0.00    +0.000 A 
ATOM     31  C   UNL     1      -3.849  10.009  16.640  0.00  0.00    +0.000 A 
ATOM     32  C   UNL     1      -4.299  11.041  17.461  0.00  0.00    +0.000 A 
ATOM     33  C   UNL     1      -3.396  11.791  18.201  0.00  0.00    +0.000 A 
ENDBRANCH  27  28
ENDBRANCH  24  27
ENDBRANCH  18  19
ENDBRANCH   2  18
TORSDOF 5
ENDMDL
MODEL 8
REMARK VINA RESULT:      -8.0      1.845      9.693
REMARK  Name = 
REMARK  5 active torsions:
REMARK  status: ('A' for Active; 'I' for Inactive)
REMARK    1  A    between atoms: C_2  and  C_3
REMARK    2  A    between atoms: C_3  and  N_4
REMARK    3  A    between atoms: N_9  and  C_10
REMARK    4  A    between atoms: C_10  and  C_11
REMARK    5  A    between atoms: N_19  and  C_20
REMARK                            x       y       z     vdW  Elec       q    Type
REMARK                         _______ _______ _______ _____ _____    ______ ____
ROOT
ATOM      1  O   UNL     1       1.863   9.124  17.494  0.00  0.00    +0.000 OA
ATOM      2  C   UNL     1       1.786   8.806  18.680  0.00  0.00    +0.000 C 
ATOM      3  N   UNL     1       2.250   7.606  19.226  0.00  0.00    +0.000 N 
ATOM      4  H   UNL     1       2.362   7.568  20.235  0.00  0.00    +0.000 HD
ENDROOT
BRANCH   3   5
ATOM      5  C   UNL     1       2.942   6.604  18.482  0.00  0.00    +0.000 A 
ATOM      6  C   UNL     1       4.329   6.473  18.547  0.00  0.00    +0.000 A 
ATOM      7  C   UNL     1       4.882   5.194  18.546  0.00  0.00    +0.000 A 
ATOM      8  C   UNL     1       4.028   4.133  18.311  0.00  0.00    +0.000 A 
ATOM      9  C   UNL     1       2.892   4.394  17.522  0.00  0.00    +0.000 A 
ATOM     10  C   UNL     1       2.227   5.594  17.822  0.00  0.00    +0.000 A 
ATOM     11  C   UNL     1       2.185   3.064  17.327  0.00  0.00    +0.000 C 
ATOM     12  C   UNL     1       2.268   2.629  18.768  0.00  0.00    +0.000 A 
ATOM     13  C   UNL     1       1.154   2.314  19.532  0.00  0.00    +0.000 A 
ATOM     14  C   UNL     1       1.237   2.517  20.902  0.00  0.00    +0.000 A 
ATOM     15  C   UNL     1       2.446   2.938  21.490  0.00  0.00    +0.000 A 
ATOM     16  C   UNL     1       3.579   3.246  20.711  0.00  0.00    +0.000 A 
ATOM     17  C   UNL     1       3.473   3.164  19.325  0.00  0.00    +0.000 A 
ENDBRANCH   3   5
BRANCH   2  18
ATOM     18  C   UNL     1       1.172   9.793  19.684  0.00  0.00    +0.000 C 
BRANCH  18  19
ATOM     19  N   UNL     1       0.471  10.906  19.048  0.00  0.00    +0.000 N 
ATOM     20  C   UNL     1       1.102  12.136  19.043  0.00  0.00    +0.000 A 
ATOM     21  O   UNL     1       2.223  12.341  19.503  0.00  0.00    +0.000 OA
ATOM     22  C   UNL     1       0.359  13.266  18.460  0.00  0.00    +0.000 A 
ATOM     23  C   UNL     1      -0.907  13.082  18.091  0.00  0.00    +0.000 A 
ATOM     24  N   UNL     1      -1.537  11.865  18.206  0.00  0.00    +0.000 N 
ATOM     25  C   UNL     1      -0.871  10.726  18.693  0.00  0.00    +0.000 A 
ATOM     26  O   UNL     1      -1.450   9.651  18.836  0.00  0.00    +0.000 OA
BRANCH  24  27
ATOM     27  C   UNL     1      -2.973  11.777  17.945  0.00  0.00    +0.000 C 
BRANCH  27  28
ATOM     28  C   UNL     1      -3.792  12.136  19.173  0.00  0.00    +0.000 A 
ATOM     29  C   UNL     1      -3.179  12.641  20.329  0.00  0.00    +0.000 A 
ATOM     30  C   UNL     1      -3.938  12.906  21.472  0.00  0.00    +0.000 A 
ATOM     31  C   UNL     1      -5.314  12.668  21.475  0.00  0.00    +0.000 A 
ATOM     32  C   UNL     1      -5.930  12.181  20.324  0.00  0.00    +0.000 A 
ATOM     33  C   UNL     1      -5.179  11.911  19.188  0.00  0.00    +0.000 A 
ENDBRANCH  27  28
ENDBRANCH  24  27
ENDBRANCH  18  19
ENDBRANCH   2  18
TORSDOF 5
ENDMDL
MODEL 9
REMARK VINA RESULT:      -7.9      3.991      6.147
REMARK  Name = 
REMARK  5 active torsions:
REMARK  status: ('A' for Active; 'I' for Inactive)
REMARK    1  A    between atoms: C_2  and  C_3
REMARK    2  A    between atoms: C_3  and  N_4
REMARK    3  A    between atoms: N_9  and  C_10
REMARK    4  A    between atoms: C_10  and  C_11
REMARK    5  A    between atoms: N_19  and  C_20
REMARK                            x       y       z     vdW  Elec       q    Type
REMARK                         _______ _______ _______ _____ _____    ______ ____
ROOT
ATOM      1  O   UNL     1       2.047   6.969  17.648  0.00  0.00    +0.000 OA
ATOM      2  C   UNL     1       2.789   7.897  17.969  0.00  0.00    +0.000 C 
ATOM      3  N   UNL     1       2.388   9.057  18.638  0.00  0.00    +0.000 N 
ATOM      4  H   UNL     1       3.116   9.619  19.069  0.00  0.00    +0.000 HD
ENDROOT
BRANCH   3   5
ATOM      5  C   UNL     1       1.058   9.294  19.101  0.00  0.00    +0.000 A 
ATOM      6  C   UNL     1       0.678   9.006  20.411  0.00  0.00    +0.000 A 
ATOM      7  C   UNL     1      -0.191   9.877  21.064  0.00  0.00    +0.000 A 
ATOM      8  C   UNL     1      -0.759  10.888  20.313  0.00  0.00    +0.000 A 
ATOM      9  C   UNL     1      -0.935  10.637  18.939  0.00  0.00    +0.000 A 
ATOM     10  C   UNL     1       0.152  10.013  18.307  0.00  0.00    +0.000 A 
ATOM     11  C   UNL     1      -1.663  11.842  18.368  0.00  0.00    +0.000 C 
ATOM     12  C   UNL     1      -0.806  12.880  19.048  0.00  0.00    +0.000 A 
ATOM     13  C   UNL     1      -0.102  13.855  18.357  0.00  0.00    +0.000 A 
ATOM     14  C   UNL     1       1.063  14.337  18.936  0.00  0.00    +0.000 A 
ATOM     15  C   UNL     1       1.451  13.912  20.221  0.00  0.00    +0.000 A 
ATOM     16  C   UNL     1       0.727  12.929  20.925  0.00  0.00    +0.000 A 
ATOM     17  C   UNL     1      -0.375  12.347  20.305  0.00  0.00    +0.000 A 
ENDBRANCH   3   5
BRANCH   2  18
ATOM     18  C   UNL     1       4.290   7.798  17.664  0.00  0.00    +0.000 C 
BRANCH  18  19
ATOM     19  N   UNL     1       4.747   6.429  17.435  0.00  0.00    +0.000 N 
ATOM     20  C   UNL     1       5.051   6.067  16.137  0.00  0.00    +0.000 A 
ATOM     21  O   UNL     1       4.998   6.830  15.175  0.00  0.00    +0.000 OA
ATOM     22  C   UNL     1       5.446   4.666  15.908  0.00  0.00    +0.000 A 
ATOM     23  C   UNL     1       5.367   3.803  16.917  0.00  0.00    +0.000 A 
ATOM     24  N   UNL     1       4.961   4.178  18.177  0.00  0.00    +0.000 N 
ATOM     25  C   UNL     1       4.631   5.510  18.486  0.00  0.00    +0.000 A 
ATOM     26  O   UNL     1       4.225   5.833  19.600  0.00  0.00    +0.000 OA
BRANCH  24  27
ATOM     27  C   UNL     1       4.733   3.149  19.190  0.00  0.00    +0.000 C 
BRANCH  27  28
ATOM     28  C   UNL     1       3.253   2.947  19.465  0.00  0.00    +0.000 A 
ATOM     29  C   UNL     1       2.344   2.737  18.418  0.00  0.00    +0.000 A 
ATOM     30  C   UNL     1       0.977   2.618  18.683  0.00  0.00    +0.000 A 
ATOM     31  C   UNL     1       0.502   2.710  19.993  0.00  0.00    +0.000 A 
ATOM     32  C   UNL     1       1.402   2.904  21.038  0.00  0.00    +0.000 A 
ATOM     33  C   UNL     1       2.760   3.028  20.779  0.00  0.00    +0.000 A 
ENDBRANCH  27  28
ENDBRANCH  24  27
ENDBRANCH  18  19
ENDBRANCH   2  18
TORSDOF 5
ENDMDL
