MODEL 1
REMARK VINA RESULT:      -8.6      0.000      0.000
REMARK  Name = 
REMARK  3 active torsions:
REMARK  status: ('A' for Active; 'I' for Inactive)
REMARK    1  A    between atoms: C_1  and  C_2
REMARK    2  A    between atoms: C_2  and  C_3
REMARK    3  A    between atoms: C_12  and  N_13
REMARK                            x       y       z     vdW  Elec       q    Type
REMARK                         _______ _______ _______ _____ _____    ______ ____
ROOT
ATOM      1  C   UNL     1       3.978   6.053  17.756  0.00  0.00    +0.000 A 
ATOM      2  C   UNL     1       3.683   7.378  17.534  0.00  0.00    +0.000 A 
ATOM      3  C   UNL     1       2.574   7.652  18.374  0.00  0.00    +0.000 A 
ATOM      4  N   UNL     1       1.998   8.906  18.506  0.00  0.00    +0.000 N 
ATOM      5  C   UNL     1       1.153   9.252  19.531  0.00  0.00    +0.000 C 
ATOM      6  O   UNL     1       0.797   8.503  20.439  0.00  0.00    +0.000 OA
ATOM      7  N   UNL     1       0.739  10.570  19.537  0.00  0.00    +0.000 N 
ATOM      8  C   UNL     1       0.972  11.641  18.587  0.00  0.00    +0.000 C 
ATOM      9  C   UNL     1       0.987  12.884  19.463  0.00  0.00    +0.000 C 
ATOM     10  C   UNL     1      -0.080  12.603  20.525  0.00  0.00    +0.000 C 
ATOM     11  C   UNL     1      -0.026  11.068  20.673  0.00  0.00    +0.000 C 
ATOM     12  N   UNL     1       2.187   6.541  19.004  0.00  0.00    +0.000 NA
ATOM     13  O   UNL     1       3.051   5.544  18.612  0.00  0.00    +0.000 OA
ATOM     14  H   UNL     1       2.387   9.628  17.931  0.00  0.00    +0.000 HD
ENDROOT
BRANCH  10  15
ATOM     15  N   UNL     1      -1.410  13.065  20.104  0.00  0.00    +0.000 N 
ATOM     16  C   UNL     1      -2.513  12.939  20.929  0.00  0.00    +0.000 A 
ATOM     17  C   UNL     1      -3.868  12.894  20.276  0.00  0.00    +0.000 A 
ATOM     18  C   UNL     1      -4.959  12.770  21.042  0.00  0.00    +0.000 A 
ATOM     19  C   UNL     1      -4.804  12.678  22.437  0.00  0.00    +0.000 A 
ATOM     20  N   UNL     1      -5.687  12.533  23.405  0.00  0.00    +0.000 NA
ATOM     21  C   UNL     1      -4.943  12.461  24.555  0.00  0.00    +0.000 A 
ATOM     22  C   UNL     1      -3.603  12.570  24.282  0.00  0.00    +0.000 A 
ATOM     23  N   UNL     1      -3.512  12.718  22.926  0.00  0.00    +0.000 N 
ATOM     24  N   UNL     1      -2.353  12.850  22.222  0.00  0.00    +0.000 NA
ATOM     25  H   UNL     1      -1.597  12.899  19.120  0.00  0.00    +0.000 HD
ENDBRANCH  10  15
BRANCH   1  27
ATOM     26  C   UNL     1       4.452   3.679  17.251  0.00  0.00    +0.000 C 
ATOM     27  C   UNL     1       5.024   5.107  17.258  0.00  0.00    +0.000 C 
ATOM     28  C   UNL     1       5.549   5.496  15.864  0.00  0.00    +0.000 C 
ATOM     29  C   UNL     1       6.915   4.817  15.746  0.00  0.00    +0.000 C 
ATOM     30  C   UNL     1       7.400   4.590  17.178  0.00  0.00    +0.000 C 
ATOM     31  C   UNL     1       6.326   5.191  18.078  0.00  0.00    +0.000 C 
ENDBRANCH   1  27
TORSDOF 2
ENDMDL
MODEL 2
REMARK VINA RESULT:      -8.6      1.708      2.025
REMARK  Name = 
REMARK  3 active torsions:
REMARK  status: ('A' for Active; 'I' for Inactive)
REMARK    1  A    between atoms: C_1  and  C_2
REMARK    2  A    between atoms: C_2  and  C_3
REMARK    3  A    between atoms: C_12  and  N_13
REMARK                            x       y       z     vdW  Elec       q    Type
REMARK                         _______ _______ _______ _____ _____    ______ ____
ROOT
ATOM      1  C   UNL     1       3.976   5.701  17.804  0.00  0.00    +0.000 A 
ATOM      2  C   UNL     1       3.523   6.999  17.778  0.00  0.00    +0.000 A 
ATOM      3  C   UNL     1       2.597   7.085  18.849  0.00  0.00    +0.000 A 
ATOM      4  N   UNL     1       1.953   8.254  19.219  0.00  0.00    +0.000 N 
ATOM      5  C   UNL     1       1.317   8.425  20.424  0.00  0.00    +0.000 C 
ATOM      6  O   UNL     1       1.230   7.573  21.307  0.00  0.00    +0.000 OA
ATOM      7  N   UNL     1       0.797   9.685  20.646  0.00  0.00    +0.000 N 
ATOM      8  C   UNL     1       0.727  10.847  19.779  0.00  0.00    +0.000 C 
ATOM      9  C   UNL     1       0.816  12.012  20.753  0.00  0.00    +0.000 C 
ATOM     10  C   UNL     1       0.028  11.534  21.977  0.00  0.00    +0.000 C 
ATOM     11  C   UNL     1       0.249  10.007  21.958  0.00  0.00    +0.000 C 
ATOM     12  N   UNL     1       2.454   5.891  19.431  0.00  0.00    +0.000 NA
ATOM     13  O   UNL     1       3.301   5.029  18.775  0.00  0.00    +0.000 OA
ATOM     14  H   UNL     1       2.144   9.057  18.652  0.00  0.00    +0.000 HD
ENDROOT
BRANCH  10  15
ATOM     15  N   UNL     1      -1.397  11.881  21.882  0.00  0.00    +0.000 N 
ATOM     16  C   UNL     1      -1.968  12.825  22.719  0.00  0.00    +0.000 A 
ATOM     17  C   UNL     1      -3.450  12.732  22.962  0.00  0.00    +0.000 A 
ATOM     18  C   UNL     1      -4.036  13.626  23.768  0.00  0.00    +0.000 A 
ATOM     19  C   UNL     1      -3.246  14.621  24.369  0.00  0.00    +0.000 A 
ATOM     20  N   UNL     1      -3.555  15.596  25.203  0.00  0.00    +0.000 NA
ATOM     21  C   UNL     1      -2.364  16.217  25.478  0.00  0.00    +0.000 A 
ATOM     22  C   UNL     1      -1.330  15.621  24.802  0.00  0.00    +0.000 A 
ATOM     23  N   UNL     1      -1.893  14.604  24.084  0.00  0.00    +0.000 N 
ATOM     24  N   UNL     1      -1.220  13.740  23.273  0.00  0.00    +0.000 NA
ATOM     25  H   UNL     1      -1.990  11.083  21.680  0.00  0.00    +0.000 HD
ENDBRANCH  10  15
BRANCH   1  27
ATOM     26  C   UNL     1       4.436   3.490  16.795  0.00  0.00    +0.000 C 
ATOM     27  C   UNL     1       4.973   4.915  17.012  0.00  0.00    +0.000 C 
ATOM     28  C   UNL     1       5.311   5.586  15.668  0.00  0.00    +0.000 C 
ATOM     29  C   UNL     1       6.667   5.006  15.260  0.00  0.00    +0.000 C 
ATOM     30  C   UNL     1       7.332   4.533  16.553  0.00  0.00    +0.000 C 
ATOM     31  C   UNL     1       6.364   4.902  17.673  0.00  0.00    +0.000 C 
ENDBRANCH   1  27
TORSDOF 2
ENDMDL
MODEL 3
REMARK VINA RESULT:      -8.5      0.761      1.048
REMARK  Name = 
REMARK  3 active torsions:
REMARK  status: ('A' for Active; 'I' for Inactive)
REMARK    1  A    between atoms: C_1  and  C_2
REMARK    2  A    between atoms: C_2  and  C_3
REMARK    3  A    between atoms: C_12  and  N_13
REMARK                            x       y       z     vdW  Elec       q    Type
REMARK                         _______ _______ _______ _____ _____    ______ ____
ROOT
ATOM      1  C   UNL     1       3.758   6.569  18.074  0.00  0.00    +0.000 A 
ATOM      2  C   UNL     1       3.277   7.792  17.666  0.00  0.00    +0.000 A 
ATOM      3  C   UNL     1       2.241   8.102  18.584  0.00  0.00    +0.000 A 
ATOM      4  N   UNL     1       1.531   9.292  18.572  0.00  0.00    +0.000 N 
ATOM      5  C   UNL     1       0.768   9.734  19.624  0.00  0.00    +0.000 C 
ATOM      6  O   UNL     1       0.611   9.135  20.687  0.00  0.00    +0.000 OA
ATOM      7  N   UNL     1       0.196  10.980  19.457  0.00  0.00    +0.000 N 
ATOM      8  C   UNL     1       0.187  11.874  18.313  0.00  0.00    +0.000 C 
ATOM      9  C   UNL     1       0.143  13.253  18.952  0.00  0.00    +0.000 C 
ATOM     10  C   UNL     1      -0.757  13.067  20.178  0.00  0.00    +0.000 C 
ATOM     11  C   UNL     1      -0.496  11.601  20.580  0.00  0.00    +0.000 C 
ATOM     12  N   UNL     1       2.068   7.093  19.442  0.00  0.00    +0.000 NA
ATOM     13  O   UNL     1       3.001   6.136  19.119  0.00  0.00    +0.000 OA
ATOM     14  H   UNL     1       1.761   9.931  17.835  0.00  0.00    +0.000 HD
ENDROOT
BRANCH  10  15
ATOM     15  N   UNL     1      -2.173  13.303  19.861  0.00  0.00    +0.000 N 
ATOM     16  C   UNL     1      -3.169  13.081  20.795  0.00  0.00    +0.000 A 
ATOM     17  C   UNL     1      -4.554  12.796  20.280  0.00  0.00    +0.000 A 
ATOM     18  C   UNL     1      -5.543  12.573  21.155  0.00  0.00    +0.000 A 
ATOM     19  C   UNL     1      -5.254  12.605  22.531  0.00  0.00    +0.000 A 
ATOM     20  N   UNL     1      -6.018  12.406  23.587  0.00  0.00    +0.000 NA
ATOM     21  C   UNL     1      -5.174  12.525  24.661  0.00  0.00    +0.000 A 
ATOM     22  C   UNL     1      -3.894  12.804  24.254  0.00  0.00    +0.000 A 
ATOM     23  N   UNL     1      -3.945  12.865  22.889  0.00  0.00    +0.000 N 
ATOM     24  N   UNL     1      -2.885  13.109  22.069  0.00  0.00    +0.000 NA
ATOM     25  H   UNL     1      -2.419  13.041  18.911  0.00  0.00    +0.000 HD
ENDBRANCH  10  15
BRANCH   1  27
ATOM     26  C   UNL     1       5.741   5.290  18.815  0.00  0.00    +0.000 C 
ATOM     27  C   UNL     1       4.853   5.659  17.614  0.00  0.00    +0.000 C 
ATOM     28  C   UNL     1       4.310   4.395  16.923  0.00  0.00    +0.000 C 
ATOM     29  C   UNL     1       5.467   3.880  16.064  0.00  0.00    +0.000 C 
ATOM     30  C   UNL     1       6.368   5.086  15.799  0.00  0.00    +0.000 C 
ATOM     31  C   UNL     1       5.677   6.271  16.466  0.00  0.00    +0.000 C 
ENDBRANCH   1  27
TORSDOF 2
ENDMDL
MODEL 4
REMARK VINA RESULT:      -8.4      1.225      1.319
REMARK  Name = 
REMARK  3 active torsions:
REMARK  status: ('A' for Active; 'I' for Inactive)
REMARK    1  A    between atoms: C_1  and  C_2
REMARK    2  A    between atoms: C_2  and  C_3
REMARK    3  A    between atoms: C_12  and  N_13
REMARK                            x       y       z     vdW  Elec       q    Type
REMARK                         _______ _______ _______ _____ _____    ______ ____
ROOT
ATOM      1  C   UNL     1       3.824   6.823  18.176  0.00  0.00    +0.000 A 
ATOM      2  C   UNL     1       3.229   7.971  17.707  0.00  0.00    +0.000 A 
ATOM      3  C   UNL     1       2.122   8.187  18.567  0.00  0.00    +0.000 A 
ATOM      4  N   UNL     1       1.284   9.288  18.483  0.00  0.00    +0.000 N 
ATOM      5  C   UNL     1       0.426   9.670  19.484  0.00  0.00    +0.000 C 
ATOM      6  O   UNL     1       0.286   9.087  20.558  0.00  0.00    +0.000 OA
ATOM      7  N   UNL     1      -0.274  10.837  19.250  0.00  0.00    +0.000 N 
ATOM      8  C   UNL     1      -0.328  11.692  18.078  0.00  0.00    +0.000 C 
ATOM      9  C   UNL     1      -0.558  13.075  18.667  0.00  0.00    +0.000 C 
ATOM     10  C   UNL     1      -1.489  12.822  19.857  0.00  0.00    +0.000 C 
ATOM     11  C   UNL     1      -1.084  11.407  20.320  0.00  0.00    +0.000 C 
ATOM     12  N   UNL     1       2.022   7.190  19.449  0.00  0.00    +0.000 NA
ATOM     13  O   UNL     1       3.071   6.337  19.200  0.00  0.00    +0.000 OA
ATOM     14  H   UNL     1       1.475   9.927  17.736  0.00  0.00    +0.000 HD
ENDROOT
BRANCH  10  15
ATOM     15  N   UNL     1      -2.905  12.886  19.469  0.00  0.00    +0.000 N 
ATOM     16  C   UNL     1      -3.916  12.765  20.406  0.00  0.00    +0.000 A 
ATOM     17  C   UNL     1      -5.258  12.284  19.923  0.00  0.00    +0.000 A 
ATOM     18  C   UNL     1      -6.260  12.152  20.801  0.00  0.00    +0.000 A 
ATOM     19  C   UNL     1      -6.025  12.460  22.152  0.00  0.00    +0.000 A 
ATOM     20  N   UNL     1      -6.811  12.403  23.210  0.00  0.00    +0.000 NA
ATOM     21  C   UNL     1      -6.017  12.782  24.262  0.00  0.00    +0.000 A 
ATOM     22  C   UNL     1      -4.747  13.078  23.839  0.00  0.00    +0.000 A 
ATOM     23  N   UNL     1      -4.751  12.881  22.486  0.00  0.00    +0.000 N 
ATOM     24  N   UNL     1      -3.682  13.050  21.659  0.00  0.00    +0.000 NA
ATOM     25  H   UNL     1      -3.097  12.435  18.581  0.00  0.00    +0.000 HD
ENDBRANCH  10  15
BRANCH   1  27
ATOM     26  C   UNL     1       4.633   4.947  16.782  0.00  0.00    +0.000 C 
ATOM     27  C   UNL     1       5.035   6.031  17.796  0.00  0.00    +0.000 C 
ATOM     28  C   UNL     1       6.161   6.918  17.235  0.00  0.00    +0.000 C 
ATOM     29  C   UNL     1       7.442   6.101  17.415  0.00  0.00    +0.000 C 
ATOM     30  C   UNL     1       7.160   5.114  18.547  0.00  0.00    +0.000 C 
ATOM     31  C   UNL     1       5.745   5.425  19.022  0.00  0.00    +0.000 C 
ENDBRANCH   1  27
TORSDOF 2
ENDMDL
MODEL 5
REMARK VINA RESULT:      -8.3      2.424      3.321
REMARK  Name = 
REMARK  3 active torsions:
REMARK  status: ('A' for Active; 'I' for Inactive)
REMARK    1  A    between atoms: C_1  and  C_2
REMARK    2  A    between atoms: C_2  and  C_3
REMARK    3  A    between atoms: C_12  and  N_13
REMARK                            x       y       z     vdW  Elec       q    Type
REMARK                         _______ _______ _______ _____ _____    ______ ____
ROOT
ATOM      1  C   UNL     1       2.990   5.485  18.821  0.00  0.00    +0.000 A 
ATOM      2  C   UNL     1       2.492   5.988  20.001  0.00  0.00    +0.000 A 
ATOM      3  C   UNL     1       2.149   7.333  19.710  0.00  0.00    +0.000 A 
ATOM      4  N   UNL     1       1.545   8.188  20.617  0.00  0.00    +0.000 N 
ATOM      5  C   UNL     1       0.926   9.361  20.263  0.00  0.00    +0.000 C 
ATOM      6  O   UNL     1       0.844   9.801  19.118  0.00  0.00    +0.000 OA
ATOM      7  N   UNL     1       0.313  10.042  21.297  0.00  0.00    +0.000 N 
ATOM      8  C   UNL     1       0.285   9.776  22.723  0.00  0.00    +0.000 C 
ATOM      9  C   UNL     1      -1.073  10.310  23.149  0.00  0.00    +0.000 C 
ATOM     10  C   UNL     1      -1.269  11.560  22.285  0.00  0.00    +0.000 C 
ATOM     11  C   UNL     1      -0.504  11.211  20.992  0.00  0.00    +0.000 C 
ATOM     12  N   UNL     1       2.489   7.634  18.454  0.00  0.00    +0.000 NA
ATOM     13  O   UNL     1       3.022   6.492  17.905  0.00  0.00    +0.000 OA
ATOM     14  H   UNL     1       1.390   7.814  21.534  0.00  0.00    +0.000 HD
ENDROOT
BRANCH  10  15
ATOM     15  N   UNL     1      -0.729  12.764  22.931  0.00  0.00    +0.000 N 
ATOM     16  C   UNL     1      -1.543  13.834  23.259  0.00  0.00    +0.000 A 
ATOM     17  C   UNL     1      -0.897  15.188  23.378  0.00  0.00    +0.000 A 
ATOM     18  C   UNL     1      -1.653  16.248  23.690  0.00  0.00    +0.000 A 
ATOM     19  C   UNL     1      -3.033  16.064  23.890  0.00  0.00    +0.000 A 
ATOM     20  N   UNL     1      -3.994  16.918  24.183  0.00  0.00    +0.000 NA
ATOM     21  C   UNL     1      -5.140  16.166  24.209  0.00  0.00    +0.000 A 
ATOM     22  C   UNL     1      -4.871  14.849  23.939  0.00  0.00    +0.000 A 
ATOM     23  N   UNL     1      -3.520  14.778  23.744  0.00  0.00    +0.000 N 
ATOM     24  N   UNL     1      -2.823  13.649  23.437  0.00  0.00    +0.000 NA
ATOM     25  H   UNL     1       0.191  13.023  22.590  0.00  0.00    +0.000 HD
ENDBRANCH  10  15
BRANCH   1  27
ATOM     26  C   UNL     1       4.621   4.362  17.340  0.00  0.00    +0.000 C 
ATOM     27  C   UNL     1       3.501   4.152  18.373  0.00  0.00    +0.000 C 
ATOM     28  C   UNL     1       3.993   3.290  19.550  0.00  0.00    +0.000 C 
ATOM     29  C   UNL     1       3.955   1.850  19.036  0.00  0.00    +0.000 C 
ATOM     30  C   UNL     1       2.937   1.835  17.896  0.00  0.00    +0.000 C 
ATOM     31  C   UNL     1       2.380   3.252  17.820  0.00  0.00    +0.000 C 
ENDBRANCH   1  27
TORSDOF 2
ENDMDL
MODEL 6
REMARK VINA RESULT:      -8.3      1.687      2.166
REMARK  Name = 
REMARK  3 active torsions:
REMARK  status: ('A' for Active; 'I' for Inactive)
REMARK    1  A    between atoms: C_1  and  C_2
REMARK    2  A    between atoms: C_2  and  C_3
REMARK    3  A    between atoms: C_12  and  N_13
REMARK                            x       y       z     vdW  Elec       q    Type
REMARK                         _______ _______ _______ _____ _____    ______ ____
ROOT
ATOM      1  C   UNL     1       4.082   6.176  17.820  0.00  0.00    +0.000 A 
ATOM      2  C   UNL     1       3.517   7.430  17.811  0.00  0.00    +0.000 A 
ATOM      3  C   UNL     1       2.581   7.417  18.877  0.00  0.00    +0.000 A 
ATOM      4  N   UNL     1       1.834   8.519  19.260  0.00  0.00    +0.000 N 
ATOM      5  C   UNL     1       1.179   8.615  20.463  0.00  0.00    +0.000 C 
ATOM      6  O   UNL     1       1.162   7.745  21.332  0.00  0.00    +0.000 OA
ATOM      7  N   UNL     1       0.549   9.821  20.699  0.00  0.00    +0.000 N 
ATOM      8  C   UNL     1       0.381  10.986  19.850  0.00  0.00    +0.000 C 
ATOM      9  C   UNL     1       0.362  12.139  20.841  0.00  0.00    +0.000 C 
ATOM     10  C   UNL     1      -0.388  11.575  22.053  0.00  0.00    +0.000 C 
ATOM     11  C   UNL     1      -0.033  10.074  22.012  0.00  0.00    +0.000 C 
ATOM     12  N   UNL     1       2.540   6.207  19.440  0.00  0.00    +0.000 NA
ATOM     13  O   UNL     1       3.463   5.432  18.777  0.00  0.00    +0.000 OA
ATOM     14  H   UNL     1       1.957   9.345  18.706  0.00  0.00    +0.000 HD
ENDROOT
BRANCH  10  15
ATOM     15  N   UNL     1      -1.837  11.797  21.953  0.00  0.00    +0.000 N 
ATOM     16  C   UNL     1      -2.464  12.802  22.668  0.00  0.00    +0.000 A 
ATOM     17  C   UNL     1      -3.930  12.632  22.966  0.00  0.00    +0.000 A 
ATOM     18  C   UNL     1      -4.570  13.583  23.659  0.00  0.00    +0.000 A 
ATOM     19  C   UNL     1      -3.849  14.709  24.094  0.00  0.00    +0.000 A 
ATOM     20  N   UNL     1      -4.218  15.763  24.795  0.00  0.00    +0.000 NA
ATOM     21  C   UNL     1      -3.075  16.505  24.947  0.00  0.00    +0.000 A 
ATOM     22  C   UNL     1      -2.010  15.901  24.329  0.00  0.00    +0.000 A 
ATOM     23  N   UNL     1      -2.505  14.754  23.774  0.00  0.00    +0.000 N 
ATOM     24  N   UNL     1      -1.781  13.839  23.070  0.00  0.00    +0.000 NA
ATOM     25  H   UNL     1      -2.369  10.936  21.880  0.00  0.00    +0.000 HD
ENDBRANCH  10  15
BRANCH   1  27
ATOM     26  C   UNL     1       6.494   5.634  17.756  0.00  0.00    +0.000 C 
ATOM     27  C   UNL     1       5.149   5.493  17.024  0.00  0.00    +0.000 C 
ATOM     28  C   UNL     1       4.821   4.013  16.755  0.00  0.00    +0.000 C 
ATOM     29  C   UNL     1       5.663   3.631  15.537  0.00  0.00    +0.000 C 
ATOM     30  C   UNL     1       5.956   4.936  14.797  0.00  0.00    +0.000 C 
ATOM     31  C   UNL     1       5.231   6.025  15.580  0.00  0.00    +0.000 C 
ENDBRANCH   1  27
TORSDOF 2
ENDMDL
MODEL 7
REMARK VINA RESULT:      -8.1      1.423      1.566
REMARK  Name = 
REMARK  3 active torsions:
REMARK  status: ('A' for Active; 'I' for Inactive)
REMARK    1  A    between atoms: C_1  and  C_2
REMARK    2  A    between atoms: C_2  and  C_3
REMARK    3  A    between atoms: C_12  and  N_13
REMARK                            x       y       z     vdW  Elec       q    Type
REMARK                         _______ _______ _______ _____ _____    ______ ____
ROOT
ATOM      1  C   UNL     1       3.854   6.412  18.215  0.00  0.00    +0.000 A 
ATOM      2  C   UNL     1       3.152   7.479  17.705  0.00  0.00    +0.000 A 
ATOM      3  C   UNL     1       2.238   7.838  18.728  0.00  0.00    +0.000 A 
ATOM      4  N   UNL     1       1.377   8.921  18.647  0.00  0.00    +0.000 N 
ATOM      5  C   UNL     1       0.732   9.464  19.730  0.00  0.00    +0.000 C 
ATOM      6  O   UNL     1       0.824   9.057  20.887  0.00  0.00    +0.000 OA
ATOM      7  N   UNL     1      -0.026  10.588  19.466  0.00  0.00    +0.000 N 
ATOM      8  C   UNL     1      -0.335  11.250  18.211  0.00  0.00    +0.000 C 
ATOM      9  C   UNL     1      -0.470  12.710  18.614  0.00  0.00    +0.000 C 
ATOM     10  C   UNL     1      -1.135  12.655  19.993  0.00  0.00    +0.000 C 
ATOM     11  C   UNL     1      -0.615  11.325  20.577  0.00  0.00    +0.000 C 
ATOM     12  N   UNL     1       2.340   6.992  19.755  0.00  0.00    +0.000 NA
ATOM     13  O   UNL     1       3.335   6.099  19.433  0.00  0.00    +0.000 OA
ATOM     14  H   UNL     1       1.399   9.435  17.787  0.00  0.00    +0.000 HD
ENDROOT
BRANCH  10  15
ATOM     15  N   UNL     1      -2.602  12.673  19.896  0.00  0.00    +0.000 N 
ATOM     16  C   UNL     1      -3.383  13.265  20.873  0.00  0.00    +0.000 A 
ATOM     17  C   UNL     1      -4.801  12.782  21.016  0.00  0.00    +0.000 A 
ATOM     18  C   UNL     1      -5.586  13.329  21.953  0.00  0.00    +0.000 A 
ATOM     19  C   UNL     1      -5.057  14.336  22.780  0.00  0.00    +0.000 A 
ATOM     20  N   UNL     1      -5.592  15.018  23.774  0.00  0.00    +0.000 NA
ATOM     21  C   UNL     1      -4.583  15.829  24.229  0.00  0.00    +0.000 A 
ATOM     22  C   UNL     1      -3.435  15.643  23.502  0.00  0.00    +0.000 A 
ATOM     23  N   UNL     1      -3.739  14.693  22.567  0.00  0.00    +0.000 N 
ATOM     24  N   UNL     1      -2.877  14.195  21.637  0.00  0.00    +0.000 NA
ATOM     25  H   UNL     1      -2.987  11.818  19.508  0.00  0.00    +0.000 HD
ENDBRANCH  10  15
BRANCH   1  27
ATOM     26  C   UNL     1       5.727   4.964  18.931  0.00  0.00    +0.000 C 
ATOM     27  C   UNL     1       4.980   5.557  17.724  0.00  0.00    +0.000 C 
ATOM     28  C   UNL     1       4.499   4.445  16.775  0.00  0.00    +0.000 C 
ATOM     29  C   UNL     1       5.735   4.045  15.967  0.00  0.00    +0.000 C 
ATOM     30  C   UNL     1       6.675   5.250  16.007  0.00  0.00    +0.000 C 
ATOM     31  C   UNL     1       5.933   6.327  16.790  0.00  0.00    +0.000 C 
ENDBRANCH   1  27
TORSDOF 2
ENDMDL
MODEL 8
REMARK VINA RESULT:      -8.1      1.793      2.246
REMARK  Name = 
REMARK  3 active torsions:
REMARK  status: ('A' for Active; 'I' for Inactive)
REMARK    1  A    between atoms: C_1  and  C_2
REMARK    2  A    between atoms: C_2  and  C_3
REMARK    3  A    between atoms: C_12  and  N_13
REMARK                            x       y       z     vdW  Elec       q    Type
REMARK                         _______ _______ _______ _____ _____    ______ ____
ROOT
ATOM      1  C   UNL     1       3.865   6.516  17.795  0.00  0.00    +0.000 A 
ATOM      2  C   UNL     1       3.169   7.701  17.737  0.00  0.00    +0.000 A 
ATOM      3  C   UNL     1       2.386   7.724  18.919  0.00  0.00    +0.000 A 
ATOM      4  N   UNL     1       1.578   8.787  19.287  0.00  0.00    +0.000 N 
ATOM      5  C   UNL     1       1.077   8.960  20.554  0.00  0.00    +0.000 C 
ATOM      6  O   UNL     1       1.267   8.198  21.501  0.00  0.00    +0.000 OA
ATOM      7  N   UNL     1       0.354  10.120  20.752  0.00  0.00    +0.000 N 
ATOM      8  C   UNL     1      -0.048  11.157  19.819  0.00  0.00    +0.000 C 
ATOM      9  C   UNL     1      -0.065  12.410  20.681  0.00  0.00    +0.000 C 
ATOM     10  C   UNL     1      -0.587  11.922  22.036  0.00  0.00    +0.000 C 
ATOM     11  C   UNL     1      -0.078  10.467  22.100  0.00  0.00    +0.000 C 
ATOM     12  N   UNL     1       2.550   6.588  19.602  0.00  0.00    +0.000 NA
ATOM     13  O   UNL     1       3.459   5.833  18.899  0.00  0.00    +0.000 OA
ATOM     14  H   UNL     1       1.538   9.551  18.641  0.00  0.00    +0.000 HD
ENDROOT
BRANCH  10  15
ATOM     15  N   UNL     1      -2.052  11.993  22.118  0.00  0.00    +0.000 N 
ATOM     16  C   UNL     1      -2.689  13.030  22.776  0.00  0.00    +0.000 A 
ATOM     17  C   UNL     1      -4.076  12.773  23.303  0.00  0.00    +0.000 A 
ATOM     18  C   UNL     1      -4.722  13.752  23.947  0.00  0.00    +0.000 A 
ATOM     19  C   UNL     1      -4.081  14.991  24.120  0.00  0.00    +0.000 A 
ATOM     20  N   UNL     1      -4.471  16.099  24.720  0.00  0.00    +0.000 NA
ATOM     21  C   UNL     1      -3.407  16.957  24.605  0.00  0.00    +0.000 A 
ATOM     22  C   UNL     1      -2.371  16.369  23.926  0.00  0.00    +0.000 A 
ATOM     23  N   UNL     1      -2.803  15.112  23.606  0.00  0.00    +0.000 N 
ATOM     24  N   UNL     1      -2.079  14.174  22.933  0.00  0.00    +0.000 NA
ATOM     25  H   UNL     1      -2.490  11.085  22.238  0.00  0.00    +0.000 HD
ENDBRANCH  10  15
BRANCH   1  27
ATOM     26  C   UNL     1       5.098   6.687  15.657  0.00  0.00    +0.000 C 
ATOM     27  C   UNL     1       4.889   5.849  16.931  0.00  0.00    +0.000 C 
ATOM     28  C   UNL     1       6.222   5.628  17.669  0.00  0.00    +0.000 C 
ATOM     29  C   UNL     1       6.924   4.507  16.900  0.00  0.00    +0.000 C 
ATOM     30  C   UNL     1       5.821   3.731  16.180  0.00  0.00    +0.000 C 
ATOM     31  C   UNL     1       4.512   4.394  16.596  0.00  0.00    +0.000 C 
ENDBRANCH   1  27
TORSDOF 2
ENDMDL
MODEL 9
REMARK VINA RESULT:      -8.0      1.536      2.094
REMARK  Name = 
REMARK  3 active torsions:
REMARK  status: ('A' for Active; 'I' for Inactive)
REMARK    1  A    between atoms: C_1  and  C_2
REMARK    2  A    between atoms: C_2  and  C_3
REMARK    3  A    between atoms: C_12  and  N_13
REMARK                            x       y       z     vdW  Elec       q    Type
REMARK                         _______ _______ _______ _____ _____    ______ ____
ROOT
ATOM      1  C   UNL     1       2.746   7.177  18.705  0.00  0.00    +0.000 A 
ATOM      2  C   UNL     1       2.235   8.322  18.138  0.00  0.00    +0.000 A 
ATOM      3  C   UNL     1       1.458   8.921  19.162  0.00  0.00    +0.000 A 
ATOM      4  N   UNL     1       0.816  10.141  19.027  0.00  0.00    +0.000 N 
ATOM      5  C   UNL     1       0.340  10.873  20.087  0.00  0.00    +0.000 C 
ATOM      6  O   UNL     1       0.410  10.537  21.268  0.00  0.00    +0.000 OA
ATOM      7  N   UNL     1      -0.203  12.101  19.763  0.00  0.00    +0.000 N 
ATOM      8  C   UNL     1      -0.441  12.721  18.472  0.00  0.00    +0.000 C 
ATOM      9  C   UNL     1      -0.276  14.204  18.765  0.00  0.00    +0.000 C 
ATOM     10  C   UNL     1      -0.871  14.375  20.166  0.00  0.00    +0.000 C 
ATOM     11  C   UNL     1      -0.585  13.014  20.833  0.00  0.00    +0.000 C 
ATOM     12  N   UNL     1       1.447   8.144  20.248  0.00  0.00    +0.000 NA
ATOM     13  O   UNL     1       2.237   7.055  19.961  0.00  0.00    +0.000 OA
ATOM     14  H   UNL     1       0.893  10.580  18.130  0.00  0.00    +0.000 HD
ENDROOT
BRANCH  10  15
ATOM     15  N   UNL     1      -2.310  14.670  20.119  0.00  0.00    +0.000 N 
ATOM     16  C   UNL     1      -3.186  14.144  21.053  0.00  0.00    +0.000 A 
ATOM     17  C   UNL     1      -4.630  14.007  20.653  0.00  0.00    +0.000 A 
ATOM     18  C   UNL     1      -5.506  13.500  21.529  0.00  0.00    +0.000 A 
ATOM     19  C   UNL     1      -5.046  13.103  22.797  0.00  0.00    +0.000 A 
ATOM     20  N   UNL     1      -5.675  12.566  23.825  0.00  0.00    +0.000 NA
ATOM     21  C   UNL     1      -4.701  12.358  24.767  0.00  0.00    +0.000 A 
ATOM     22  C   UNL     1      -3.477  12.777  24.311  0.00  0.00    +0.000 A 
ATOM     23  N   UNL     1      -3.697  13.263  23.053  0.00  0.00    +0.000 N 
ATOM     24  N   UNL     1      -2.743  13.776  22.225  0.00  0.00    +0.000 NA
ATOM     25  H   UNL     1      -2.678  14.715  19.175  0.00  0.00    +0.000 HD
ENDBRANCH  10  15
BRANCH   1  27
ATOM     26  C   UNL     1       4.647   6.663  17.209  0.00  0.00    +0.000 C 
ATOM     27  C   UNL     1       3.664   6.089  18.243  0.00  0.00    +0.000 C 
ATOM     28  C   UNL     1       4.418   5.425  19.410  0.00  0.00    +0.000 C 
ATOM     29  C   UNL     1       4.850   4.057  18.881  0.00  0.00    +0.000 C 
ATOM     30  C   UNL     1       3.887   3.719  17.743  0.00  0.00    +0.000 C 
ATOM     31  C   UNL     1       2.896   4.877  17.683  0.00  0.00    +0.000 C 
ENDBRANCH   1  27
TORSDOF 2
ENDMDL
