MODEL 1
REMARK VINA RESULT:      -8.4      0.000      0.000
REMARK  Name = 
REMARK  8 active torsions:
REMARK  status: ('A' for Active; 'I' for Inactive)
REMARK    1  A    between atoms: C_1  and  C_2
REMARK    2  A    between atoms: C_5  and  C_6
REMARK    3  A    between atoms: N_8  and  C_9
REMARK    4  A    between atoms: C_12  and  N_13
REMARK    5  A    between atoms: C_22  and  S_23
REMARK    6  A    between atoms: S_23  and  N_26
REMARK    7  A    between atoms: N_26  and  C_27
REMARK    8  A    between atoms: C_27  and  C_28
REMARK                            x       y       z     vdW  Elec       q    Type
REMARK                         _______ _______ _______ _____ _____    ______ ____
ROOT
ATOM      1  C   UNL     1       5.006   3.529  17.197  0.00  0.00    +0.000 C 
ATOM      2  C   UNL     1       4.328   4.832  17.510  0.00  0.00    +0.000 A 
ATOM      3  C   UNL     1       2.940   4.818  17.767  0.00  0.00    +0.000 A 
ATOM      4  C   UNL     1       2.235   6.001  18.017  0.00  0.00    +0.000 A 
ATOM      5  C   UNL     1       2.906   7.222  18.014  0.00  0.00    +0.000 A 
ATOM      6  C   UNL     1       4.290   7.249  17.803  0.00  0.00    +0.000 A 
ATOM      7  C   UNL     1       5.003   6.067  17.532  0.00  0.00    +0.000 A 
ENDROOT
BRANCH   5   8
ATOM      8  C   UNL     1       2.140   8.486  18.220  0.00  0.00    +0.000 C 
ATOM      9  O   UNL     1       2.100   9.303  17.311  0.00  0.00    +0.000 OA
ATOM     10  N   UNL     1       1.591   8.621  19.486  0.00  0.00    +0.000 N 
ATOM     11  H   UNL     1       1.913   7.977  20.198  0.00  0.00    +0.000 HD
BRANCH  10  12
ATOM     12  C   UNL     1       0.748   9.653  19.939  0.00  0.00    +0.000 A 
ATOM     13  C   UNL     1       0.414  10.770  19.182  0.00  0.00    +0.000 A 
ATOM     14  C   UNL     1      -0.416  11.770  19.713  0.00  0.00    +0.000 A 
ATOM     15  C   UNL     1      -0.907  11.697  21.022  0.00  0.00    +0.000 A 
ATOM     16  C   UNL     1      -0.591  10.547  21.760  0.00  0.00    +0.000 A 
ATOM     17  C   UNL     1       0.209   9.531  21.220  0.00  0.00    +0.000 A 
BRANCH  15  18
ATOM     18  N   UNL     1      -1.670  12.750  21.602  0.00  0.00    +0.000 N 
ATOM     19  C   UNL     1      -2.994  13.091  21.132  0.00  0.00    +0.000 C 
ATOM     20  C   UNL     1      -3.338  14.377  21.852  0.00  0.00    +0.000 C 
ATOM     21  C   UNL     1      -2.580  14.268  23.158  0.00  0.00    +0.000 C 
ATOM     22  C   UNL     1      -1.382  13.421  22.801  0.00  0.00    +0.000 C 
ATOM     23  O   UNL     1      -0.387  13.358  23.507  0.00  0.00    +0.000 OA
ENDBRANCH  15  18
ENDBRANCH  10  12
ENDBRANCH   5   8
BRANCH   7  24
ATOM     24  S   UNL     1       6.703   6.272  16.989  0.00  0.00    +0.000 S 
ATOM     25  O   UNL     1       7.535   5.488  17.878  0.00  0.00    +0.000 OA
ATOM     26  O   UNL     1       6.736   6.032  15.563  0.00  0.00    +0.000 OA
BRANCH  24  27
ATOM     27  N   UNL     1       7.102   7.888  17.256  0.00  0.00    +0.000 NA
ATOM     28  H   UNL     1       6.250   8.403  17.481  0.00  0.00    +0.000 HD
BRANCH  27  29
ATOM     29  C   UNL     1       8.235   8.143  18.161  0.00  0.00    +0.000 C 
BRANCH  29  30
ATOM     30  C   UNL     1       8.569   9.609  18.391  0.00  0.00    +0.000 A 
ATOM     31  C   UNL     1       9.471   9.945  19.418  0.00  0.00    +0.000 A 
ATOM     32  C   UNL     1       9.885  11.266  19.620  0.00  0.00    +0.000 A 
ATOM     33  C   UNL     1       9.406  12.273  18.791  0.00  0.00    +0.000 A 
ATOM     34  C   UNL     1       8.510  11.962  17.769  0.00  0.00    +0.000 A 
ATOM     35  C   UNL     1       8.097  10.638  17.563  0.00  0.00    +0.000 A 
ENDBRANCH  29  30
ENDBRANCH  27  29
ENDBRANCH  24  27
ENDBRANCH   7  24
TORSDOF 7
ENDMDL
MODEL 2
REMARK VINA RESULT:      -8.4      2.993      4.791
REMARK  Name = 
REMARK  8 active torsions:
REMARK  status: ('A' for Active; 'I' for Inactive)
REMARK    1  A    between atoms: C_1  and  C_2
REMARK    2  A    between atoms: C_5  and  C_6
REMARK    3  A    between atoms: N_8  and  C_9
REMARK    4  A    between atoms: C_12  and  N_13
REMARK    5  A    between atoms: C_22  and  S_23
REMARK    6  A    between atoms: S_23  and  N_26
REMARK    7  A    between atoms: N_26  and  C_27
REMARK    8  A    between atoms: C_27  and  C_28
REMARK                            x       y       z     vdW  Elec       q    Type
REMARK                         _______ _______ _______ _____ _____    ______ ____
ROOT
ATOM      1  C   UNL     1       4.667   3.462  17.031  0.00  0.00    +0.000 C 
ATOM      2  C   UNL     1       4.057   4.778  17.424  0.00  0.00    +0.000 A 
ATOM      3  C   UNL     1       2.694   4.800  17.787  0.00  0.00    +0.000 A 
ATOM      4  C   UNL     1       2.049   5.998  18.115  0.00  0.00    +0.000 A 
ATOM      5  C   UNL     1       2.756   7.198  18.085  0.00  0.00    +0.000 A 
ATOM      6  C   UNL     1       4.121   7.187  17.767  0.00  0.00    +0.000 A 
ATOM      7  C   UNL     1       4.771   5.991  17.418  0.00  0.00    +0.000 A 
ENDROOT
BRANCH   5   8
ATOM      8  C   UNL     1       2.050   8.479  18.377  0.00  0.00    +0.000 C 
ATOM      9  O   UNL     1       2.108   9.382  17.554  0.00  0.00    +0.000 OA
ATOM     10  N   UNL     1       1.436   8.523  19.619  0.00  0.00    +0.000 N 
ATOM     11  H   UNL     1       1.680   7.795  20.279  0.00  0.00    +0.000 HD
BRANCH  10  12
ATOM     12  C   UNL     1       0.625   9.556  20.128  0.00  0.00    +0.000 A 
ATOM     13  C   UNL     1       0.108  10.589  19.355  0.00  0.00    +0.000 A 
ATOM     14  C   UNL     1      -0.675  11.596  19.941  0.00  0.00    +0.000 A 
ATOM     15  C   UNL     1      -0.935  11.616  21.316  0.00  0.00    +0.000 A 
ATOM     16  C   UNL     1      -0.437  10.548  22.077  0.00  0.00    +0.000 A 
ATOM     17  C   UNL     1       0.316   9.522  21.488  0.00  0.00    +0.000 A 
BRANCH  15  18
ATOM     18  N   UNL     1      -1.647  12.682  21.935  0.00  0.00    +0.000 N 
ATOM     19  C   UNL     1      -1.073  13.475  23.000  0.00  0.00    +0.000 C 
ATOM     20  C   UNL     1      -2.220  14.322  23.508  0.00  0.00    +0.000 C 
ATOM     21  C   UNL     1      -3.094  14.509  22.286  0.00  0.00    +0.000 C 
ATOM     22  C   UNL     1      -2.844  13.258  21.479  0.00  0.00    +0.000 C 
ATOM     23  O   UNL     1      -3.584  12.897  20.577  0.00  0.00    +0.000 OA
ENDBRANCH  15  18
ENDBRANCH  10  12
ENDBRANCH   5   8
BRANCH   7  24
ATOM     24  S   UNL     1       6.430   6.157  16.749  0.00  0.00    +0.000 S 
ATOM     25  O   UNL     1       6.834   7.534  16.937  0.00  0.00    +0.000 OA
ATOM     26  O   UNL     1       7.230   5.084  17.299  0.00  0.00    +0.000 OA
BRANCH  24  27
ATOM     27  N   UNL     1       6.305   5.914  15.085  0.00  0.00    +0.000 NA
ATOM     28  H   UNL     1       6.402   6.815  14.615  0.00  0.00    +0.000 HD
BRANCH  27  29
ATOM     29  C   UNL     1       7.124   4.829  14.517  0.00  0.00    +0.000 C 
BRANCH  29  30
ATOM     30  C   UNL     1       6.453   4.009  13.426  0.00  0.00    +0.000 A 
ATOM     31  C   UNL     1       5.047   3.969  13.377  0.00  0.00    +0.000 A 
ATOM     32  C   UNL     1       4.374   3.305  12.345  0.00  0.00    +0.000 A 
ATOM     33  C   UNL     1       5.099   2.674  11.342  0.00  0.00    +0.000 A 
ATOM     34  C   UNL     1       6.493   2.699  11.374  0.00  0.00    +0.000 A 
ATOM     35  C   UNL     1       7.169   3.367  12.405  0.00  0.00    +0.000 A 
ENDBRANCH  29  30
ENDBRANCH  27  29
ENDBRANCH  24  27
ENDBRANCH   7  24
TORSDOF 7
ENDMDL
MODEL 3
REMARK VINA RESULT:      -8.3      3.291      5.269
REMARK  Name = 
REMARK  8 active torsions:
REMARK  status: ('A' for Active; 'I' for Inactive)
REMARK    1  A    between atoms: C_1  and  C_2
REMARK    2  A    between atoms: C_5  and  C_6
REMARK    3  A    between atoms: N_8  and  C_9
REMARK    4  A    between atoms: C_12  and  N_13
REMARK    5  A    between atoms: C_22  and  S_23
REMARK    6  A    between atoms: S_23  and  N_26
REMARK    7  A    between atoms: N_26  and  C_27
REMARK    8  A    between atoms: C_27  and  C_28
REMARK                            x       y       z     vdW  Elec       q    Type
REMARK                         _______ _______ _______ _____ _____    ______ ____
ROOT
ATOM      1  C   UNL     1       6.412   5.649  15.755  0.00  0.00    +0.000 C 
ATOM      2  C   UNL     1       5.318   6.143  16.658  0.00  0.00    +0.000 A 
ATOM      3  C   UNL     1       4.429   7.118  16.158  0.00  0.00    +0.000 A 
ATOM      4  C   UNL     1       3.418   7.660  16.960  0.00  0.00    +0.000 A 
ATOM      5  C   UNL     1       3.277   7.236  18.280  0.00  0.00    +0.000 A 
ATOM      6  C   UNL     1       4.125   6.238  18.778  0.00  0.00    +0.000 A 
ATOM      7  C   UNL     1       5.155   5.703  17.985  0.00  0.00    +0.000 A 
ENDROOT
BRANCH   5   8
ATOM      8  C   UNL     1       2.237   7.859  19.149  0.00  0.00    +0.000 C 
ATOM      9  O   UNL     1       1.886   7.268  20.161  0.00  0.00    +0.000 OA
ATOM     10  N   UNL     1       1.725   9.051  18.661  0.00  0.00    +0.000 N 
ATOM     11  H   UNL     1       1.940   9.286  17.700  0.00  0.00    +0.000 HD
BRANCH  10  12
ATOM     12  C   UNL     1       0.807   9.906  19.302  0.00  0.00    +0.000 A 
ATOM     13  C   UNL     1       1.041  10.514  20.530  0.00  0.00    +0.000 A 
ATOM     14  C   UNL     1       0.065  11.336  21.116  0.00  0.00    +0.000 A 
ATOM     15  C   UNL     1      -1.177  11.547  20.509  0.00  0.00    +0.000 A 
ATOM     16  C   UNL     1      -1.385  10.956  19.254  0.00  0.00    +0.000 A 
ATOM     17  C   UNL     1      -0.399  10.163  18.650  0.00  0.00    +0.000 A 
BRANCH  15  18
ATOM     18  N   UNL     1      -2.208  12.300  21.139  0.00  0.00    +0.000 N 
ATOM     19  C   UNL     1      -3.113  13.143  20.391  0.00  0.00    +0.000 C 
ATOM     20  C   UNL     1      -3.878  13.915  21.444  0.00  0.00    +0.000 C 
ATOM     21  C   UNL     1      -3.908  12.971  22.627  0.00  0.00    +0.000 C 
ATOM     22  C   UNL     1      -2.640  12.167  22.469  0.00  0.00    +0.000 C 
ATOM     23  O   UNL     1      -2.158  11.512  23.380  0.00  0.00    +0.000 OA
ENDBRANCH  15  18
ENDBRANCH  10  12
ENDBRANCH   5   8
BRANCH   7  24
ATOM     24  S   UNL     1       6.346   4.659  18.832  0.00  0.00    +0.000 S 
ATOM     25  O   UNL     1       7.364   4.299  17.867  0.00  0.00    +0.000 OA
ATOM     26  O   UNL     1       6.715   5.327  20.060  0.00  0.00    +0.000 OA
BRANCH  24  27
ATOM     27  N   UNL     1       5.539   3.235  19.234  0.00  0.00    +0.000 NA
ATOM     28  H   UNL     1       5.334   3.247  20.234  0.00  0.00    +0.000 HD
BRANCH  27  29
ATOM     29  C   UNL     1       4.402   2.860  18.376  0.00  0.00    +0.000 C 
BRANCH  29  30
ATOM     30  C   UNL     1       3.031   2.980  19.021  0.00  0.00    +0.000 A 
ATOM     31  C   UNL     1       1.903   2.541  18.302  0.00  0.00    +0.000 A 
ATOM     32  C   UNL     1       0.627   2.544  18.875  0.00  0.00    +0.000 A 
ATOM     33  C   UNL     1       0.460   2.983  20.183  0.00  0.00    +0.000 A 
ATOM     34  C   UNL     1       1.563   3.426  20.912  0.00  0.00    +0.000 A 
ATOM     35  C   UNL     1       2.843   3.420  20.340  0.00  0.00    +0.000 A 
ENDBRANCH  29  30
ENDBRANCH  27  29
ENDBRANCH  24  27
ENDBRANCH   7  24
TORSDOF 7
ENDMDL
MODEL 4
REMARK VINA RESULT:      -8.3      3.390      5.295
REMARK  Name = 
REMARK  8 active torsions:
REMARK  status: ('A' for Active; 'I' for Inactive)
REMARK    1  A    between atoms: C_1  and  C_2
REMARK    2  A    between atoms: C_5  and  C_6
REMARK    3  A    between atoms: N_8  and  C_9
REMARK    4  A    between atoms: C_12  and  N_13
REMARK    5  A    between atoms: C_22  and  S_23
REMARK    6  A    between atoms: S_23  and  N_26
REMARK    7  A    between atoms: N_26  and  C_27
REMARK    8  A    between atoms: C_27  and  C_28
REMARK                            x       y       z     vdW  Elec       q    Type
REMARK                         _______ _______ _______ _____ _____    ______ ____
ROOT
ATOM      1  C   UNL     1       6.035   5.671  15.746  0.00  0.00    +0.000 C 
ATOM      2  C   UNL     1       5.000   6.132  16.732  0.00  0.00    +0.000 A 
ATOM      3  C   UNL     1       4.094   7.137  16.330  0.00  0.00    +0.000 A 
ATOM      4  C   UNL     1       3.137   7.648  17.212  0.00  0.00    +0.000 A 
ATOM      5  C   UNL     1       3.068   7.165  18.518  0.00  0.00    +0.000 A 
ATOM      6  C   UNL     1       3.932   6.139  18.920  0.00  0.00    +0.000 A 
ATOM      7  C   UNL     1       4.909   5.632  18.045  0.00  0.00    +0.000 A 
ENDROOT
BRANCH   5   8
ATOM      8  C   UNL     1       2.086   7.756  19.473  0.00  0.00    +0.000 C 
ATOM      9  O   UNL     1       1.748   7.100  20.448  0.00  0.00    +0.000 OA
ATOM     10  N   UNL     1       1.606   9.001  19.101  0.00  0.00    +0.000 N 
ATOM     11  H   UNL     1       1.795   9.304  18.153  0.00  0.00    +0.000 HD
BRANCH  10  12
ATOM     12  C   UNL     1       0.748   9.836  19.842  0.00  0.00    +0.000 A 
ATOM     13  C   UNL     1       0.968  10.195  21.167  0.00  0.00    +0.000 A 
ATOM     14  C   UNL     1       0.052  11.013  21.847  0.00  0.00    +0.000 A 
ATOM     15  C   UNL     1      -1.120  11.470  21.233  0.00  0.00    +0.000 A 
ATOM     16  C   UNL     1      -1.310  11.130  19.885  0.00  0.00    +0.000 A 
ATOM     17  C   UNL     1      -0.380  10.341  19.194  0.00  0.00    +0.000 A 
BRANCH  15  18
ATOM     18  N   UNL     1      -2.100  12.221  21.941  0.00  0.00    +0.000 N 
ATOM     19  C   UNL     1      -2.552  11.844  23.262  0.00  0.00    +0.000 C 
ATOM     20  C   UNL     1      -3.728  12.756  23.540  0.00  0.00    +0.000 C 
ATOM     21  C   UNL     1      -3.400  14.009  22.756  0.00  0.00    +0.000 C 
ATOM     22  C   UNL     1      -2.576  13.497  21.600  0.00  0.00    +0.000 C 
ATOM     23  O   UNL     1      -2.376  14.156  20.591  0.00  0.00    +0.000 OA
ENDBRANCH  15  18
ENDBRANCH  10  12
ENDBRANCH   5   8
BRANCH   7  24
ATOM     24  S   UNL     1       6.136   4.540  18.772  0.00  0.00    +0.000 S 
ATOM     25  O   UNL     1       7.248   4.468  17.849  0.00  0.00    +0.000 OA
ATOM     26  O   UNL     1       6.352   4.975  20.135  0.00  0.00    +0.000 OA
BRANCH  24  27
ATOM     27  N   UNL     1       5.446   3.003  18.818  0.00  0.00    +0.000 NA
ATOM     28  H   UNL     1       6.147   2.321  18.526  0.00  0.00    +0.000 HD
BRANCH  27  29
ATOM     29  C   UNL     1       4.714   2.649  20.047  0.00  0.00    +0.000 C 
BRANCH  29  30
ATOM     30  C   UNL     1       3.199   2.728  19.948  0.00  0.00    +0.000 A 
ATOM     31  C   UNL     1       2.454   2.929  21.126  0.00  0.00    +0.000 A 
ATOM     32  C   UNL     1       1.065   3.098  21.089  0.00  0.00    +0.000 A 
ATOM     33  C   UNL     1       0.400   3.073  19.869  0.00  0.00    +0.000 A 
ATOM     34  C   UNL     1       1.119   2.872  18.691  0.00  0.00    +0.000 A 
ATOM     35  C   UNL     1       2.511   2.706  18.726  0.00  0.00    +0.000 A 
ENDBRANCH  29  30
ENDBRANCH  27  29
ENDBRANCH  24  27
ENDBRANCH   7  24
TORSDOF 7
ENDMDL
MODEL 5
REMARK VINA RESULT:      -8.3      3.185      4.460
REMARK  Name = 
REMARK  8 active torsions:
REMARK  status: ('A' for Active; 'I' for Inactive)
REMARK    1  A    between atoms: C_1  and  C_2
REMARK    2  A    between atoms: C_5  and  C_6
REMARK    3  A    between atoms: N_8  and  C_9
REMARK    4  A    between atoms: C_12  and  N_13
REMARK    5  A    between atoms: C_22  and  S_23
REMARK    6  A    between atoms: S_23  and  N_26
REMARK    7  A    between atoms: N_26  and  C_27
REMARK    8  A    between atoms: C_27  and  C_28
REMARK                            x       y       z     vdW  Elec       q    Type
REMARK                         _______ _______ _______ _____ _____    ______ ____
ROOT
ATOM      1  C   UNL     1       4.802   2.982  17.137  0.00  0.00    +0.000 C 
ATOM      2  C   UNL     1       4.148   4.228  17.663  0.00  0.00    +0.000 A 
ATOM      3  C   UNL     1       2.738   4.303  17.643  0.00  0.00    +0.000 A 
ATOM      4  C   UNL     1       2.065   5.452  18.070  0.00  0.00    +0.000 A 
ATOM      5  C   UNL     1       2.790   6.552  18.527  0.00  0.00    +0.000 A 
ATOM      6  C   UNL     1       4.187   6.477  18.593  0.00  0.00    +0.000 A 
ATOM      7  C   UNL     1       4.872   5.334  18.147  0.00  0.00    +0.000 A 
ENDROOT
BRANCH   5   8
ATOM      8  C   UNL     1       2.071   7.796  18.925  0.00  0.00    +0.000 C 
ATOM      9  O   UNL     1       1.783   8.610  18.058  0.00  0.00    +0.000 OA
ATOM     10  N   UNL     1       1.855   7.921  20.288  0.00  0.00    +0.000 N 
ATOM     11  H   UNL     1       2.362   7.287  20.894  0.00  0.00    +0.000 HD
BRANCH  10  12
ATOM     12  C   UNL     1       1.129   8.934  20.943  0.00  0.00    +0.000 A 
ATOM     13  C   UNL     1       0.453   8.750  22.144  0.00  0.00    +0.000 A 
ATOM     14  C   UNL     1      -0.270   9.804  22.725  0.00  0.00    +0.000 A 
ATOM     15  C   UNL     1      -0.362  11.057  22.108  0.00  0.00    +0.000 A 
ATOM     16  C   UNL     1       0.355  11.238  20.916  0.00  0.00    +0.000 A 
ATOM     17  C   UNL     1       1.106  10.197  20.352  0.00  0.00    +0.000 A 
BRANCH  15  18
ATOM     18  N   UNL     1      -1.169  12.103  22.640  0.00  0.00    +0.000 N 
ATOM     19  C   UNL     1      -2.444  11.846  23.271  0.00  0.00    +0.000 C 
ATOM     20  C   UNL     1      -3.053  13.217  23.479  0.00  0.00    +0.000 C 
ATOM     21  C   UNL     1      -1.849  14.118  23.655  0.00  0.00    +0.000 C 
ATOM     22  C   UNL     1      -0.775  13.435  22.843  0.00  0.00    +0.000 C 
ATOM     23  O   UNL     1       0.247  14.005  22.493  0.00  0.00    +0.000 OA
ENDBRANCH  15  18
ENDBRANCH  10  12
ENDBRANCH   5   8
BRANCH   7  24
ATOM     24  S   UNL     1       6.657   5.481  18.008  0.00  0.00    +0.000 S 
ATOM     25  O   UNL     1       6.962   6.890  17.876  0.00  0.00    +0.000 OA
ATOM     26  O   UNL     1       7.242   4.710  19.083  0.00  0.00    +0.000 OA
BRANCH  24  27
ATOM     27  N   UNL     1       7.088   4.755  16.550  0.00  0.00    +0.000 NA
ATOM     28  H   UNL     1       6.658   3.830  16.505  0.00  0.00    +0.000 HD
BRANCH  27  29
ATOM     29  C   UNL     1       6.922   5.572  15.336  0.00  0.00    +0.000 C 
BRANCH  29  30
ATOM     30  C   UNL     1       6.522   4.807  14.084  0.00  0.00    +0.000 A 
ATOM     31  C   UNL     1       7.449   4.698  13.031  0.00  0.00    +0.000 A 
ATOM     32  C   UNL     1       7.172   3.933  11.892  0.00  0.00    +0.000 A 
ATOM     33  C   UNL     1       5.961   3.259  11.792  0.00  0.00    +0.000 A 
ATOM     34  C   UNL     1       5.027   3.356  12.824  0.00  0.00    +0.000 A 
ATOM     35  C   UNL     1       5.304   4.119  13.966  0.00  0.00    +0.000 A 
ENDBRANCH  29  30
ENDBRANCH  27  29
ENDBRANCH  24  27
ENDBRANCH   7  24
TORSDOF 7
ENDMDL
MODEL 6
REMARK VINA RESULT:      -8.2      2.632      3.465
REMARK  Name = 
REMARK  8 active torsions:
REMARK  status: ('A' for Active; 'I' for Inactive)
REMARK    1  A    between atoms: C_1  and  C_2
REMARK    2  A    between atoms: C_5  and  C_6
REMARK    3  A    between atoms: N_8  and  C_9
REMARK    4  A    between atoms: C_12  and  N_13
REMARK    5  A    between atoms: C_22  and  S_23
REMARK    6  A    between atoms: S_23  and  N_26
REMARK    7  A    between atoms: N_26  and  C_27
REMARK    8  A    between atoms: C_27  and  C_28
REMARK                            x       y       z     vdW  Elec       q    Type
REMARK                         _______ _______ _______ _____ _____    ______ ____
ROOT
ATOM      1  C   UNL     1       2.959   1.856  19.981  0.00  0.00    +0.000 C 
ATOM      2  C   UNL     1       2.719   3.339  20.007  0.00  0.00    +0.000 A 
ATOM      3  C   UNL     1       2.195   3.911  21.186  0.00  0.00    +0.000 A 
ATOM      4  C   UNL     1       1.900   5.277  21.263  0.00  0.00    +0.000 A 
ATOM      5  C   UNL     1       2.123   6.098  20.159  0.00  0.00    +0.000 A 
ATOM      6  C   UNL     1       2.682   5.554  18.996  0.00  0.00    +0.000 A 
ATOM      7  C   UNL     1       2.963   4.179  18.904  0.00  0.00    +0.000 A 
ENDROOT
BRANCH   5   8
ATOM      8  C   UNL     1       1.751   7.541  20.225  0.00  0.00    +0.000 C 
ATOM      9  O   UNL     1       2.265   8.317  19.432  0.00  0.00    +0.000 OA
ATOM     10  N   UNL     1       0.878   7.859  21.254  0.00  0.00    +0.000 N 
ATOM     11  H   UNL     1       0.733   7.156  21.968  0.00  0.00    +0.000 HD
BRANCH  10  12
ATOM     12  C   UNL     1       0.284   9.110  21.506  0.00  0.00    +0.000 A 
ATOM     13  C   UNL     1       0.161  10.117  20.555  0.00  0.00    +0.000 A 
ATOM     14  C   UNL     1      -0.424  11.348  20.890  0.00  0.00    +0.000 A 
ATOM     15  C   UNL     1      -0.872  11.618  22.188  0.00  0.00    +0.000 A 
ATOM     16  C   UNL     1      -0.774  10.581  23.127  0.00  0.00    +0.000 A 
ATOM     17  C   UNL     1      -0.222   9.338  22.786  0.00  0.00    +0.000 A 
BRANCH  15  18
ATOM     18  N   UNL     1      -1.378  12.895  22.562  0.00  0.00    +0.000 N 
ATOM     19  C   UNL     1      -2.639  13.052  23.251  0.00  0.00    +0.000 C 
ATOM     20  C   UNL     1      -2.895  14.544  23.250  0.00  0.00    +0.000 C 
ATOM     21  C   UNL     1      -1.505  15.144  23.256  0.00  0.00    +0.000 C 
ATOM     22  C   UNL     1      -0.670  14.108  22.542  0.00  0.00    +0.000 C 
ATOM     23  O   UNL     1       0.436  14.354  22.086  0.00  0.00    +0.000 OA
ENDBRANCH  15  18
ENDBRANCH  10  12
ENDBRANCH   5   8
BRANCH   7  24
ATOM     24  S   UNL     1       3.393   3.565  17.272  0.00  0.00    +0.000 S 
ATOM     25  O   UNL     1       4.359   2.502  17.453  0.00  0.00    +0.000 OA
ATOM     26  O   UNL     1       2.158   3.308  16.564  0.00  0.00    +0.000 OA
BRANCH  24  27
ATOM     27  N   UNL     1       4.197   4.818  16.481  0.00  0.00    +0.000 NA
ATOM     28  H   UNL     1       3.969   5.698  16.946  0.00  0.00    +0.000 HD
BRANCH  27  29
ATOM     29  C   UNL     1       5.631   4.613  16.217  0.00  0.00    +0.000 C 
BRANCH  29  30
ATOM     30  C   UNL     1       6.577   5.436  17.078  0.00  0.00    +0.000 A 
ATOM     31  C   UNL     1       6.786   6.789  16.752  0.00  0.00    +0.000 A 
ATOM     32  C   UNL     1       7.574   7.619  17.557  0.00  0.00    +0.000 A 
ATOM     33  C   UNL     1       8.163   7.108  18.707  0.00  0.00    +0.000 A 
ATOM     34  C   UNL     1       7.970   5.769  19.046  0.00  0.00    +0.000 A 
ATOM     35  C   UNL     1       7.178   4.937  18.243  0.00  0.00    +0.000 A 
ENDBRANCH  29  30
ENDBRANCH  27  29
ENDBRANCH  24  27
ENDBRANCH   7  24
TORSDOF 7
ENDMDL
MODEL 7
REMARK VINA RESULT:      -8.2      4.048      4.901
REMARK  Name = 
REMARK  8 active torsions:
REMARK  status: ('A' for Active; 'I' for Inactive)
REMARK    1  A    between atoms: C_1  and  C_2
REMARK    2  A    between atoms: C_5  and  C_6
REMARK    3  A    between atoms: N_8  and  C_9
REMARK    4  A    between atoms: C_12  and  N_13
REMARK    5  A    between atoms: C_22  and  S_23
REMARK    6  A    between atoms: S_23  and  N_26
REMARK    7  A    between atoms: N_26  and  C_27
REMARK    8  A    between atoms: C_27  and  C_28
REMARK                            x       y       z     vdW  Elec       q    Type
REMARK                         _______ _______ _______ _____ _____    ______ ____
ROOT
ATOM      1  C   UNL     1       2.460   2.887  20.413  0.00  0.00    +0.000 C 
ATOM      2  C   UNL     1       2.402   4.335  20.017  0.00  0.00    +0.000 A 
ATOM      3  C   UNL     1       1.822   5.252  20.919  0.00  0.00    +0.000 A 
ATOM      4  C   UNL     1       1.689   6.606  20.595  0.00  0.00    +0.000 A 
ATOM      5  C   UNL     1       2.135   7.070  19.358  0.00  0.00    +0.000 A 
ATOM      6  C   UNL     1       2.750   6.181  18.468  0.00  0.00    +0.000 A 
ATOM      7  C   UNL     1       2.870   4.815  18.779  0.00  0.00    +0.000 A 
ENDROOT
BRANCH   5   8
ATOM      8  C   UNL     1       1.936   8.503  18.992  0.00  0.00    +0.000 C 
ATOM      9  O   UNL     1       2.475   8.930  17.981  0.00  0.00    +0.000 OA
ATOM     10  N   UNL     1       1.185   9.227  19.905  0.00  0.00    +0.000 N 
ATOM     11  H   UNL     1       1.015   8.796  20.806  0.00  0.00    +0.000 HD
BRANCH  10  12
ATOM     12  C   UNL     1       0.760  10.563  19.783  0.00  0.00    +0.000 A 
ATOM     13  C   UNL     1       0.157  11.085  18.644  0.00  0.00    +0.000 A 
ATOM     14  C   UNL     1      -0.219  12.436  18.590  0.00  0.00    +0.000 A 
ATOM     15  C   UNL     1       0.024  13.308  19.658  0.00  0.00    +0.000 A 
ATOM     16  C   UNL     1       0.600  12.760  20.813  0.00  0.00    +0.000 A 
ATOM     17  C   UNL     1       0.944  11.403  20.882  0.00  0.00    +0.000 A 
BRANCH  15  18
ATOM     18  N   UNL     1      -0.267  14.699  19.577  0.00  0.00    +0.000 N 
ATOM     19  C   UNL     1      -1.372  15.298  20.291  0.00  0.00    +0.000 C 
ATOM     20  C   UNL     1      -1.454  16.712  19.758  0.00  0.00    +0.000 C 
ATOM     21  C   UNL     1      -0.022  17.036  19.386  0.00  0.00    +0.000 C 
ATOM     22  C   UNL     1       0.562  15.691  19.026  0.00  0.00    +0.000 C 
ATOM     23  O   UNL     1       1.599  15.572  18.393  0.00  0.00    +0.000 OA
ENDBRANCH  15  18
ENDBRANCH  10  12
ENDBRANCH   5   8
BRANCH   7  24
ATOM     24  S   UNL     1       3.403   3.741  17.442  0.00  0.00    +0.000 S 
ATOM     25  O   UNL     1       4.425   2.865  17.975  0.00  0.00    +0.000 OA
ATOM     26  O   UNL     1       2.215   3.183  16.832  0.00  0.00    +0.000 OA
BRANCH  24  27
ATOM     27  N   UNL     1       4.159   4.728  16.303  0.00  0.00    +0.000 NA
ATOM     28  H   UNL     1       3.810   5.681  16.413  0.00  0.00    +0.000 HD
BRANCH  27  29
ATOM     29  C   UNL     1       5.625   4.615  16.208  0.00  0.00    +0.000 C 
BRANCH  29  30
ATOM     30  C   UNL     1       6.175   4.449  14.801  0.00  0.00    +0.000 A 
ATOM     31  C   UNL     1       5.478   3.630  13.893  0.00  0.00    +0.000 A 
ATOM     32  C   UNL     1       5.886   3.508  12.560  0.00  0.00    +0.000 A 
ATOM     33  C   UNL     1       6.999   4.210  12.112  0.00  0.00    +0.000 A 
ATOM     34  C   UNL     1       7.706   5.024  12.997  0.00  0.00    +0.000 A 
ATOM     35  C   UNL     1       7.296   5.150  14.331  0.00  0.00    +0.000 A 
ENDBRANCH  29  30
ENDBRANCH  27  29
ENDBRANCH  24  27
ENDBRANCH   7  24
TORSDOF 7
ENDMDL
MODEL 8
REMARK VINA RESULT:      -8.2      3.417      5.266
REMARK  Name = 
REMARK  8 active torsions:
REMARK  status: ('A' for Active; 'I' for Inactive)
REMARK    1  A    between atoms: C_1  and  C_2
REMARK    2  A    between atoms: C_5  and  C_6
REMARK    3  A    between atoms: N_8  and  C_9
REMARK    4  A    between atoms: C_12  and  N_13
REMARK    5  A    between atoms: C_22  and  S_23
REMARK    6  A    between atoms: S_23  and  N_26
REMARK    7  A    between atoms: N_26  and  C_27
REMARK    8  A    between atoms: C_27  and  C_28
REMARK                            x       y       z     vdW  Elec       q    Type
REMARK                         _______ _______ _______ _____ _____    ______ ____
ROOT
ATOM      1  C   UNL     1       5.492   6.020  15.726  0.00  0.00    +0.000 C 
ATOM      2  C   UNL     1       4.545   6.456  16.808  0.00  0.00    +0.000 A 
ATOM      3  C   UNL     1       3.577   7.434  16.495  0.00  0.00    +0.000 A 
ATOM      4  C   UNL     1       2.696   7.922  17.466  0.00  0.00    +0.000 A 
ATOM      5  C   UNL     1       2.767   7.441  18.772  0.00  0.00    +0.000 A 
ATOM      6  C   UNL     1       3.694   6.440  19.089  0.00  0.00    +0.000 A 
ATOM      7  C   UNL     1       4.595   5.958  18.124  0.00  0.00    +0.000 A 
ENDROOT
BRANCH   5   8
ATOM      8  C   UNL     1       1.867   8.008  19.818  0.00  0.00    +0.000 C 
ATOM      9  O   UNL     1       1.648   7.349  20.825  0.00  0.00    +0.000 OA
ATOM     10  N   UNL     1       1.313   9.236  19.490  0.00  0.00    +0.000 N 
ATOM     11  H   UNL     1       1.398   9.537  18.527  0.00  0.00    +0.000 HD
BRANCH  10  12
ATOM     12  C   UNL     1       0.506  10.049  20.309  0.00  0.00    +0.000 A 
ATOM     13  C   UNL     1       0.422   9.916  21.691  0.00  0.00    +0.000 A 
ATOM     14  C   UNL     1      -0.424  10.751  22.438  0.00  0.00    +0.000 A 
ATOM     15  C   UNL     1      -1.229  11.717  21.824  0.00  0.00    +0.000 A 
ATOM     16  C   UNL     1      -1.107  11.863  20.434  0.00  0.00    +0.000 A 
ATOM     17  C   UNL     1      -0.237  11.054  19.690  0.00  0.00    +0.000 A 
BRANCH  15  18
ATOM     18  N   UNL     1      -2.160  12.503  22.560  0.00  0.00    +0.000 N 
ATOM     19  C   UNL     1      -1.742  13.429  23.589  0.00  0.00    +0.000 C 
ATOM     20  C   UNL     1      -3.028  13.872  24.253  0.00  0.00    +0.000 C 
ATOM     21  C   UNL     1      -4.053  13.781  23.142  0.00  0.00    +0.000 C 
ATOM     22  C   UNL     1      -3.521  12.677  22.261  0.00  0.00    +0.000 C 
ATOM     23  O   UNL     1      -4.213  12.107  21.431  0.00  0.00    +0.000 OA
ENDBRANCH  15  18
ENDBRANCH  10  12
ENDBRANCH   5   8
BRANCH   7  24
ATOM     24  S   UNL     1       5.916   4.902  18.730  0.00  0.00    +0.000 S 
ATOM     25  O   UNL     1       7.050   5.085  17.849  0.00  0.00    +0.000 OA
ATOM     26  O   UNL     1       6.053   5.148  20.149  0.00  0.00    +0.000 OA
BRANCH  24  27
ATOM     27  N   UNL     1       5.396   3.312  18.523  0.00  0.00    +0.000 NA
ATOM     28  H   UNL     1       5.647   2.775  19.354  0.00  0.00    +0.000 HD
BRANCH  27  29
ATOM     29  C   UNL     1       4.007   3.131  18.067  0.00  0.00    +0.000 C 
BRANCH  29  30
ATOM     30  C   UNL     1       2.971   3.002  19.172  0.00  0.00    +0.000 A 
ATOM     31  C   UNL     1       3.400   2.645  20.465  0.00  0.00    +0.000 A 
ATOM     32  C   UNL     1       2.507   2.597  21.541  0.00  0.00    +0.000 A 
ATOM     33  C   UNL     1       1.168   2.910  21.341  0.00  0.00    +0.000 A 
ATOM     34  C   UNL     1       0.722   3.263  20.067  0.00  0.00    +0.000 A 
ATOM     35  C   UNL     1       1.616   3.315  18.989  0.00  0.00    +0.000 A 
ENDBRANCH  29  30
ENDBRANCH  27  29
ENDBRANCH  24  27
ENDBRANCH   7  24
TORSDOF 7
ENDMDL
MODEL 9
REMARK VINA RESULT:      -8.2      2.867      3.823
REMARK  Name = 
REMARK  8 active torsions:
REMARK  status: ('A' for Active; 'I' for Inactive)
REMARK    1  A    between atoms: C_1  and  C_2
REMARK    2  A    between atoms: C_5  and  C_6
REMARK    3  A    between atoms: N_8  and  C_9
REMARK    4  A    between atoms: C_12  and  N_13
REMARK    5  A    between atoms: C_22  and  S_23
REMARK    6  A    between atoms: S_23  and  N_26
REMARK    7  A    between atoms: N_26  and  C_27
REMARK    8  A    between atoms: C_27  and  C_28
REMARK                            x       y       z     vdW  Elec       q    Type
REMARK                         _______ _______ _______ _____ _____    ______ ____
ROOT
ATOM      1  C   UNL     1       1.973   2.261  20.448  0.00  0.00    +0.000 C 
ATOM      2  C   UNL     1       2.071   3.724  20.117  0.00  0.00    +0.000 A 
ATOM      3  C   UNL     1       1.231   4.623  20.809  0.00  0.00    +0.000 A 
ATOM      4  C   UNL     1       1.234   5.991  20.517  0.00  0.00    +0.000 A 
ATOM      5  C   UNL     1       2.079   6.487  19.526  0.00  0.00    +0.000 A 
ATOM      6  C   UNL     1       2.948   5.614  18.860  0.00  0.00    +0.000 A 
ATOM      7  C   UNL     1       2.938   4.236  19.133  0.00  0.00    +0.000 A 
ENDROOT
BRANCH   5   8
ATOM      8  C   UNL     1       2.035   7.937  19.176  0.00  0.00    +0.000 C 
ATOM      9  O   UNL     1       2.753   8.345  18.273  0.00  0.00    +0.000 OA
ATOM     10  N   UNL     1       1.200   8.694  19.983  0.00  0.00    +0.000 N 
ATOM     11  H   UNL     1       0.863   8.259  20.833  0.00  0.00    +0.000 HD
BRANCH  10  12
ATOM     12  C   UNL     1       0.888  10.059  19.836  0.00  0.00    +0.000 A 
ATOM     13  C   UNL     1       0.421  10.625  18.656  0.00  0.00    +0.000 A 
ATOM     14  C   UNL     1       0.153  12.002  18.581  0.00  0.00    +0.000 A 
ATOM     15  C   UNL     1       0.374  12.852  19.671  0.00  0.00    +0.000 A 
ATOM     16  C   UNL     1       0.811  12.260  20.865  0.00  0.00    +0.000 A 
ATOM     17  C   UNL     1       1.046  10.881  20.953  0.00  0.00    +0.000 A 
BRANCH  15  18
ATOM     18  N   UNL     1       0.196  14.261  19.577  0.00  0.00    +0.000 N 
ATOM     19  C   UNL     1       1.133  15.110  18.874  0.00  0.00    +0.000 C 
ATOM     20  C   UNL     1       0.697  16.520  19.208  0.00  0.00    +0.000 C 
ATOM     21  C   UNL     1      -0.797  16.393  19.419  0.00  0.00    +0.000 C 
ATOM     22  C   UNL     1      -0.963  14.977  19.917  0.00  0.00    +0.000 C 
ATOM     23  O   UNL     1      -1.977  14.592  20.478  0.00  0.00    +0.000 OA
ENDBRANCH  15  18
ENDBRANCH  10  12
ENDBRANCH   5   8
BRANCH   7  24
ATOM     24  S   UNL     1       3.879   3.196  18.010  0.00  0.00    +0.000 S 
ATOM     25  O   UNL     1       5.028   2.705  18.741  0.00  0.00    +0.000 OA
ATOM     26  O   UNL     1       2.955   2.266  17.401  0.00  0.00    +0.000 OA
BRANCH  24  27
ATOM     27  N   UNL     1       4.474   4.209  16.801  0.00  0.00    +0.000 NA
ATOM     28  H   UNL     1       4.103   5.149  16.949  0.00  0.00    +0.000 HD
BRANCH  27  29
ATOM     29  C   UNL     1       5.925   4.150  16.552  0.00  0.00    +0.000 C 
BRANCH  29  30
ATOM     30  C   UNL     1       6.747   5.233  17.233  0.00  0.00    +0.000 A 
ATOM     31  C   UNL     1       6.716   6.538  16.707  0.00  0.00    +0.000 A 
ATOM     32  C   UNL     1       7.381   7.594  17.341  0.00  0.00    +0.000 A 
ATOM     33  C   UNL     1       8.085   7.360  18.516  0.00  0.00    +0.000 A 
ATOM     34  C   UNL     1       8.131   6.073  19.051  0.00  0.00    +0.000 A 
ATOM     35  C   UNL     1       7.463   5.015  18.419  0.00  0.00    +0.000 A 
ENDBRANCH  29  30
ENDBRANCH  27  29
ENDBRANCH  24  27
ENDBRANCH   7  24
TORSDOF 7
ENDMDL
