MODEL 1
REMARK VINA RESULT:      -8.7      0.000      0.000
REMARK  Name = 
REMARK  4 active torsions:
REMARK  status: ('A' for Active; 'I' for Inactive)
REMARK    1  A    between atoms: N_1  and  S_2
REMARK    2  A    between atoms: S_2  and  N_5
REMARK    3  A    between atoms: C_11  and  N_12
REMARK    4  A    between atoms: C_13  and  C_15
REMARK                            x       y       z     vdW  Elec       q    Type
REMARK                         _______ _______ _______ _____ _____    ______ ____
ROOT
ATOM      1  N   UNL     1      -1.484  10.827  19.592  0.00  0.00    +0.000 N 
ATOM      2  C   UNL     1      -1.850  12.082  20.303  0.00  0.00    +0.000 C 
ATOM      3  C   UNL     1      -0.928  12.164  21.528  0.00  0.00    +0.000 C 
ATOM      4  C   UNL     1      -0.199  10.861  21.481  0.00  0.00    +0.000 A 
ATOM      5  C   UNL     1       0.629  10.353  22.461  0.00  0.00    +0.000 A 
ATOM      6  C   UNL     1       1.220   9.110  22.245  0.00  0.00    +0.000 A 
ATOM      7  C   UNL     1       1.010   8.383  21.059  0.00  0.00    +0.000 A 
ATOM      8  C   UNL     1       0.151   8.922  20.077  0.00  0.00    +0.000 A 
ATOM      9  C   UNL     1      -0.447  10.163  20.301  0.00  0.00    +0.000 A 
ENDROOT
BRANCH   7  10
ATOM     10  N   UNL     1       1.600   7.107  20.841  0.00  0.00    +0.000 N 
ATOM     11  C   UNL     1       2.405   6.743  19.763  0.00  0.00    +0.000 C 
ATOM     12  O   UNL     1       2.613   7.436  18.770  0.00  0.00    +0.000 OA
ATOM     13  H   UNL     1       1.404   6.398  21.538  0.00  0.00    +0.000 HD
BRANCH  11  14
ATOM     14  C   UNL     1       3.020   5.335  19.868  0.00  0.00    +0.000 C 
ATOM     15  C   UNL     1       3.260   4.681  18.488  0.00  0.00    +0.000 C 
ATOM     16  C   UNL     1       4.044   3.367  18.699  0.00  0.00    +0.000 C 
ATOM     17  C   UNL     1       3.233   2.391  19.568  0.00  0.00    +0.000 C 
ATOM     18  C   UNL     1       1.902   2.081  18.860  0.00  0.00    +0.000 C 
ATOM     19  C   UNL     1       1.097   3.376  18.673  0.00  0.00    +0.000 C 
ATOM     20  C   UNL     1       1.910   4.359  17.816  0.00  0.00    +0.000 C 
ATOM     21  C   UNL     1       0.830   4.001  20.050  0.00  0.00    +0.000 C 
ATOM     22  C   UNL     1       2.165   4.361  20.739  0.00  0.00    +0.000 C 
ATOM     23  C   UNL     1       2.949   3.045  20.934  0.00  0.00    +0.000 C 
ENDBRANCH  11  14
ENDBRANCH   7  10
BRANCH   1  24
ATOM     24  S   UNL     1      -1.851  10.681  17.984  0.00  0.00    +0.000 S 
ATOM     25  O   UNL     1      -3.276  10.507  17.822  0.00  0.00    +0.000 OA
ATOM     26  O   UNL     1      -0.896   9.839  17.313  0.00  0.00    +0.000 OA
BRANCH  24  27
ATOM     27  N   UNL     1      -1.515  12.230  17.455  0.00  0.00    +0.000 NA
ATOM     28  H   UNL     1      -1.670  12.254  16.445  0.00  0.00    +0.000 HD
ATOM     29  H   UNL     1      -0.546  12.452  17.673  0.00  0.00    +0.000 HD
ENDBRANCH  24  27
ENDBRANCH   1  24
TORSDOF 4
ENDMDL
MODEL 2
REMARK VINA RESULT:      -8.6      2.478      2.970
REMARK  Name = 
REMARK  4 active torsions:
REMARK  status: ('A' for Active; 'I' for Inactive)
REMARK    1  A    between atoms: N_1  and  S_2
REMARK    2  A    between atoms: S_2  and  N_5
REMARK    3  A    between atoms: C_11  and  N_12
REMARK    4  A    between atoms: C_13  and  C_15
REMARK                            x       y       z     vdW  Elec       q    Type
REMARK                         _______ _______ _______ _____ _____    ______ ____
ROOT
ATOM      1  N   UNL     1       0.110  10.726  21.547  0.00  0.00    +0.000 N 
ATOM      2  C   UNL     1      -0.401  12.065  21.144  0.00  0.00    +0.000 C 
ATOM      3  C   UNL     1      -0.186  12.166  19.627  0.00  0.00    +0.000 C 
ATOM      4  C   UNL     1       0.562  10.911  19.315  0.00  0.00    +0.000 A 
ATOM      5  C   UNL     1       1.154  10.592  18.110  0.00  0.00    +0.000 A 
ATOM      6  C   UNL     1       1.821   9.373  18.006  0.00  0.00    +0.000 A 
ATOM      7  C   UNL     1       1.883   8.466  19.079  0.00  0.00    +0.000 A 
ATOM      8  C   UNL     1       1.275   8.821  20.303  0.00  0.00    +0.000 A 
ATOM      9  C   UNL     1       0.617  10.047  20.406  0.00  0.00    +0.000 A 
ENDROOT
BRANCH   7  10
ATOM     10  N   UNL     1       2.574   7.226  18.981  0.00  0.00    +0.000 N 
ATOM     11  C   UNL     1       2.419   6.125  19.821  0.00  0.00    +0.000 C 
ATOM     12  O   UNL     1       1.757   6.114  20.857  0.00  0.00    +0.000 OA
ATOM     13  H   UNL     1       3.247   7.147  18.228  0.00  0.00    +0.000 HD
BRANCH  11  14
ATOM     14  C   UNL     1       3.194   4.869  19.384  0.00  0.00    +0.000 C 
ATOM     15  C   UNL     1       2.968   4.512  17.896  0.00  0.00    +0.000 C 
ATOM     16  C   UNL     1       3.927   3.363  17.517  0.00  0.00    +0.000 C 
ATOM     17  C   UNL     1       3.635   2.116  18.368  0.00  0.00    +0.000 C 
ATOM     18  C   UNL     1       2.183   1.670  18.118  0.00  0.00    +0.000 C 
ATOM     19  C   UNL     1       1.216   2.793  18.523  0.00  0.00    +0.000 C 
ATOM     20  C   UNL     1       1.513   4.046  17.682  0.00  0.00    +0.000 C 
ATOM     21  C   UNL     1       1.420   3.117  20.009  0.00  0.00    +0.000 C 
ATOM     22  C   UNL     1       2.863   3.615  20.252  0.00  0.00    +0.000 C 
ATOM     23  C   UNL     1       3.816   2.466  19.858  0.00  0.00    +0.000 C 
ENDBRANCH  11  14
ENDBRANCH   7  10
BRANCH   1  24
ATOM     24  S   UNL     1      -0.442  10.049  22.954  0.00  0.00    +0.000 S 
ATOM     25  O   UNL     1      -1.625  10.746  23.401  0.00  0.00    +0.000 OA
ATOM     26  O   UNL     1       0.651   9.749  23.842  0.00  0.00    +0.000 OA
BRANCH  24  27
ATOM     27  N   UNL     1      -0.967   8.566  22.391  0.00  0.00    +0.000 NA
ATOM     28  H   UNL     1      -1.737   8.736  21.742  0.00  0.00    +0.000 HD
ATOM     29  H   UNL     1      -1.282   8.005  23.179  0.00  0.00    +0.000 HD
ENDBRANCH  24  27
ENDBRANCH   1  24
TORSDOF 4
ENDMDL
MODEL 3
REMARK VINA RESULT:      -8.6      1.259      1.452
REMARK  Name = 
REMARK  4 active torsions:
REMARK  status: ('A' for Active; 'I' for Inactive)
REMARK    1  A    between atoms: N_1  and  S_2
REMARK    2  A    between atoms: S_2  and  N_5
REMARK    3  A    between atoms: C_11  and  N_12
REMARK    4  A    between atoms: C_13  and  C_15
REMARK                            x       y       z     vdW  Elec       q    Type
REMARK                         _______ _______ _______ _____ _____    ______ ____
ROOT
ATOM      1  N   UNL     1      -1.372  11.144  19.914  0.00  0.00    +0.000 N 
ATOM      2  C   UNL     1      -2.086  11.936  20.953  0.00  0.00    +0.000 C 
ATOM      3  C   UNL     1      -1.389  11.621  22.284  0.00  0.00    +0.000 C 
ATOM      4  C   UNL     1      -0.412  10.558  21.903  0.00  0.00    +0.000 A 
ATOM      5  C   UNL     1       0.351   9.800  22.768  0.00  0.00    +0.000 A 
ATOM      6  C   UNL     1       1.207   8.844  22.227  0.00  0.00    +0.000 A 
ATOM      7  C   UNL     1       1.324   8.651  20.839  0.00  0.00    +0.000 A 
ATOM      8  C   UNL     1       0.527   9.434  19.976  0.00  0.00    +0.000 A 
ATOM      9  C   UNL     1      -0.337  10.384  20.522  0.00  0.00    +0.000 A 
ENDROOT
BRANCH   7  10
ATOM     10  N   UNL     1       2.187   7.666  20.283  0.00  0.00    +0.000 N 
ATOM     11  C   UNL     1       2.008   6.285  20.336  0.00  0.00    +0.000 C 
ATOM     12  O   UNL     1       1.142   5.710  20.992  0.00  0.00    +0.000 OA
ATOM     13  H   UNL     1       3.015   8.011  19.810  0.00  0.00    +0.000 HD
BRANCH  11  14
ATOM     14  C   UNL     1       3.030   5.473  19.520  0.00  0.00    +0.000 C 
ATOM     15  C   UNL     1       2.696   5.433  18.010  0.00  0.00    +0.000 C 
ATOM     16  C   UNL     1       3.871   4.761  17.267  0.00  0.00    +0.000 C 
ATOM     17  C   UNL     1       4.066   3.319  17.762  0.00  0.00    +0.000 C 
ATOM     18  C   UNL     1       2.776   2.522  17.498  0.00  0.00    +0.000 C 
ATOM     19  C   UNL     1       1.605   3.161  18.260  0.00  0.00    +0.000 C 
ATOM     20  C   UNL     1       1.414   4.608  17.776  0.00  0.00    +0.000 C 
ATOM     21  C   UNL     1       1.925   3.164  19.761  0.00  0.00    +0.000 C 
ATOM     22  C   UNL     1       3.191   4.008  20.032  0.00  0.00    +0.000 C 
ATOM     23  C   UNL     1       4.359   3.338  19.275  0.00  0.00    +0.000 C 
ENDBRANCH  11  14
ENDBRANCH   7  10
BRANCH   1  24
ATOM     24  S   UNL     1      -1.464  11.631  18.334  0.00  0.00    +0.000 S 
ATOM     25  O   UNL     1      -1.376  10.482  17.463  0.00  0.00    +0.000 OA
ATOM     26  O   UNL     1      -0.680  12.818  18.116  0.00  0.00    +0.000 OA
BRANCH  24  27
ATOM     27  N   UNL     1      -3.055  12.138  18.265  0.00  0.00    +0.000 NA
ATOM     28  H   UNL     1      -3.085  13.108  18.586  0.00  0.00    +0.000 HD
ATOM     29  H   UNL     1      -3.619  11.544  18.869  0.00  0.00    +0.000 HD
ENDBRANCH  24  27
ENDBRANCH   1  24
TORSDOF 4
ENDMDL
MODEL 4
REMARK VINA RESULT:      -8.6      2.521      3.167
REMARK  Name = 
REMARK  4 active torsions:
REMARK  status: ('A' for Active; 'I' for Inactive)
REMARK    1  A    between atoms: N_1  and  S_2
REMARK    2  A    between atoms: S_2  and  N_5
REMARK    3  A    between atoms: C_11  and  N_12
REMARK    4  A    between atoms: C_13  and  C_15
REMARK                            x       y       z     vdW  Elec       q    Type
REMARK                         _______ _______ _______ _____ _____    ______ ____
ROOT
ATOM      1  N   UNL     1       0.644  10.353  21.429  0.00  0.00    +0.000 N 
ATOM      2  C   UNL     1       0.420  11.789  21.106  0.00  0.00    +0.000 C 
ATOM      3  C   UNL     1       0.685  11.935  19.601  0.00  0.00    +0.000 C 
ATOM      4  C   UNL     1       1.175  10.578  19.218  0.00  0.00    +0.000 A 
ATOM      5  C   UNL     1       1.720  10.218  18.002  0.00  0.00    +0.000 A 
ATOM      6  C   UNL     1       2.132   8.899  17.828  0.00  0.00    +0.000 A 
ATOM      7  C   UNL     1       1.987   7.935  18.842  0.00  0.00    +0.000 A 
ATOM      8  C   UNL     1       1.435   8.331  20.079  0.00  0.00    +0.000 A 
ATOM      9  C   UNL     1       1.032   9.656  20.253  0.00  0.00    +0.000 A 
ENDROOT
BRANCH   7  10
ATOM     10  N   UNL     1       2.419   6.590  18.673  0.00  0.00    +0.000 N 
ATOM     11  C   UNL     1       3.635   6.174  18.134  0.00  0.00    +0.000 C 
ATOM     12  O   UNL     1       4.460   6.911  17.599  0.00  0.00    +0.000 OA
ATOM     13  H   UNL     1       1.769   5.871  18.969  0.00  0.00    +0.000 HD
BRANCH  11  14
ATOM     14  C   UNL     1       3.885   4.657  18.211  0.00  0.00    +0.000 C 
ATOM     15  C   UNL     1       2.901   3.841  17.341  0.00  0.00    +0.000 C 
ATOM     16  C   UNL     1       3.354   2.365  17.343  0.00  0.00    +0.000 C 
ATOM     17  C   UNL     1       3.328   1.797  18.771  0.00  0.00    +0.000 C 
ATOM     18  C   UNL     1       1.893   1.889  19.319  0.00  0.00    +0.000 C 
ATOM     19  C   UNL     1       1.442   3.357  19.354  0.00  0.00    +0.000 C 
ATOM     20  C   UNL     1       1.478   3.933  17.929  0.00  0.00    +0.000 C 
ATOM     21  C   UNL     1       2.401   4.154  20.250  0.00  0.00    +0.000 C 
ATOM     22  C   UNL     1       3.833   4.105  19.670  0.00  0.00    +0.000 C 
ATOM     23  C   UNL     1       4.274   2.625  19.662  0.00  0.00    +0.000 C 
ENDBRANCH  11  14
ENDBRANCH   7  10
BRANCH   1  24
ATOM     24  S   UNL     1      -0.064   9.718  22.784  0.00  0.00    +0.000 S 
ATOM     25  O   UNL     1       0.911   9.620  23.845  0.00  0.00    +0.000 OA
ATOM     26  O   UNL     1      -0.937   8.625  22.443  0.00  0.00    +0.000 OA
BRANCH  24  27
ATOM     27  N   UNL     1      -1.082  10.972  23.211  0.00  0.00    +0.000 NA
ATOM     28  H   UNL     1      -1.941  10.874  22.667  0.00  0.00    +0.000 HD
ATOM     29  H   UNL     1      -0.625  11.857  22.999  0.00  0.00    +0.000 HD
ENDBRANCH  24  27
ENDBRANCH   1  24
TORSDOF 4
ENDMDL
MODEL 5
REMARK VINA RESULT:      -8.3      1.878      2.081
REMARK  Name = 
REMARK  4 active torsions:
REMARK  status: ('A' for Active; 'I' for Inactive)
REMARK    1  A    between atoms: N_1  and  S_2
REMARK    2  A    between atoms: S_2  and  N_5
REMARK    3  A    between atoms: C_11  and  N_12
REMARK    4  A    between atoms: C_13  and  C_15
REMARK                            x       y       z     vdW  Elec       q    Type
REMARK                         _______ _______ _______ _____ _____    ______ ____
ROOT
ATOM      1  N   UNL     1       0.597  12.021  20.308  0.00  0.00    +0.000 N 
ATOM      2  C   UNL     1      -0.330  12.941  21.021  0.00  0.00    +0.000 C 
ATOM      3  C   UNL     1      -0.866  12.157  22.228  0.00  0.00    +0.000 C 
ATOM      4  C   UNL     1      -0.292  10.794  22.018  0.00  0.00    +0.000 A 
ATOM      5  C   UNL     1      -0.609   9.656  22.732  0.00  0.00    +0.000 A 
ATOM      6  C   UNL     1       0.026   8.464  22.387  0.00  0.00    +0.000 A 
ATOM      7  C   UNL     1       0.981   8.402  21.357  0.00  0.00    +0.000 A 
ATOM      8  C   UNL     1       1.280   9.579  20.638  0.00  0.00    +0.000 A 
ATOM      9  C   UNL     1       0.636  10.769  20.980  0.00  0.00    +0.000 A 
ENDROOT
BRANCH   7  10
ATOM     10  N   UNL     1       1.621   7.184  20.993  0.00  0.00    +0.000 N 
ATOM     11  C   UNL     1       2.249   6.912  19.779  0.00  0.00    +0.000 C 
ATOM     12  O   UNL     1       2.224   7.642  18.791  0.00  0.00    +0.000 OA
ATOM     13  H   UNL     1       1.606   6.446  21.687  0.00  0.00    +0.000 HD
BRANCH  11  14
ATOM     14  C   UNL     1       2.980   5.559  19.724  0.00  0.00    +0.000 C 
ATOM     15  C   UNL     1       3.086   4.991  18.290  0.00  0.00    +0.000 C 
ATOM     16  C   UNL     1       3.990   3.740  18.324  0.00  0.00    +0.000 C 
ATOM     17  C   UNL     1       3.380   2.660  19.232  0.00  0.00    +0.000 C 
ATOM     18  C   UNL     1       1.996   2.271  18.685  0.00  0.00    +0.000 C 
ATOM     19  C   UNL     1       1.075   3.500  18.677  0.00  0.00    +0.000 C 
ATOM     20  C   UNL     1       1.687   4.588  17.779  0.00  0.00    +0.000 C 
ATOM     21  C   UNL     1       0.944   4.037  20.109  0.00  0.00    +0.000 C 
ATOM     22  C   UNL     1       2.327   4.477  20.640  0.00  0.00    +0.000 C 
ATOM     23  C   UNL     1       3.230   3.224  20.658  0.00  0.00    +0.000 C 
ENDBRANCH  11  14
ENDBRANCH   7  10
BRANCH   1  24
ATOM     24  S   UNL     1       1.758  12.664  19.318  0.00  0.00    +0.000 S 
ATOM     25  O   UNL     1       2.112  11.708  18.295  0.00  0.00    +0.000 OA
ATOM     26  O   UNL     1       2.753  13.369  20.083  0.00  0.00    +0.000 OA
BRANCH  24  27
ATOM     27  N   UNL     1       0.874  13.854  18.548  0.00  0.00    +0.000 NA
ATOM     28  H   UNL     1       0.506  13.457  17.681  0.00  0.00    +0.000 HD
ATOM     29  H   UNL     1       1.484  14.644  18.348  0.00  0.00    +0.000 HD
ENDBRANCH  24  27
ENDBRANCH   1  24
TORSDOF 4
ENDMDL
MODEL 6
REMARK VINA RESULT:      -8.3      1.274      1.440
REMARK  Name = 
REMARK  4 active torsions:
REMARK  status: ('A' for Active; 'I' for Inactive)
REMARK    1  A    between atoms: N_1  and  S_2
REMARK    2  A    between atoms: S_2  and  N_5
REMARK    3  A    between atoms: C_11  and  N_12
REMARK    4  A    between atoms: C_13  and  C_15
REMARK                            x       y       z     vdW  Elec       q    Type
REMARK                         _______ _______ _______ _____ _____    ______ ____
ROOT
ATOM      1  N   UNL     1      -0.595  11.591  20.045  0.00  0.00    +0.000 N 
ATOM      2  C   UNL     1      -1.310  12.558  20.922  0.00  0.00    +0.000 C 
ATOM      3  C   UNL     1      -1.139  12.041  22.358  0.00  0.00    +0.000 C 
ATOM      4  C   UNL     1      -0.446  10.733  22.157  0.00  0.00    +0.000 A 
ATOM      5  C   UNL     1      -0.212   9.777  23.124  0.00  0.00    +0.000 A 
ATOM      6  C   UNL     1       0.445   8.607  22.748  0.00  0.00    +0.000 A 
ATOM      7  C   UNL     1       0.887   8.393  21.430  0.00  0.00    +0.000 A 
ATOM      8  C   UNL     1       0.627   9.384  20.459  0.00  0.00    +0.000 A 
ATOM      9  C   UNL     1      -0.040  10.550  20.837  0.00  0.00    +0.000 A 
ENDROOT
BRANCH   7  10
ATOM     10  N   UNL     1       1.546   7.195  21.040  0.00  0.00    +0.000 N 
ATOM     11  C   UNL     1       2.245   6.985  19.852  0.00  0.00    +0.000 C 
ATOM     12  O   UNL     1       2.277   7.767  18.905  0.00  0.00    +0.000 OA
ATOM     13  H   UNL     1       1.491   6.421  21.692  0.00  0.00    +0.000 HD
BRANCH  11  14
ATOM     14  C   UNL     1       2.977   5.634  19.768  0.00  0.00    +0.000 C 
ATOM     15  C   UNL     1       3.084   5.097  18.322  0.00  0.00    +0.000 C 
ATOM     16  C   UNL     1       3.989   3.847  18.329  0.00  0.00    +0.000 C 
ATOM     17  C   UNL     1       3.381   2.747  19.213  0.00  0.00    +0.000 C 
ATOM     18  C   UNL     1       1.996   2.369  18.657  0.00  0.00    +0.000 C 
ATOM     19  C   UNL     1       1.074   3.597  18.675  0.00  0.00    +0.000 C 
ATOM     20  C   UNL     1       1.686   4.704  17.802  0.00  0.00    +0.000 C 
ATOM     21  C   UNL     1       0.942   4.102  20.119  0.00  0.00    +0.000 C 
ATOM     22  C   UNL     1       2.325   4.531  20.660  0.00  0.00    +0.000 C 
ATOM     23  C   UNL     1       3.229   3.279  20.651  0.00  0.00    +0.000 C 
ENDBRANCH  11  14
ENDBRANCH   7  10
BRANCH   1  24
ATOM     24  S   UNL     1      -0.093  12.088  18.547  0.00  0.00    +0.000 S 
ATOM     25  O   UNL     1       1.340  11.945  18.439  0.00  0.00    +0.000 OA
ATOM     26  O   UNL     1      -0.774  13.294  18.152  0.00  0.00    +0.000 OA
BRANCH  24  27
ATOM     27  N   UNL     1      -0.748  10.884  17.593  0.00  0.00    +0.000 NA
ATOM     28  H   UNL     1      -0.948  10.084  18.196  0.00  0.00    +0.000 HD
ATOM     29  H   UNL     1      -0.076  10.628  16.873  0.00  0.00    +0.000 HD
ENDBRANCH  24  27
ENDBRANCH   1  24
TORSDOF 4
ENDMDL
MODEL 7
REMARK VINA RESULT:      -8.1      2.495      2.937
REMARK  Name = 
REMARK  4 active torsions:
REMARK  status: ('A' for Active; 'I' for Inactive)
REMARK    1  A    between atoms: N_1  and  S_2
REMARK    2  A    between atoms: S_2  and  N_5
REMARK    3  A    between atoms: C_11  and  N_12
REMARK    4  A    between atoms: C_13  and  C_15
REMARK                            x       y       z     vdW  Elec       q    Type
REMARK                         _______ _______ _______ _____ _____    ______ ____
ROOT
ATOM      1  N   UNL     1       0.302  11.841  20.986  0.00  0.00    +0.000 N 
ATOM      2  C   UNL     1       0.330  13.169  20.315  0.00  0.00    +0.000 C 
ATOM      3  C   UNL     1       0.826  12.915  18.884  0.00  0.00    +0.000 C 
ATOM      4  C   UNL     1       1.171  11.462  18.907  0.00  0.00    +0.000 A 
ATOM      5  C   UNL     1       1.829  10.763  17.915  0.00  0.00    +0.000 A 
ATOM      6  C   UNL     1       2.073   9.406  18.116  0.00  0.00    +0.000 A 
ATOM      7  C   UNL     1       1.651   8.740  19.280  0.00  0.00    +0.000 A 
ATOM      8  C   UNL     1       0.987   9.480  20.282  0.00  0.00    +0.000 A 
ATOM      9  C   UNL     1       0.753  10.842  20.082  0.00  0.00    +0.000 A 
ENDROOT
BRANCH   7  10
ATOM     10  N   UNL     1       1.910   7.357  19.495  0.00  0.00    +0.000 N 
ATOM     11  C   UNL     1       2.975   6.625  18.974  0.00  0.00    +0.000 C 
ATOM     12  O   UNL     1       3.775   7.039  18.138  0.00  0.00    +0.000 OA
ATOM     13  H   UNL     1       1.245   6.864  20.080  0.00  0.00    +0.000 HD
BRANCH  11  14
ATOM     14  C   UNL     1       3.077   5.181  19.497  0.00  0.00    +0.000 C 
ATOM     15  C   UNL     1       4.223   4.383  18.833  0.00  0.00    +0.000 C 
ATOM     16  C   UNL     1       4.356   3.024  19.556  0.00  0.00    +0.000 C 
ATOM     17  C   UNL     1       3.057   2.215  19.422  0.00  0.00    +0.000 C 
ATOM     18  C   UNL     1       2.772   1.970  17.930  0.00  0.00    +0.000 C 
ATOM     19  C   UNL     1       2.604   3.314  17.204  0.00  0.00    +0.000 C 
ATOM     20  C   UNL     1       3.898   4.132  17.346  0.00  0.00    +0.000 C 
ATOM     21  C   UNL     1       1.441   4.086  17.843  0.00  0.00    +0.000 C 
ATOM     22  C   UNL     1       1.750   4.377  19.329  0.00  0.00    +0.000 C 
ATOM     23  C   UNL     1       1.895   3.015  20.042  0.00  0.00    +0.000 C 
ENDBRANCH  11  14
ENDBRANCH   7  10
BRANCH   1  24
ATOM     24  S   UNL     1      -0.675  11.631  22.307  0.00  0.00    +0.000 S 
ATOM     25  O   UNL     1      -0.122  10.611  23.166  0.00  0.00    +0.000 OA
ATOM     26  O   UNL     1      -2.063  11.642  21.925  0.00  0.00    +0.000 OA
BRANCH  24  27
ATOM     27  N   UNL     1      -0.428  13.082  23.098  0.00  0.00    +0.000 NA
ATOM     28  H   UNL     1       0.580  13.212  23.202  0.00  0.00    +0.000 HD
ATOM     29  H   UNL     1      -0.879  13.043  24.010  0.00  0.00    +0.000 HD
ENDBRANCH  24  27
ENDBRANCH   1  24
TORSDOF 4
ENDMDL
MODEL 8
REMARK VINA RESULT:      -8.1      2.478      3.568
REMARK  Name = 
REMARK  4 active torsions:
REMARK  status: ('A' for Active; 'I' for Inactive)
REMARK    1  A    between atoms: N_1  and  S_2
REMARK    2  A    between atoms: S_2  and  N_5
REMARK    3  A    between atoms: C_11  and  N_12
REMARK    4  A    between atoms: C_13  and  C_15
REMARK                            x       y       z     vdW  Elec       q    Type
REMARK                         _______ _______ _______ _____ _____    ______ ____
ROOT
ATOM      1  N   UNL     1      -0.316  11.595  19.832  0.00  0.00    +0.000 N 
ATOM      2  C   UNL     1      -1.029  11.914  21.099  0.00  0.00    +0.000 C 
ATOM      3  C   UNL     1      -0.598  10.844  22.113  0.00  0.00    +0.000 C 
ATOM      4  C   UNL     1       0.229   9.918  21.284  0.00  0.00    +0.000 A 
ATOM      5  C   UNL     1       0.717   8.687  21.675  0.00  0.00    +0.000 A 
ATOM      6  C   UNL     1       1.469   7.955  20.758  0.00  0.00    +0.000 A 
ATOM      7  C   UNL     1       1.753   8.444  19.471  0.00  0.00    +0.000 A 
ATOM      8  C   UNL     1       1.235   9.702  19.094  0.00  0.00    +0.000 A 
ATOM      9  C   UNL     1       0.474  10.428  20.011  0.00  0.00    +0.000 A 
ENDROOT
BRANCH   7  10
ATOM     10  N   UNL     1       2.509   7.693  18.527  0.00  0.00    +0.000 N 
ATOM     11  C   UNL     1       3.071   6.435  18.733  0.00  0.00    +0.000 C 
ATOM     12  O   UNL     1       3.111   5.846  19.811  0.00  0.00    +0.000 OA
ATOM     13  H   UNL     1       2.653   8.127  17.623  0.00  0.00    +0.000 HD
BRANCH  11  14
ATOM     14  C   UNL     1       3.710   5.806  17.481  0.00  0.00    +0.000 C 
ATOM     15  C   UNL     1       4.360   4.432  17.766  0.00  0.00    +0.000 C 
ATOM     16  C   UNL     1       4.799   3.811  16.422  0.00  0.00    +0.000 C 
ATOM     17  C   UNL     1       5.839   4.707  15.730  0.00  0.00    +0.000 C 
ATOM     18  C   UNL     1       7.065   4.850  16.649  0.00  0.00    +0.000 C 
ATOM     19  C   UNL     1       6.647   5.498  17.978  0.00  0.00    +0.000 C 
ATOM     20  C   UNL     1       5.598   4.610  18.667  0.00  0.00    +0.000 C 
ATOM     21  C   UNL     1       6.038   6.878  17.692  0.00  0.00    +0.000 C 
ATOM     22  C   UNL     1       4.776   6.730  16.812  0.00  0.00    +0.000 C 
ATOM     23  C   UNL     1       5.221   6.096  15.476  0.00  0.00    +0.000 C 
ENDBRANCH  11  14
ENDBRANCH   7  10
BRANCH   1  24
ATOM     24  S   UNL     1      -0.092  12.797  18.715  0.00  0.00    +0.000 S 
ATOM     25  O   UNL     1       1.269  12.769  18.234  0.00  0.00    +0.000 OA
ATOM     26  O   UNL     1      -0.729  14.017  19.139  0.00  0.00    +0.000 OA
BRANCH  24  27
ATOM     27  N   UNL     1      -1.035  12.225  17.461  0.00  0.00    +0.000 NA
ATOM     28  H   UNL     1      -1.755  11.622  17.863  0.00  0.00    +0.000 HD
ATOM     29  H   UNL     1      -0.448  11.699  16.817  0.00  0.00    +0.000 HD
ENDBRANCH  24  27
ENDBRANCH   1  24
TORSDOF 4
ENDMDL
MODEL 9
REMARK VINA RESULT:      -8.0      2.385      2.775
REMARK  Name = 
REMARK  4 active torsions:
REMARK  status: ('A' for Active; 'I' for Inactive)
REMARK    1  A    between atoms: N_1  and  S_2
REMARK    2  A    between atoms: S_2  and  N_5
REMARK    3  A    between atoms: C_11  and  N_12
REMARK    4  A    between atoms: C_13  and  C_15
REMARK                            x       y       z     vdW  Elec       q    Type
REMARK                         _______ _______ _______ _____ _____    ______ ____
ROOT
ATOM      1  N   UNL     1      -0.015  11.926  21.071  0.00  0.00    +0.000 N 
ATOM      2  C   UNL     1      -0.142  13.170  20.264  0.00  0.00    +0.000 C 
ATOM      3  C   UNL     1       0.307  12.805  18.841  0.00  0.00    +0.000 C 
ATOM      4  C   UNL     1       0.786  11.399  18.997  0.00  0.00    +0.000 A 
ATOM      5  C   UNL     1       1.458  10.655  18.048  0.00  0.00    +0.000 A 
ATOM      6  C   UNL     1       1.836   9.355  18.376  0.00  0.00    +0.000 A 
ATOM      7  C   UNL     1       1.534   8.786  19.625  0.00  0.00    +0.000 A 
ATOM      8  C   UNL     1       0.853   9.571  20.581  0.00  0.00    +0.000 A 
ATOM      9  C   UNL     1       0.484  10.877  20.252  0.00  0.00    +0.000 A 
ENDROOT
BRANCH   7  10
ATOM     10  N   UNL     1       1.930   7.463  19.969  0.00  0.00    +0.000 N 
ATOM     11  C   UNL     1       2.640   6.577  19.161  0.00  0.00    +0.000 C 
ATOM     12  O   UNL     1       2.912   6.763  17.978  0.00  0.00    +0.000 OA
ATOM     13  H   UNL     1       1.657   7.140  20.890  0.00  0.00    +0.000 HD
BRANCH  11  14
ATOM     14  C   UNL     1       3.052   5.266  19.855  0.00  0.00    +0.000 C 
ATOM     15  C   UNL     1       3.533   4.186  18.859  0.00  0.00    +0.000 C 
ATOM     16  C   UNL     1       4.094   2.993  19.664  0.00  0.00    +0.000 C 
ATOM     17  C   UNL     1       2.999   2.383  20.554  0.00  0.00    +0.000 C 
ATOM     18  C   UNL     1       1.845   1.896  19.661  0.00  0.00    +0.000 C 
ATOM     19  C   UNL     1       1.255   3.079  18.879  0.00  0.00    +0.000 C 
ATOM     20  C   UNL     1       2.351   3.700  17.997  0.00  0.00    +0.000 C 
ATOM     21  C   UNL     1       0.745   4.132  19.873  0.00  0.00    +0.000 C 
ATOM     22  C   UNL     1       1.914   4.660  20.735  0.00  0.00    +0.000 C 
ATOM     23  C   UNL     1       2.478   3.459  21.526  0.00  0.00    +0.000 C 
ENDBRANCH  11  14
ENDBRANCH   7  10
BRANCH   1  24
ATOM     24  S   UNL     1      -0.904  11.778  22.460  0.00  0.00    +0.000 S 
ATOM     25  O   UNL     1      -0.351  10.730  23.286  0.00  0.00    +0.000 OA
ATOM     26  O   UNL     1      -2.313  11.868  22.179  0.00  0.00    +0.000 OA
BRANCH  24  27
ATOM     27  N   UNL     1      -0.518  13.214  23.221  0.00  0.00    +0.000 NA
ATOM     28  H   UNL     1       0.423  13.118  23.608  0.00  0.00    +0.000 HD
ATOM     29  H   UNL     1      -1.193  13.389  23.962  0.00  0.00    +0.000 HD
ENDBRANCH  24  27
ENDBRANCH   1  24
TORSDOF 4
ENDMDL
