MODEL 1
REMARK VINA RESULT:      -8.3      0.000      0.000
REMARK  Name = 
REMARK  8 active torsions:
REMARK  status: ('A' for Active; 'I' for Inactive)
REMARK    1  A    between atoms: C_1  and  N_2
REMARK    2  A    between atoms: C_6  and  C_7
REMARK    3  A    between atoms: C_7  and  N_8
REMARK    4  A    between atoms: N_8  and  C_9
REMARK    5  A    between atoms: C_9  and  C_10
REMARK    6  A    between atoms: C_14  and  N_15
REMARK    7  A    between atoms: C_22  and  C_23
REMARK    8  A    between atoms: C_23  and  C_24
REMARK                            x       y       z     vdW  Elec       q    Type
REMARK                         _______ _______ _______ _____ _____    ______ ____
ROOT
ATOM      1  C   UNL     1       1.243   9.503  19.171  0.00  0.00    +0.000 A 
ATOM      2  C   UNL     1       0.885   8.912  20.392  0.00  0.00    +0.000 A 
ATOM      3  C   UNL     1       1.469   7.717  20.792  0.00  0.00    +0.000 A 
ATOM      4  C   UNL     1       2.312   7.038  19.921  0.00  0.00    +0.000 A 
ATOM      5  C   UNL     1       2.451   7.488  18.598  0.00  0.00    +0.000 A 
ATOM      6  C   UNL     1       2.050   8.789  18.278  0.00  0.00    +0.000 A 
ENDROOT
BRANCH   5   7
ATOM      7  N   UNL     1       2.533   6.517  17.514  0.00  0.00    +0.000 N 
ATOM      8  C   UNL     1       1.692   5.335  17.831  0.00  0.00    +0.000 C 
ATOM      9  C   UNL     1       2.661   4.445  18.549  0.00  0.00    +0.000 A 
ATOM     10  C   UNL     1       3.938   4.754  18.070  0.00  0.00    +0.000 A 
ATOM     11  C   UNL     1       5.095   4.233  18.620  0.00  0.00    +0.000 A 
ATOM     12  C   UNL     1       4.952   3.383  19.713  0.00  0.00    +0.000 A 
ATOM     13  C   UNL     1       3.675   3.081  20.223  0.00  0.00    +0.000 A 
ATOM     14  C   UNL     1       2.499   3.606  19.648  0.00  0.00    +0.000 A 
ATOM     15  C   UNL     1       3.831   5.995  17.267  0.00  0.00    +0.000 C 
ATOM     16  O   UNL     1       4.767   6.528  16.704  0.00  0.00    +0.000 OA
BRANCH  14  17
ATOM     17  C   UNL     1       1.156   3.300  20.270  0.00  0.00    +0.000 C 
ATOM     18  C   UNL     1       1.336   2.586  21.598  0.00  0.00    +0.000 C 
ATOM     19  F   UNL     1       0.423   4.429  20.500  0.00  0.00    +0.000 F 
ATOM     20  F   UNL     1       0.361   2.519  19.484  0.00  0.00    +0.000 F 
ENDBRANCH  14  17
ENDBRANCH   5   7
BRANCH   1  21
ATOM     21  C   UNL     1       0.730  10.876  18.817  0.00  0.00    +0.000 C 
BRANCH  21  22
ATOM     22  N   UNL     1      -0.727  10.974  18.961  0.00  0.00    +0.000 NA
ATOM     23  H   UNL     1      -1.001  10.459  19.799  0.00  0.00    +0.000 HD
BRANCH  22  24
ATOM     24  C   UNL     1      -1.414  10.359  17.816  0.00  0.00    +0.000 C 
BRANCH  24  30
ATOM     25  C   UNL     1      -3.009  10.513  15.148  0.00  0.00    +0.000 C 
ATOM     26  N   UNL     1      -3.452  10.977  16.433  0.00  0.00    +0.000 N 
ATOM     27  C   UNL     1      -4.658  11.547  16.710  0.00  0.00    +0.000 A 
ATOM     28  N   UNL     1      -4.712  11.865  17.981  0.00  0.00    +0.000 NA
ATOM     29  N   UNL     1      -3.519  11.494  18.555  0.00  0.00    +0.000 NA
ATOM     30  C   UNL     1      -2.766  10.949  17.622  0.00  0.00    +0.000 A 
ENDBRANCH  24  30
ENDBRANCH  22  24
ENDBRANCH  21  22
ENDBRANCH   1  21
TORSDOF 6
ENDMDL
MODEL 2
REMARK VINA RESULT:      -8.2      5.643      8.510
REMARK  Name = 
REMARK  8 active torsions:
REMARK  status: ('A' for Active; 'I' for Inactive)
REMARK    1  A    between atoms: C_1  and  N_2
REMARK    2  A    between atoms: C_6  and  C_7
REMARK    3  A    between atoms: C_7  and  N_8
REMARK    4  A    between atoms: N_8  and  C_9
REMARK    5  A    between atoms: C_9  and  C_10
REMARK    6  A    between atoms: C_14  and  N_15
REMARK    7  A    between atoms: C_22  and  C_23
REMARK    8  A    between atoms: C_23  and  C_24
REMARK                            x       y       z     vdW  Elec       q    Type
REMARK                         _______ _______ _______ _____ _____    ______ ____
ROOT
ATOM      1  C   UNL     1       7.867   7.646  17.923  0.00  0.00    +0.000 A 
ATOM      2  C   UNL     1       7.942   6.762  19.009  0.00  0.00    +0.000 A 
ATOM      3  C   UNL     1       7.816   5.394  18.812  0.00  0.00    +0.000 A 
ATOM      4  C   UNL     1       7.485   4.909  17.552  0.00  0.00    +0.000 A 
ATOM      5  C   UNL     1       7.139   5.809  16.531  0.00  0.00    +0.000 A 
ATOM      6  C   UNL     1       7.482   7.158  16.670  0.00  0.00    +0.000 A 
ENDROOT
BRANCH   5   7
ATOM      7  N   UNL     1       6.054   5.474  15.617  0.00  0.00    +0.000 N 
ATOM      8  C   UNL     1       4.874   6.328  15.900  0.00  0.00    +0.000 C 
ATOM      9  C   UNL     1       4.127   5.506  16.906  0.00  0.00    +0.000 A 
ATOM     10  C   UNL     1       4.446   4.167  16.664  0.00  0.00    +0.000 A 
ATOM     11  C   UNL     1       4.056   3.136  17.498  0.00  0.00    +0.000 A 
ATOM     12  C   UNL     1       3.332   3.480  18.637  0.00  0.00    +0.000 A 
ATOM     13  C   UNL     1       3.023   4.827  18.909  0.00  0.00    +0.000 A 
ATOM     14  C   UNL     1       3.414   5.871  18.045  0.00  0.00    +0.000 A 
ATOM     15  C   UNL     1       5.578   4.139  15.707  0.00  0.00    +0.000 C 
ATOM     16  O   UNL     1       6.092   3.121  15.285  0.00  0.00    +0.000 OA
BRANCH  14  17
ATOM     17  C   UNL     1       3.110   7.305  18.413  0.00  0.00    +0.000 C 
ATOM     18  C   UNL     1       1.900   7.806  17.643  0.00  0.00    +0.000 C 
ATOM     19  F   UNL     1       2.845   7.451  19.745  0.00  0.00    +0.000 F 
ATOM     20  F   UNL     1       4.143   8.159  18.163  0.00  0.00    +0.000 F 
ENDBRANCH  14  17
ENDBRANCH   5   7
BRANCH   1  21
ATOM     21  C   UNL     1       8.164   9.112  18.120  0.00  0.00    +0.000 C 
BRANCH  21  22
ATOM     22  N   UNL     1       9.242   9.330  19.091  0.00  0.00    +0.000 NA
ATOM     23  H   UNL     1       9.113   8.678  19.865  0.00  0.00    +0.000 HD
BRANCH  22  24
ATOM     24  C   UNL     1       9.190  10.692  19.642  0.00  0.00    +0.000 C 
BRANCH  24  30
ATOM     25  C   UNL     1      10.369  13.325  20.811  0.00  0.00    +0.000 C 
ATOM     26  N   UNL     1      10.728  12.711  19.564  0.00  0.00    +0.000 N 
ATOM     27  C   UNL     1      11.665  13.165  18.685  0.00  0.00    +0.000 A 
ATOM     28  N   UNL     1      11.716  12.367  17.646  0.00  0.00    +0.000 NA
ATOM     29  N   UNL     1      10.797  11.364  17.844  0.00  0.00    +0.000 NA
ATOM     30  C   UNL     1      10.211  11.567  19.007  0.00  0.00    +0.000 A 
ENDBRANCH  24  30
ENDBRANCH  22  24
ENDBRANCH  21  22
ENDBRANCH   1  21
TORSDOF 6
ENDMDL
MODEL 3
REMARK VINA RESULT:      -8.1      3.519      7.787
REMARK  Name = 
REMARK  8 active torsions:
REMARK  status: ('A' for Active; 'I' for Inactive)
REMARK    1  A    between atoms: C_1  and  N_2
REMARK    2  A    between atoms: C_6  and  C_7
REMARK    3  A    between atoms: C_7  and  N_8
REMARK    4  A    between atoms: N_8  and  C_9
REMARK    5  A    between atoms: C_9  and  C_10
REMARK    6  A    between atoms: C_14  and  N_15
REMARK    7  A    between atoms: C_22  and  C_23
REMARK    8  A    between atoms: C_23  and  C_24
REMARK                            x       y       z     vdW  Elec       q    Type
REMARK                         _______ _______ _______ _____ _____    ______ ____
ROOT
ATOM      1  C   UNL     1       2.118   3.883  18.606  0.00  0.00    +0.000 A 
ATOM      2  C   UNL     1       1.751   3.486  19.900  0.00  0.00    +0.000 A 
ATOM      3  C   UNL     1       1.266   4.416  20.810  0.00  0.00    +0.000 A 
ATOM      4  C   UNL     1       1.269   5.765  20.480  0.00  0.00    +0.000 A 
ATOM      5  C   UNL     1       1.892   6.189  19.295  0.00  0.00    +0.000 A 
ATOM      6  C   UNL     1       2.168   5.247  18.298  0.00  0.00    +0.000 A 
ENDROOT
BRANCH   5   7
ATOM      7  N   UNL     1       2.663   7.426  19.292  0.00  0.00    +0.000 N 
ATOM      8  C   UNL     1       2.347   8.220  20.505  0.00  0.00    +0.000 C 
ATOM      9  C   UNL     1       1.203   9.066  20.037  0.00  0.00    +0.000 A 
ATOM     10  C   UNL     1       1.350   9.233  18.657  0.00  0.00    +0.000 A 
ATOM     11  C   UNL     1       0.391   9.833  17.863  0.00  0.00    +0.000 A 
ATOM     12  C   UNL     1      -0.775  10.262  18.492  0.00  0.00    +0.000 A 
ATOM     13  C   UNL     1      -0.951  10.080  19.877  0.00  0.00    +0.000 A 
ATOM     14  C   UNL     1       0.040   9.479  20.681  0.00  0.00    +0.000 A 
ATOM     15  C   UNL     1       2.405   8.296  18.199  0.00  0.00    +0.000 C 
ATOM     16  O   UNL     1       2.778   8.197  17.047  0.00  0.00    +0.000 OA
BRANCH  14  17
ATOM     17  C   UNL     1      -0.222   9.252  22.152  0.00  0.00    +0.000 C 
ATOM     18  C   UNL     1      -0.899  10.466  22.764  0.00  0.00    +0.000 C 
ATOM     19  F   UNL     1      -1.026   8.171  22.373  0.00  0.00    +0.000 F 
ATOM     20  F   UNL     1       0.910   9.002  22.871  0.00  0.00    +0.000 F 
ENDBRANCH  14  17
ENDBRANCH   5   7
BRANCH   1  21
ATOM     21  C   UNL     1       2.489   2.847  17.574  0.00  0.00    +0.000 C 
BRANCH  21  22
ATOM     22  N   UNL     1       3.922   2.534  17.597  0.00  0.00    +0.000 NA
ATOM     23  H   UNL     1       4.244   2.581  18.565  0.00  0.00    +0.000 HD
BRANCH  22  24
ATOM     24  C   UNL     1       4.690   3.519  16.824  0.00  0.00    +0.000 C 
BRANCH  24  30
ATOM     25  C   UNL     1       7.168   5.125  15.835  0.00  0.00    +0.000 C 
ATOM     26  N   UNL     1       6.780   4.913  17.201  0.00  0.00    +0.000 N 
ATOM     27  C   UNL     1       7.419   5.397  18.302  0.00  0.00    +0.000 A 
ATOM     28  N   UNL     1       6.800   4.990  19.384  0.00  0.00    +0.000 NA
ATOM     29  N   UNL     1       5.728   4.226  18.990  0.00  0.00    +0.000 NA
ATOM     30  C   UNL     1       5.712   4.190  17.673  0.00  0.00    +0.000 A 
ENDBRANCH  24  30
ENDBRANCH  22  24
ENDBRANCH  21  22
ENDBRANCH   1  21
TORSDOF 6
ENDMDL
MODEL 4
REMARK VINA RESULT:      -8.1      2.477      3.582
REMARK  Name = 
REMARK  8 active torsions:
REMARK  status: ('A' for Active; 'I' for Inactive)
REMARK    1  A    between atoms: C_1  and  N_2
REMARK    2  A    between atoms: C_6  and  C_7
REMARK    3  A    between atoms: C_7  and  N_8
REMARK    4  A    between atoms: N_8  and  C_9
REMARK    5  A    between atoms: C_9  and  C_10
REMARK    6  A    between atoms: C_14  and  N_15
REMARK    7  A    between atoms: C_22  and  C_23
REMARK    8  A    between atoms: C_23  and  C_24
REMARK                            x       y       z     vdW  Elec       q    Type
REMARK                         _______ _______ _______ _____ _____    ______ ____
ROOT
ATOM      1  C   UNL     1       1.418   9.014  19.591  0.00  0.00    +0.000 A 
ATOM      2  C   UNL     1       1.897   9.358  18.318  0.00  0.00    +0.000 A 
ATOM      3  C   UNL     1       2.454   8.391  17.492  0.00  0.00    +0.000 A 
ATOM      4  C   UNL     1       2.657   7.106  17.979  0.00  0.00    +0.000 A 
ATOM      5  C   UNL     1       2.434   6.835  19.339  0.00  0.00    +0.000 A 
ATOM      6  C   UNL     1       1.674   7.734  20.094  0.00  0.00    +0.000 A 
ENDROOT
BRANCH   5   7
ATOM      7  N   UNL     1       3.344   5.948  20.053  0.00  0.00    +0.000 N 
ATOM      8  C   UNL     1       4.495   5.599  19.183  0.00  0.00    +0.000 C 
ATOM      9  C   UNL     1       4.005   4.359  18.499  0.00  0.00    +0.000 A 
ATOM     10  C   UNL     1       3.089   3.747  19.359  0.00  0.00    +0.000 A 
ATOM     11  C   UNL     1       2.321   2.658  18.992  0.00  0.00    +0.000 A 
ATOM     12  C   UNL     1       2.473   2.184  17.691  0.00  0.00    +0.000 A 
ATOM     13  C   UNL     1       3.373   2.804  16.803  0.00  0.00    +0.000 A 
ATOM     14  C   UNL     1       4.162   3.906  17.192  0.00  0.00    +0.000 A 
ATOM     15  C   UNL     1       2.787   4.704  20.451  0.00  0.00    +0.000 C 
ATOM     16  O   UNL     1       2.026   4.473  21.370  0.00  0.00    +0.000 OA
BRANCH  14  17
ATOM     17  C   UNL     1       5.069   4.573  16.183  0.00  0.00    +0.000 C 
ATOM     18  C   UNL     1       6.524   4.405  16.585  0.00  0.00    +0.000 C 
ATOM     19  F   UNL     1       4.920   4.051  14.930  0.00  0.00    +0.000 F 
ATOM     20  F   UNL     1       4.830   5.908  16.039  0.00  0.00    +0.000 F 
ENDBRANCH  14  17
ENDBRANCH   5   7
BRANCH   1  21
ATOM     21  C   UNL     1       0.671  10.031  20.417  0.00  0.00    +0.000 C 
BRANCH  21  22
ATOM     22  N   UNL     1      -0.739  10.130  20.025  0.00  0.00    +0.000 NA
ATOM     23  H   UNL     1      -0.963   9.333  19.428  0.00  0.00    +0.000 HD
BRANCH  22  24
ATOM     24  C   UNL     1      -0.987  11.352  19.247  0.00  0.00    +0.000 C 
BRANCH  24  30
ATOM     25  C   UNL     1      -3.927  12.336  19.533  0.00  0.00    +0.000 C 
ATOM     26  N   UNL     1      -3.372  11.623  18.417  0.00  0.00    +0.000 N 
ATOM     27  C   UNL     1      -4.033  11.271  17.279  0.00  0.00    +0.000 A 
ATOM     28  N   UNL     1      -3.223  10.614  16.485  0.00  0.00    +0.000 NA
ATOM     29  N   UNL     1      -2.001  10.533  17.109  0.00  0.00    +0.000 NA
ATOM     30  C   UNL     1      -2.091  11.152  18.269  0.00  0.00    +0.000 A 
ENDBRANCH  24  30
ENDBRANCH  22  24
ENDBRANCH  21  22
ENDBRANCH   1  21
TORSDOF 6
ENDMDL
MODEL 5
REMARK VINA RESULT:      -8.0      2.541      3.449
REMARK  Name = 
REMARK  8 active torsions:
REMARK  status: ('A' for Active; 'I' for Inactive)
REMARK    1  A    between atoms: C_1  and  N_2
REMARK    2  A    between atoms: C_6  and  C_7
REMARK    3  A    between atoms: C_7  and  N_8
REMARK    4  A    between atoms: N_8  and  C_9
REMARK    5  A    between atoms: C_9  and  C_10
REMARK    6  A    between atoms: C_14  and  N_15
REMARK    7  A    between atoms: C_22  and  C_23
REMARK    8  A    between atoms: C_23  and  C_24
REMARK                            x       y       z     vdW  Elec       q    Type
REMARK                         _______ _______ _______ _____ _____    ______ ____
ROOT
ATOM      1  C   UNL     1       1.397   8.982  19.581  0.00  0.00    +0.000 A 
ATOM      2  C   UNL     1       1.932   9.286  18.320  0.00  0.00    +0.000 A 
ATOM      3  C   UNL     1       2.504   8.291  17.540  0.00  0.00    +0.000 A 
ATOM      4  C   UNL     1       2.665   7.014  18.064  0.00  0.00    +0.000 A 
ATOM      5  C   UNL     1       2.383   6.780  19.420  0.00  0.00    +0.000 A 
ATOM      6  C   UNL     1       1.609   7.709  20.123  0.00  0.00    +0.000 A 
ENDROOT
BRANCH   5   7
ATOM      7  N   UNL     1       3.248   5.895  20.191  0.00  0.00    +0.000 N 
ATOM      8  C   UNL     1       4.485   5.606  19.424  0.00  0.00    +0.000 C 
ATOM      9  C   UNL     1       4.101   4.377  18.660  0.00  0.00    +0.000 A 
ATOM     10  C   UNL     1       3.126   3.712  19.410  0.00  0.00    +0.000 A 
ATOM     11  C   UNL     1       2.430   2.615  18.938  0.00  0.00    +0.000 A 
ATOM     12  C   UNL     1       2.718   2.188  17.645  0.00  0.00    +0.000 A 
ATOM     13  C   UNL     1       3.679   2.861  16.866  0.00  0.00    +0.000 A 
ATOM     14  C   UNL     1       4.394   3.972  17.361  0.00  0.00    +0.000 A 
ATOM     15  C   UNL     1       2.693   4.624  20.496  0.00  0.00    +0.000 C 
ATOM     16  O   UNL     1       1.856   4.343  21.332  0.00  0.00    +0.000 OA
BRANCH  14  17
ATOM     17  C   UNL     1       5.372   4.696  16.464  0.00  0.00    +0.000 C 
ATOM     18  C   UNL     1       5.693   3.856  15.240  0.00  0.00    +0.000 C 
ATOM     19  F   UNL     1       4.884   5.896  16.029  0.00  0.00    +0.000 F 
ATOM     20  F   UNL     1       6.550   4.999  17.081  0.00  0.00    +0.000 F 
ENDBRANCH  14  17
ENDBRANCH   5   7
BRANCH   1  21
ATOM     21  C   UNL     1       0.636  10.031  20.351  0.00  0.00    +0.000 C 
BRANCH  21  22
ATOM     22  N   UNL     1      -0.756  10.144  19.902  0.00  0.00    +0.000 NA
ATOM     23  H   UNL     1      -0.953   9.366  19.271  0.00  0.00    +0.000 HD
BRANCH  22  24
ATOM     24  C   UNL     1      -0.970  11.390  19.152  0.00  0.00    +0.000 C 
BRANCH  24  30
ATOM     25  C   UNL     1      -2.314  10.231  16.594  0.00  0.00    +0.000 C 
ATOM     26  N   UNL     1      -2.961  10.990  17.627  0.00  0.00    +0.000 N 
ATOM     27  C   UNL     1      -4.283  11.316  17.676  0.00  0.00    +0.000 A 
ATOM     28  N   UNL     1      -4.520  12.030  18.749  0.00  0.00    +0.000 NA
ATOM     29  N   UNL     1      -3.332  12.175  19.426  0.00  0.00    +0.000 NA
ATOM     30  C   UNL     1      -2.396  11.537  18.752  0.00  0.00    +0.000 A 
ENDBRANCH  24  30
ENDBRANCH  22  24
ENDBRANCH  21  22
ENDBRANCH   1  21
TORSDOF 6
ENDMDL
MODEL 6
REMARK VINA RESULT:      -8.0      5.522      7.856
REMARK  Name = 
REMARK  8 active torsions:
REMARK  status: ('A' for Active; 'I' for Inactive)
REMARK    1  A    between atoms: C_1  and  N_2
REMARK    2  A    between atoms: C_6  and  C_7
REMARK    3  A    between atoms: C_7  and  N_8
REMARK    4  A    between atoms: N_8  and  C_9
REMARK    5  A    between atoms: C_9  and  C_10
REMARK    6  A    between atoms: C_14  and  N_15
REMARK    7  A    between atoms: C_22  and  C_23
REMARK    8  A    between atoms: C_23  and  C_24
REMARK                            x       y       z     vdW  Elec       q    Type
REMARK                         _______ _______ _______ _____ _____    ______ ____
ROOT
ATOM      1  C   UNL     1       7.833   7.714  17.867  0.00  0.00    +0.000 A 
ATOM      2  C   UNL     1       7.853   6.884  18.998  0.00  0.00    +0.000 A 
ATOM      3  C   UNL     1       7.729   5.508  18.862  0.00  0.00    +0.000 A 
ATOM      4  C   UNL     1       7.453   4.963  17.614  0.00  0.00    +0.000 A 
ATOM      5  C   UNL     1       7.159   5.812  16.535  0.00  0.00    +0.000 A 
ATOM      6  C   UNL     1       7.502   7.165  16.623  0.00  0.00    +0.000 A 
ENDROOT
BRANCH   5   7
ATOM      7  N   UNL     1       6.115   5.437  15.589  0.00  0.00    +0.000 N 
ATOM      8  C   UNL     1       4.911   6.278  15.806  0.00  0.00    +0.000 C 
ATOM      9  C   UNL     1       4.140   5.469  16.804  0.00  0.00    +0.000 A 
ATOM     10  C   UNL     1       4.489   4.130  16.609  0.00  0.00    +0.000 A 
ATOM     11  C   UNL     1       4.084   3.114  17.454  0.00  0.00    +0.000 A 
ATOM     12  C   UNL     1       3.312   3.474  18.555  0.00  0.00    +0.000 A 
ATOM     13  C   UNL     1       2.971   4.822  18.781  0.00  0.00    +0.000 A 
ATOM     14  C   UNL     1       3.378   5.850  17.905  0.00  0.00    +0.000 A 
ATOM     15  C   UNL     1       5.657   4.096  15.696  0.00  0.00    +0.000 C 
ATOM     16  O   UNL     1       6.202   3.077  15.320  0.00  0.00    +0.000 OA
BRANCH  14  17
ATOM     17  C   UNL     1       3.038   7.288  18.224  0.00  0.00    +0.000 C 
ATOM     18  C   UNL     1       2.436   7.395  19.615  0.00  0.00    +0.000 C 
ATOM     19  F   UNL     1       4.135   8.100  18.182  0.00  0.00    +0.000 F 
ATOM     20  F   UNL     1       2.155   7.843  17.346  0.00  0.00    +0.000 F 
ENDBRANCH  14  17
ENDBRANCH   5   7
BRANCH   1  21
ATOM     21  C   UNL     1       8.129   9.186  18.005  0.00  0.00    +0.000 C 
BRANCH  21  22
ATOM     22  N   UNL     1       8.943   9.476  19.190  0.00  0.00    +0.000 NA
ATOM     23  H   UNL     1       8.326   9.821  19.927  0.00  0.00    +0.000 HD
BRANCH  22  24
ATOM     24  C   UNL     1       9.932  10.526  18.909  0.00  0.00    +0.000 C 
BRANCH  24  30
ATOM     25  C   UNL     1       9.453  12.212  21.482  0.00  0.00    +0.000 C 
ATOM     26  N   UNL     1       9.142  12.605  20.136  0.00  0.00    +0.000 N 
ATOM     27  C   UNL     1       8.602  13.795  19.751  0.00  0.00    +0.000 A 
ATOM     28  N   UNL     1       8.437  13.801  18.450  0.00  0.00    +0.000 NA
ATOM     29  N   UNL     1       8.880  12.594  17.966  0.00  0.00    +0.000 NA
ATOM     30  C   UNL     1       9.315  11.878  18.984  0.00  0.00    +0.000 A 
ENDBRANCH  24  30
ENDBRANCH  22  24
ENDBRANCH  21  22
ENDBRANCH   1  21
TORSDOF 6
ENDMDL
MODEL 7
REMARK VINA RESULT:      -8.0      3.351      4.987
REMARK  Name = 
REMARK  8 active torsions:
REMARK  status: ('A' for Active; 'I' for Inactive)
REMARK    1  A    between atoms: C_1  and  N_2
REMARK    2  A    between atoms: C_6  and  C_7
REMARK    3  A    between atoms: C_7  and  N_8
REMARK    4  A    between atoms: N_8  and  C_9
REMARK    5  A    between atoms: C_9  and  C_10
REMARK    6  A    between atoms: C_14  and  N_15
REMARK    7  A    between atoms: C_22  and  C_23
REMARK    8  A    between atoms: C_23  and  C_24
REMARK                            x       y       z     vdW  Elec       q    Type
REMARK                         _______ _______ _______ _____ _____    ______ ____
ROOT
ATOM      1  C   UNL     1       1.866   7.209  20.039  0.00  0.00    +0.000 A 
ATOM      2  C   UNL     1       2.293   8.115  19.057  0.00  0.00    +0.000 A 
ATOM      3  C   UNL     1       2.911   7.658  17.901  0.00  0.00    +0.000 A 
ATOM      4  C   UNL     1       3.226   6.311  17.776  0.00  0.00    +0.000 A 
ATOM      5  C   UNL     1       3.049   5.452  18.873  0.00  0.00    +0.000 A 
ATOM      6  C   UNL     1       2.233   5.862  19.932  0.00  0.00    +0.000 A 
ENDROOT
BRANCH   5   7
ATOM      7  N   UNL     1       4.040   4.417  19.142  0.00  0.00    +0.000 N 
ATOM      8  C   UNL     1       5.395   5.020  19.206  0.00  0.00    +0.000 C 
ATOM      9  C   UNL     1       5.848   4.925  17.781  0.00  0.00    +0.000 A 
ATOM     10  C   UNL     1       5.189   3.832  17.210  0.00  0.00    +0.000 A 
ATOM     11  C   UNL     1       5.249   3.536  15.861  0.00  0.00    +0.000 A 
ATOM     12  C   UNL     1       5.991   4.395  15.055  0.00  0.00    +0.000 A 
ATOM     13  C   UNL     1       6.642   5.514  15.610  0.00  0.00    +0.000 A 
ATOM     14  C   UNL     1       6.585   5.801  16.990  0.00  0.00    +0.000 A 
ATOM     15  C   UNL     1       4.132   3.399  18.156  0.00  0.00    +0.000 C 
ATOM     16  O   UNL     1       3.380   2.464  17.959  0.00  0.00    +0.000 OA
BRANCH  14  17
ATOM     17  C   UNL     1       7.251   7.047  17.526  0.00  0.00    +0.000 C 
ATOM     18  C   UNL     1       8.066   6.723  18.766  0.00  0.00    +0.000 C 
ATOM     19  F   UNL     1       8.092   7.617  16.613  0.00  0.00    +0.000 F 
ATOM     20  F   UNL     1       6.369   8.034  17.855  0.00  0.00    +0.000 F 
ENDBRANCH  14  17
ENDBRANCH   5   7
BRANCH   1  21
ATOM     21  C   UNL     1       1.054   7.695  21.214  0.00  0.00    +0.000 C 
BRANCH  21  22
ATOM     22  N   UNL     1       1.604   8.925  21.793  0.00  0.00    +0.000 NA
ATOM     23  H   UNL     1       1.968   8.707  22.722  0.00  0.00    +0.000 HD
BRANCH  22  24
ATOM     24  C   UNL     1       0.560   9.947  21.951  0.00  0.00    +0.000 C 
BRANCH  24  30
ATOM     25  C   UNL     1      -0.790  10.237  19.161  0.00  0.00    +0.000 C 
ATOM     26  N   UNL     1       0.116  11.170  19.770  0.00  0.00    +0.000 N 
ATOM     27  C   UNL     1       0.525  12.355  19.239  0.00  0.00    +0.000 A 
ATOM     28  N   UNL     1       1.367  12.937  20.059  0.00  0.00    +0.000 NA
ATOM     29  N   UNL     1       1.513  12.122  21.155  0.00  0.00    +0.000 NA
ATOM     30  C   UNL     1       0.749  11.062  20.983  0.00  0.00    +0.000 A 
ENDBRANCH  24  30
ENDBRANCH  22  24
ENDBRANCH  21  22
ENDBRANCH   1  21
TORSDOF 6
ENDMDL
MODEL 8
REMARK VINA RESULT:      -8.0      2.040      2.683
REMARK  Name = 
REMARK  8 active torsions:
REMARK  status: ('A' for Active; 'I' for Inactive)
REMARK    1  A    between atoms: C_1  and  N_2
REMARK    2  A    between atoms: C_6  and  C_7
REMARK    3  A    between atoms: C_7  and  N_8
REMARK    4  A    between atoms: N_8  and  C_9
REMARK    5  A    between atoms: C_9  and  C_10
REMARK    6  A    between atoms: C_14  and  N_15
REMARK    7  A    between atoms: C_22  and  C_23
REMARK    8  A    between atoms: C_23  and  C_24
REMARK                            x       y       z     vdW  Elec       q    Type
REMARK                         _______ _______ _______ _____ _____    ______ ____
ROOT
ATOM      1  C   UNL     1       1.570   9.438  19.032  0.00  0.00    +0.000 A 
ATOM      2  C   UNL     1       1.096   8.908  20.242  0.00  0.00    +0.000 A 
ATOM      3  C   UNL     1       1.540   7.672  20.690  0.00  0.00    +0.000 A 
ATOM      4  C   UNL     1       2.357   6.898  19.875  0.00  0.00    +0.000 A 
ATOM      5  C   UNL     1       2.606   7.306  18.554  0.00  0.00    +0.000 A 
ATOM      6  C   UNL     1       2.349   8.632  18.193  0.00  0.00    +0.000 A 
ENDROOT
BRANCH   5   7
ATOM      7  N   UNL     1       2.648   6.309  17.491  0.00  0.00    +0.000 N 
ATOM      8  C   UNL     1       1.759   5.170  17.831  0.00  0.00    +0.000 C 
ATOM      9  C   UNL     1       2.689   4.257  18.570  0.00  0.00    +0.000 A 
ATOM     10  C   UNL     1       3.978   4.501  18.087  0.00  0.00    +0.000 A 
ATOM     11  C   UNL     1       5.112   3.945  18.650  0.00  0.00    +0.000 A 
ATOM     12  C   UNL     1       4.932   3.125  19.760  0.00  0.00    +0.000 A 
ATOM     13  C   UNL     1       3.643   2.887  20.274  0.00  0.00    +0.000 A 
ATOM     14  C   UNL     1       2.491   3.448  19.685  0.00  0.00    +0.000 A 
ATOM     15  C   UNL     1       3.924   5.729  17.258  0.00  0.00    +0.000 C 
ATOM     16  O   UNL     1       4.882   6.211  16.686  0.00  0.00    +0.000 OA
BRANCH  14  17
ATOM     17  C   UNL     1       1.135   3.211  20.311  0.00  0.00    +0.000 C 
ATOM     18  C   UNL     1       1.284   2.525  21.657  0.00  0.00    +0.000 C 
ATOM     19  F   UNL     1       0.447   4.374  20.510  0.00  0.00    +0.000 F 
ATOM     20  F   UNL     1       0.311   2.443  19.542  0.00  0.00    +0.000 F 
ENDBRANCH  14  17
ENDBRANCH   5   7
BRANCH   1  21
ATOM     21  C   UNL     1       1.210  10.846  18.631  0.00  0.00    +0.000 C 
BRANCH  21  22
ATOM     22  N   UNL     1      -0.202  11.148  18.889  0.00  0.00    +0.000 NA
ATOM     23  H   UNL     1      -0.673  11.274  17.992  0.00  0.00    +0.000 HD
BRANCH  22  24
ATOM     24  C   UNL     1      -0.345  12.400  19.646  0.00  0.00    +0.000 C 
BRANCH  24  30
ATOM     25  C   UNL     1      -3.183  12.723  20.885  0.00  0.00    +0.000 C 
ATOM     26  N   UNL     1      -2.004  12.263  21.563  0.00  0.00    +0.000 N 
ATOM     27  C   UNL     1      -1.929  11.867  22.865  0.00  0.00    +0.000 A 
ATOM     28  N   UNL     1      -0.696  11.530  23.151  0.00  0.00    +0.000 NA
ATOM     29  N   UNL     1       0.059  11.702  22.016  0.00  0.00    +0.000 NA
ATOM     30  C   UNL     1      -0.735  12.134  21.057  0.00  0.00    +0.000 A 
ENDBRANCH  24  30
ENDBRANCH  22  24
ENDBRANCH  21  22
ENDBRANCH   1  21
TORSDOF 6
ENDMDL
MODEL 9
REMARK VINA RESULT:      -7.9      2.730      3.928
REMARK  Name = 
REMARK  8 active torsions:
REMARK  status: ('A' for Active; 'I' for Inactive)
REMARK    1  A    between atoms: C_1  and  N_2
REMARK    2  A    between atoms: C_6  and  C_7
REMARK    3  A    between atoms: C_7  and  N_8
REMARK    4  A    between atoms: N_8  and  C_9
REMARK    5  A    between atoms: C_9  and  C_10
REMARK    6  A    between atoms: C_14  and  N_15
REMARK    7  A    between atoms: C_22  and  C_23
REMARK    8  A    between atoms: C_23  and  C_24
REMARK                            x       y       z     vdW  Elec       q    Type
REMARK                         _______ _______ _______ _____ _____    ______ ____
ROOT
ATOM      1  C   UNL     1       1.205   8.816  19.977  0.00  0.00    +0.000 A 
ATOM      2  C   UNL     1       1.706   9.319  18.766  0.00  0.00    +0.000 A 
ATOM      3  C   UNL     1       2.350   8.478  17.869  0.00  0.00    +0.000 A 
ATOM      4  C   UNL     1       2.617   7.163  18.230  0.00  0.00    +0.000 A 
ATOM      5  C   UNL     1       2.364   6.739  19.544  0.00  0.00    +0.000 A 
ATOM      6  C   UNL     1       1.523   7.507  20.356  0.00  0.00    +0.000 A 
ENDROOT
BRANCH   5   7
ATOM      7  N   UNL     1       3.303   5.837  20.201  0.00  0.00    +0.000 N 
ATOM      8  C   UNL     1       4.442   5.548  19.294  0.00  0.00    +0.000 C 
ATOM      9  C   UNL     1       3.960   4.331  18.564  0.00  0.00    +0.000 A 
ATOM     10  C   UNL     1       3.072   3.665  19.413  0.00  0.00    +0.000 A 
ATOM     11  C   UNL     1       2.315   2.580  19.010  0.00  0.00    +0.000 A 
ATOM     12  C   UNL     1       2.450   2.168  17.687  0.00  0.00    +0.000 A 
ATOM     13  C   UNL     1       3.323   2.843  16.812  0.00  0.00    +0.000 A 
ATOM     14  C   UNL     1       4.100   3.941  17.235  0.00  0.00    +0.000 A 
ATOM     15  C   UNL     1       2.774   4.566  20.552  0.00  0.00    +0.000 C 
ATOM     16  O   UNL     1       2.035   4.281  21.474  0.00  0.00    +0.000 OA
BRANCH  14  17
ATOM     17  C   UNL     1       4.976   4.669  16.242  0.00  0.00    +0.000 C 
ATOM     18  C   UNL     1       6.440   4.532  16.624  0.00  0.00    +0.000 C 
ATOM     19  F   UNL     1       4.830   4.185  14.972  0.00  0.00    +0.000 F 
ATOM     20  F   UNL     1       4.695   5.999  16.145  0.00  0.00    +0.000 F 
ENDBRANCH  14  17
ENDBRANCH   5   7
BRANCH   1  21
ATOM     21  C   UNL     1       0.367   9.695  20.871  0.00  0.00    +0.000 C 
BRANCH  21  22
ATOM     22  N   UNL     1       1.110  10.869  21.343  0.00  0.00    +0.000 NA
ATOM     23  H   UNL     1       1.415  10.692  22.301  0.00  0.00    +0.000 HD
BRANCH  22  24
ATOM     24  C   UNL     1       0.254  12.063  21.363  0.00  0.00    +0.000 C 
BRANCH  24  30
ATOM     25  C   UNL     1       1.196  13.024  18.555  0.00  0.00    +0.000 C 
ATOM     26  N   UNL     1      -0.117  12.556  18.899  0.00  0.00    +0.000 N 
ATOM     27  C   UNL     1      -1.174  12.433  18.049  0.00  0.00    +0.000 A 
ATOM     28  N   UNL     1      -2.220  11.995  18.708  0.00  0.00    +0.000 NA
ATOM     29  N   UNL     1      -1.845  11.822  20.019  0.00  0.00    +0.000 NA
ATOM     30  C   UNL     1      -0.574  12.151  20.129  0.00  0.00    +0.000 A 
ENDBRANCH  24  30
ENDBRANCH  22  24
ENDBRANCH  21  22
ENDBRANCH   1  21
TORSDOF 6
ENDMDL
