MODEL 1
REMARK VINA RESULT:      -8.9      0.000      0.000
REMARK  Name = 
REMARK  4 active torsions:
REMARK  status: ('A' for Active; 'I' for Inactive)
REMARK    1  A    between atoms: C_1  and  C_2
REMARK    2  A    between atoms: C_4  and  C_5
REMARK    3  A    between atoms: C_12  and  C_13
REMARK    4  A    between atoms: N_18  and  C_19
REMARK                            x       y       z     vdW  Elec       q    Type
REMARK                         _______ _______ _______ _____ _____    ______ ____
ROOT
ATOM      1  C   UNL     1       4.644   5.649  18.608  0.00  0.00    +0.000 C 
ATOM      2  O   UNL     1       4.815   4.886  19.561  0.00  0.00    +0.000 OA
ATOM      3  N   UNL     1       3.556   6.529  18.592  0.00  0.00    +0.000 N 
ATOM      4  C   UNL     1       3.313   7.568  17.579  0.00  0.00    +0.000 C 
ATOM      5  C   UNL     1       2.763   8.875  18.179  0.00  0.00    +0.000 C 
ATOM      6  N   UNL     1       1.610   8.575  19.041  0.00  0.00    +0.000 N 
ATOM      7  C   UNL     1       1.946   7.645  20.142  0.00  0.00    +0.000 C 
ATOM      8  C   UNL     1       2.454   6.321  19.543  0.00  0.00    +0.000 C 
ENDROOT
BRANCH   6   9
ATOM      9  C   UNL     1       0.694   9.589  19.326  0.00  0.00    +0.000 A 
ATOM     10  C   UNL     1       0.733  10.189  20.596  0.00  0.00    +0.000 A 
ATOM     11  C   UNL     1      -0.209  11.142  20.973  0.00  0.00    +0.000 A 
ATOM     12  F   UNL     1      -0.154  11.668  22.203  0.00  0.00    +0.000 F 
ATOM     13  C   UNL     1      -1.218  11.538  20.106  0.00  0.00    +0.000 A 
ATOM     14  C   UNL     1      -1.280  10.970  18.839  0.00  0.00    +0.000 A 
ATOM     15  C   UNL     1      -0.339  10.008  18.460  0.00  0.00    +0.000 A 
ATOM     16  F   UNL     1      -0.445   9.498  17.223  0.00  0.00    +0.000 F 
ENDBRANCH   6   9
BRANCH   1  22
ATOM     17  C   UNL     1       7.748   6.749  18.421  0.00  0.00    +0.000 C 
ATOM     18  C   UNL     1       6.877   6.128  17.401  0.00  0.00    +0.000 A 
ATOM     19  N   UNL     1       7.343   5.932  16.120  0.00  0.00    +0.000 NA
ATOM     20  C   UNL     1       6.364   5.294  15.514  0.00  0.00    +0.000 A 
ATOM     21  O   UNL     1       5.261   5.096  16.295  0.00  0.00    +0.000 OA
ATOM     22  C   UNL     1       5.577   5.675  17.500  0.00  0.00    +0.000 A 
BRANCH  20  23
ATOM     23  C   UNL     1       6.344   4.718  14.174  0.00  0.00    +0.000 A 
ATOM     24  C   UNL     1       7.406   5.001  13.301  0.00  0.00    +0.000 A 
ATOM     25  C   UNL     1       7.497   4.374  12.058  0.00  0.00    +0.000 A 
ATOM     26  C   UNL     1       6.517   3.466  11.666  0.00  0.00    +0.000 A 
ATOM     27  C   UNL     1       5.432   3.207  12.502  0.00  0.00    +0.000 A 
ATOM     28  C   UNL     1       5.341   3.836  13.749  0.00  0.00    +0.000 A 
ENDBRANCH  20  23
ENDBRANCH   1  22
TORSDOF 3
ENDMDL
MODEL 2
REMARK VINA RESULT:      -8.5      0.687      1.850
REMARK  Name = 
REMARK  4 active torsions:
REMARK  status: ('A' for Active; 'I' for Inactive)
REMARK    1  A    between atoms: C_1  and  C_2
REMARK    2  A    between atoms: C_4  and  C_5
REMARK    3  A    between atoms: C_12  and  C_13
REMARK    4  A    between atoms: N_18  and  C_19
REMARK                            x       y       z     vdW  Elec       q    Type
REMARK                         _______ _______ _______ _____ _____    ______ ____
ROOT
ATOM      1  C   UNL     1       4.704   5.582  18.571  0.00  0.00    +0.000 C 
ATOM      2  O   UNL     1       4.836   4.803  19.518  0.00  0.00    +0.000 OA
ATOM      3  N   UNL     1       3.614   6.459  18.522  0.00  0.00    +0.000 N 
ATOM      4  C   UNL     1       3.411   7.513  17.518  0.00  0.00    +0.000 C 
ATOM      5  C   UNL     1       2.829   8.808  18.116  0.00  0.00    +0.000 C 
ATOM      6  N   UNL     1       1.640   8.489  18.921  0.00  0.00    +0.000 N 
ATOM      7  C   UNL     1       1.931   7.541  20.018  0.00  0.00    +0.000 C 
ATOM      8  C   UNL     1       2.472   6.229  19.420  0.00  0.00    +0.000 C 
ENDROOT
BRANCH   6   9
ATOM      9  C   UNL     1       0.708   9.493  19.182  0.00  0.00    +0.000 A 
ATOM     10  C   UNL     1      -0.135   9.912  18.140  0.00  0.00    +0.000 A 
ATOM     11  C   UNL     1      -1.025  10.970  18.311  0.00  0.00    +0.000 A 
ATOM     12  F   UNL     1      -1.789  11.357  17.283  0.00  0.00    +0.000 F 
ATOM     13  C   UNL     1      -1.114  11.644  19.521  0.00  0.00    +0.000 A 
ATOM     14  C   UNL     1      -0.300  11.250  20.575  0.00  0.00    +0.000 A 
ATOM     15  C   UNL     1       0.598  10.192  20.404  0.00  0.00    +0.000 A 
ATOM     16  F   UNL     1       1.355   9.851  21.459  0.00  0.00    +0.000 F 
ENDBRANCH   6   9
BRANCH   1  22
ATOM     17  C   UNL     1       7.778   6.775  18.518  0.00  0.00    +0.000 C 
ATOM     18  C   UNL     1       6.973   6.123  17.463  0.00  0.00    +0.000 A 
ATOM     19  N   UNL     1       7.503   5.935  16.206  0.00  0.00    +0.000 NA
ATOM     20  C   UNL     1       6.572   5.265  15.560  0.00  0.00    +0.000 A 
ATOM     21  O   UNL     1       5.442   5.036  16.292  0.00  0.00    +0.000 OA
ATOM     22  C   UNL     1       5.685   5.631  17.506  0.00  0.00    +0.000 A 
BRANCH  20  23
ATOM     23  C   UNL     1       6.631   4.682  14.224  0.00  0.00    +0.000 A 
ATOM     24  C   UNL     1       5.664   3.733  13.858  0.00  0.00    +0.000 A 
ATOM     25  C   UNL     1       5.602   3.242  12.553  0.00  0.00    +0.000 A 
ATOM     26  C   UNL     1       6.516   3.685  11.602  0.00  0.00    +0.000 A 
ATOM     27  C   UNL     1       7.510   4.594  11.960  0.00  0.00    +0.000 A 
ATOM     28  C   UNL     1       7.573   5.086  13.268  0.00  0.00    +0.000 A 
ENDBRANCH  20  23
ENDBRANCH   1  22
TORSDOF 3
ENDMDL
MODEL 3
REMARK VINA RESULT:      -8.4      1.176      1.287
REMARK  Name = 
REMARK  4 active torsions:
REMARK  status: ('A' for Active; 'I' for Inactive)
REMARK    1  A    between atoms: C_1  and  C_2
REMARK    2  A    between atoms: C_4  and  C_5
REMARK    3  A    between atoms: C_12  and  C_13
REMARK    4  A    between atoms: N_18  and  C_19
REMARK                            x       y       z     vdW  Elec       q    Type
REMARK                         _______ _______ _______ _____ _____    ______ ____
ROOT
ATOM      1  C   UNL     1       4.349   4.521  18.555  0.00  0.00    +0.000 C 
ATOM      2  O   UNL     1       4.303   3.470  19.197  0.00  0.00    +0.000 OA
ATOM      3  N   UNL     1       3.421   5.541  18.797  0.00  0.00    +0.000 N 
ATOM      4  C   UNL     1       3.446   6.880  18.190  0.00  0.00    +0.000 C 
ATOM      5  C   UNL     1       3.052   7.994  19.178  0.00  0.00    +0.000 C 
ATOM      6  N   UNL     1       1.786   7.643  19.839  0.00  0.00    +0.000 N 
ATOM      7  C   UNL     1       1.861   6.358  20.569  0.00  0.00    +0.000 C 
ATOM      8  C   UNL     1       2.211   5.235  19.575  0.00  0.00    +0.000 C 
ENDROOT
BRANCH   6   9
ATOM      9  C   UNL     1       1.018   8.655  20.416  0.00  0.00    +0.000 A 
ATOM     10  C   UNL     1       0.889   8.681  21.814  0.00  0.00    +0.000 A 
ATOM     11  C   UNL     1       0.065   9.611  22.445  0.00  0.00    +0.000 A 
ATOM     12  F   UNL     1      -0.054   9.583  23.778  0.00  0.00    +0.000 F 
ATOM     13  C   UNL     1      -0.653  10.547  21.714  0.00  0.00    +0.000 A 
ATOM     14  C   UNL     1      -0.541  10.553  20.330  0.00  0.00    +0.000 A 
ATOM     15  C   UNL     1       0.280   9.618  19.694  0.00  0.00    +0.000 A 
ATOM     16  F   UNL     1       0.355   9.674  18.355  0.00  0.00    +0.000 F 
ENDBRANCH   6   9
BRANCH   1  22
ATOM     17  C   UNL     1       7.477   5.519  18.866  0.00  0.00    +0.000 C 
ATOM     18  C   UNL     1       6.691   5.155  17.669  0.00  0.00    +0.000 A 
ATOM     19  N   UNL     1       7.269   5.210  16.420  0.00  0.00    +0.000 NA
ATOM     20  C   UNL     1       6.336   4.748  15.613  0.00  0.00    +0.000 A 
ATOM     21  O   UNL     1       5.164   4.434  16.239  0.00  0.00    +0.000 OA
ATOM     22  C   UNL     1       5.380   4.741  17.560  0.00  0.00    +0.000 A 
BRANCH  20  23
ATOM     23  C   UNL     1       6.428   4.461  14.185  0.00  0.00    +0.000 A 
ATOM     24  C   UNL     1       7.440   5.081  13.436  0.00  0.00    +0.000 A 
ATOM     25  C   UNL     1       7.647   4.743  12.097  0.00  0.00    +0.000 A 
ATOM     26  C   UNL     1       6.834   3.790  11.489  0.00  0.00    +0.000 A 
ATOM     27  C   UNL     1       5.797   3.198  12.207  0.00  0.00    +0.000 A 
ATOM     28  C   UNL     1       5.589   3.536  13.548  0.00  0.00    +0.000 A 
ENDBRANCH  20  23
ENDBRANCH   1  22
TORSDOF 3
ENDMDL
MODEL 4
REMARK VINA RESULT:      -8.3      1.002      1.415
REMARK  Name = 
REMARK  4 active torsions:
REMARK  status: ('A' for Active; 'I' for Inactive)
REMARK    1  A    between atoms: C_1  and  C_2
REMARK    2  A    between atoms: C_4  and  C_5
REMARK    3  A    between atoms: C_12  and  C_13
REMARK    4  A    between atoms: N_18  and  C_19
REMARK                            x       y       z     vdW  Elec       q    Type
REMARK                         _______ _______ _______ _____ _____    ______ ____
ROOT
ATOM      1  C   UNL     1       4.664   5.503  18.554  0.00  0.00    +0.000 C 
ATOM      2  O   UNL     1       4.812   4.686  19.465  0.00  0.00    +0.000 OA
ATOM      3  N   UNL     1       3.595   6.407  18.579  0.00  0.00    +0.000 N 
ATOM      4  C   UNL     1       3.382   7.504  17.623  0.00  0.00    +0.000 C 
ATOM      5  C   UNL     1       2.855   8.788  18.292  0.00  0.00    +0.000 C 
ATOM      6  N   UNL     1       1.690   8.467  19.129  0.00  0.00    +0.000 N 
ATOM      7  C   UNL     1       1.998   7.471  20.178  0.00  0.00    +0.000 C 
ATOM      8  C   UNL     1       2.482   6.171  19.511  0.00  0.00    +0.000 C 
ENDROOT
BRANCH   6   9
ATOM      9  C   UNL     1       0.794   9.483  19.463  0.00  0.00    +0.000 A 
ATOM     10  C   UNL     1       0.718  10.610  18.629  0.00  0.00    +0.000 A 
ATOM     11  C   UNL     1      -0.090  11.696  18.954  0.00  0.00    +0.000 A 
ATOM     12  F   UNL     1      -0.110  12.764  18.147  0.00  0.00    +0.000 F 
ATOM     13  C   UNL     1      -0.854  11.702  20.113  0.00  0.00    +0.000 A 
ATOM     14  C   UNL     1      -0.809  10.598  20.956  0.00  0.00    +0.000 A 
ATOM     15  C   UNL     1       0.006   9.509  20.635  0.00  0.00    +0.000 A 
ATOM     16  F   UNL     1       0.006   8.469  21.483  0.00  0.00    +0.000 F 
ENDBRANCH   6   9
BRANCH   1  22
ATOM     17  C   UNL     1       7.740   6.683  18.410  0.00  0.00    +0.000 C 
ATOM     18  C   UNL     1       6.894   6.057  17.374  0.00  0.00    +0.000 A 
ATOM     19  N   UNL     1       7.376   5.892  16.094  0.00  0.00    +0.000 NA
ATOM     20  C   UNL     1       6.418   5.239  15.470  0.00  0.00    +0.000 A 
ATOM     21  O   UNL     1       5.314   5.001  16.239  0.00  0.00    +0.000 OA
ATOM     22  C   UNL     1       5.606   5.570  17.455  0.00  0.00    +0.000 A 
BRANCH  20  23
ATOM     23  C   UNL     1       6.424   4.683  14.122  0.00  0.00    +0.000 A 
ATOM     24  C   UNL     1       7.456   5.050  13.244  0.00  0.00    +0.000 A 
ATOM     25  C   UNL     1       7.577   4.448  11.990  0.00  0.00    +0.000 A 
ATOM     26  C   UNL     1       6.657   3.482  11.594  0.00  0.00    +0.000 A 
ATOM     27  C   UNL     1       5.601   3.138  12.435  0.00  0.00    +0.000 A 
ATOM     28  C   UNL     1       5.479   3.741  13.692  0.00  0.00    +0.000 A 
ENDBRANCH  20  23
ENDBRANCH   1  22
TORSDOF 3
ENDMDL
MODEL 5
REMARK VINA RESULT:      -8.1      1.151      1.372
REMARK  Name = 
REMARK  4 active torsions:
REMARK  status: ('A' for Active; 'I' for Inactive)
REMARK    1  A    between atoms: C_1  and  C_2
REMARK    2  A    between atoms: C_4  and  C_5
REMARK    3  A    between atoms: C_12  and  C_13
REMARK    4  A    between atoms: N_18  and  C_19
REMARK                            x       y       z     vdW  Elec       q    Type
REMARK                         _______ _______ _______ _____ _____    ______ ____
ROOT
ATOM      1  C   UNL     1       4.623   4.755  17.853  0.00  0.00    +0.000 C 
ATOM      2  O   UNL     1       4.880   3.834  18.631  0.00  0.00    +0.000 OA
ATOM      3  N   UNL     1       3.634   5.694  18.169  0.00  0.00    +0.000 N 
ATOM      4  C   UNL     1       3.322   6.901  17.388  0.00  0.00    +0.000 C 
ATOM      5  C   UNL     1       3.002   8.121  18.273  0.00  0.00    +0.000 C 
ATOM      6  N   UNL     1       1.987   7.755  19.271  0.00  0.00    +0.000 N 
ATOM      7  C   UNL     1       2.414   6.634  20.136  0.00  0.00    +0.000 C 
ATOM      8  C   UNL     1       2.692   5.399  19.259  0.00  0.00    +0.000 C 
ENDROOT
BRANCH   6   9
ATOM      9  C   UNL     1       1.229   8.763  19.869  0.00  0.00    +0.000 A 
ATOM     10  C   UNL     1       1.089   8.755  21.266  0.00  0.00    +0.000 A 
ATOM     11  C   UNL     1       0.274   9.679  21.916  0.00  0.00    +0.000 A 
ATOM     12  F   UNL     1       0.144   9.618  23.247  0.00  0.00    +0.000 F 
ATOM     13  C   UNL     1      -0.425  10.644  21.205  0.00  0.00    +0.000 A 
ATOM     14  C   UNL     1      -0.302  10.685  19.821  0.00  0.00    +0.000 A 
ATOM     15  C   UNL     1       0.511   9.755  19.167  0.00  0.00    +0.000 A 
ATOM     16  F   UNL     1       0.597   9.846  17.830  0.00  0.00    +0.000 F 
ENDBRANCH   6   9
BRANCH   1  22
ATOM     17  C   UNL     1       7.292   6.552  17.127  0.00  0.00    +0.000 C 
ATOM     18  C   UNL     1       6.473   5.651  16.289  0.00  0.00    +0.000 A 
ATOM     19  N   UNL     1       6.793   5.460  14.963  0.00  0.00    +0.000 NA
ATOM     20  C   UNL     1       5.931   4.553  14.551  0.00  0.00    +0.000 A 
ATOM     21  O   UNL     1       5.034   4.164  15.504  0.00  0.00    +0.000 OA
ATOM     22  C   UNL     1       5.357   4.908  16.613  0.00  0.00    +0.000 A 
BRANCH  20  23
ATOM     23  C   UNL     1       5.873   3.873  13.262  0.00  0.00    +0.000 A 
ATOM     24  C   UNL     1       7.068   3.422  12.681  0.00  0.00    +0.000 A 
ATOM     25  C   UNL     1       7.051   2.656  11.514  0.00  0.00    +0.000 A 
ATOM     26  C   UNL     1       5.839   2.344  10.907  0.00  0.00    +0.000 A 
ATOM     27  C   UNL     1       4.645   2.820  11.447  0.00  0.00    +0.000 A 
ATOM     28  C   UNL     1       4.661   3.588  12.616  0.00  0.00    +0.000 A 
ENDBRANCH  20  23
ENDBRANCH   1  22
TORSDOF 3
ENDMDL
MODEL 6
REMARK VINA RESULT:      -7.9      4.074      9.372
REMARK  Name = 
REMARK  4 active torsions:
REMARK  status: ('A' for Active; 'I' for Inactive)
REMARK    1  A    between atoms: C_1  and  C_2
REMARK    2  A    between atoms: C_4  and  C_5
REMARK    3  A    between atoms: C_12  and  C_13
REMARK    4  A    between atoms: N_18  and  C_19
REMARK                            x       y       z     vdW  Elec       q    Type
REMARK                         _______ _______ _______ _____ _____    ______ ____
ROOT
ATOM      1  C   UNL     1       0.167  10.015  20.329  0.00  0.00    +0.000 C 
ATOM      2  O   UNL     1      -0.435   9.804  21.384  0.00  0.00    +0.000 OA
ATOM      3  N   UNL     1       1.123   9.104  19.865  0.00  0.00    +0.000 N 
ATOM      4  C   UNL     1       1.814   9.179  18.569  0.00  0.00    +0.000 C 
ATOM      5  C   UNL     1       2.000   7.800  17.908  0.00  0.00    +0.000 C 
ATOM      6  N   UNL     1       2.601   6.867  18.872  0.00  0.00    +0.000 N 
ATOM      7  C   UNL     1       1.786   6.707  20.096  0.00  0.00    +0.000 C 
ATOM      8  C   UNL     1       1.635   8.077  20.783  0.00  0.00    +0.000 C 
ENDROOT
BRANCH   6   9
ATOM      9  C   UNL     1       3.262   5.732  18.399  0.00  0.00    +0.000 A 
ATOM     10  C   UNL     1       4.655   5.656  18.556  0.00  0.00    +0.000 A 
ATOM     11  C   UNL     1       5.383   4.593  18.027  0.00  0.00    +0.000 A 
ATOM     12  F   UNL     1       6.714   4.572  18.172  0.00  0.00    +0.000 F 
ATOM     13  C   UNL     1       4.757   3.568  17.330  0.00  0.00    +0.000 A 
ATOM     14  C   UNL     1       3.378   3.610  17.165  0.00  0.00    +0.000 A 
ATOM     15  C   UNL     1       2.646   4.679  17.690  0.00  0.00    +0.000 A 
ATOM     16  F   UNL     1       1.316   4.663  17.505  0.00  0.00    +0.000 F 
ENDBRANCH   6   9
BRANCH   1  22
ATOM     17  C   UNL     1      -2.193  10.585  18.096  0.00  0.00    +0.000 C 
ATOM     18  C   UNL     1      -1.101  11.448  18.594  0.00  0.00    +0.000 A 
ATOM     19  N   UNL     1      -0.954  12.728  18.106  0.00  0.00    +0.000 NA
ATOM     20  C   UNL     1       0.036  13.231  18.813  0.00  0.00    +0.000 A 
ATOM     21  O   UNL     1       0.585  12.354  19.705  0.00  0.00    +0.000 OA
ATOM     22  C   UNL     1      -0.122  11.189  19.530  0.00  0.00    +0.000 A 
BRANCH  20  23
ATOM     23  C   UNL     1       0.550  14.596  18.817  0.00  0.00    +0.000 A 
ATOM     24  C   UNL     1       1.932  14.798  18.683  0.00  0.00    +0.000 A 
ATOM     25  C   UNL     1       2.457  16.085  18.554  0.00  0.00    +0.000 A 
ATOM     26  C   UNL     1       1.606  17.186  18.572  0.00  0.00    +0.000 A 
ATOM     27  C   UNL     1       0.236  17.005  18.749  0.00  0.00    +0.000 A 
ATOM     28  C   UNL     1      -0.292  15.716  18.879  0.00  0.00    +0.000 A 
ENDBRANCH  20  23
ENDBRANCH   1  22
TORSDOF 3
ENDMDL
MODEL 7
REMARK VINA RESULT:      -7.8      4.031      9.451
REMARK  Name = 
REMARK  4 active torsions:
REMARK  status: ('A' for Active; 'I' for Inactive)
REMARK    1  A    between atoms: C_1  and  C_2
REMARK    2  A    between atoms: C_4  and  C_5
REMARK    3  A    between atoms: C_12  and  C_13
REMARK    4  A    between atoms: N_18  and  C_19
REMARK                            x       y       z     vdW  Elec       q    Type
REMARK                         _______ _______ _______ _____ _____    ______ ____
ROOT
ATOM      1  C   UNL     1       0.250   9.934  20.097  0.00  0.00    +0.000 C 
ATOM      2  O   UNL     1      -0.328   9.619  21.139  0.00  0.00    +0.000 OA
ATOM      3  N   UNL     1       1.242   9.106  19.559  0.00  0.00    +0.000 N 
ATOM      4  C   UNL     1       1.912   9.306  18.265  0.00  0.00    +0.000 C 
ATOM      5  C   UNL     1       2.154   7.988  17.504  0.00  0.00    +0.000 C 
ATOM      6  N   UNL     1       2.811   7.019  18.394  0.00  0.00    +0.000 N 
ATOM      7  C   UNL     1       2.020   6.732  19.610  0.00  0.00    +0.000 C 
ATOM      8  C   UNL     1       1.814   8.041  20.396  0.00  0.00    +0.000 C 
ENDROOT
BRANCH   6   9
ATOM      9  C   UNL     1       3.518   5.954  17.833  0.00  0.00    +0.000 A 
ATOM     10  C   UNL     1       2.914   4.686  17.814  0.00  0.00    +0.000 A 
ATOM     11  C   UNL     1       3.600   3.566  17.350  0.00  0.00    +0.000 A 
ATOM     12  F   UNL     1       2.999   2.371  17.377  0.00  0.00    +0.000 F 
ATOM     13  C   UNL     1       4.904   3.665  16.885  0.00  0.00    +0.000 A 
ATOM     14  C   UNL     1       5.528   4.906  16.882  0.00  0.00    +0.000 A 
ATOM     15  C   UNL     1       4.843   6.030  17.353  0.00  0.00    +0.000 A 
ATOM     16  F   UNL     1       5.493   7.205  17.321  0.00  0.00    +0.000 F 
ENDBRANCH   6   9
BRANCH   1  22
ATOM     17  C   UNL     1      -2.280  10.605  18.089  0.00  0.00    +0.000 C 
ATOM     18  C   UNL     1      -1.155  11.448  18.546  0.00  0.00    +0.000 A 
ATOM     19  N   UNL     1      -1.051  12.754  18.118  0.00  0.00    +0.000 NA
ATOM     20  C   UNL     1      -0.009  13.225  18.771  0.00  0.00    +0.000 A 
ATOM     21  O   UNL     1       0.611  12.306  19.569  0.00  0.00    +0.000 OA
ATOM     22  C   UNL     1      -0.104  11.147  19.387  0.00  0.00    +0.000 A 
BRANCH  20  23
ATOM     23  C   UNL     1       0.499  14.592  18.809  0.00  0.00    +0.000 A 
ATOM     24  C   UNL     1       1.882  14.801  18.700  0.00  0.00    +0.000 A 
ATOM     25  C   UNL     1       2.405  16.092  18.603  0.00  0.00    +0.000 A 
ATOM     26  C   UNL     1       1.549  17.190  18.628  0.00  0.00    +0.000 A 
ATOM     27  C   UNL     1       0.177  17.001  18.780  0.00  0.00    +0.000 A 
ATOM     28  C   UNL     1      -0.347  15.708  18.878  0.00  0.00    +0.000 A 
ENDBRANCH  20  23
ENDBRANCH   1  22
TORSDOF 3
ENDMDL
MODEL 8
REMARK VINA RESULT:      -7.7      3.551      9.110
REMARK  Name = 
REMARK  4 active torsions:
REMARK  status: ('A' for Active; 'I' for Inactive)
REMARK    1  A    between atoms: C_1  and  C_2
REMARK    2  A    between atoms: C_4  and  C_5
REMARK    3  A    between atoms: C_12  and  C_13
REMARK    4  A    between atoms: N_18  and  C_19
REMARK                            x       y       z     vdW  Elec       q    Type
REMARK                         _______ _______ _______ _____ _____    ______ ____
ROOT
ATOM      1  C   UNL     1       5.165   5.172  19.221  0.00  0.00    +0.000 C 
ATOM      2  O   UNL     1       6.048   4.841  20.016  0.00  0.00    +0.000 OA
ATOM      3  N   UNL     1       5.420   5.192  17.846  0.00  0.00    +0.000 N 
ATOM      4  C   UNL     1       4.422   5.446  16.796  0.00  0.00    +0.000 C 
ATOM      5  C   UNL     1       4.617   4.556  15.554  0.00  0.00    +0.000 C 
ATOM      6  N   UNL     1       6.015   4.634  15.105  0.00  0.00    +0.000 N 
ATOM      7  C   UNL     1       6.975   4.216  16.151  0.00  0.00    +0.000 C 
ATOM      8  C   UNL     1       6.813   5.134  17.377  0.00  0.00    +0.000 C 
ENDROOT
BRANCH   6   9
ATOM      9  C   UNL     1       6.326   4.292  13.788  0.00  0.00    +0.000 A 
ATOM     10  C   UNL     1       5.545   3.315  13.149  0.00  0.00    +0.000 A 
ATOM     11  C   UNL     1       5.857   2.865  11.868  0.00  0.00    +0.000 A 
ATOM     12  F   UNL     1       5.105   1.911  11.306  0.00  0.00    +0.000 F 
ATOM     13  C   UNL     1       6.948   3.371  11.176  0.00  0.00    +0.000 A 
ATOM     14  C   UNL     1       7.736   4.345  11.776  0.00  0.00    +0.000 A 
ATOM     15  C   UNL     1       7.429   4.793  13.064  0.00  0.00    +0.000 A 
ATOM     16  F   UNL     1       8.221   5.740  13.592  0.00  0.00    +0.000 F 
ENDBRANCH   6   9
BRANCH   1  22
ATOM     17  C   UNL     1       2.847   3.342  20.691  0.00  0.00    +0.000 C 
ATOM     18  C   UNL     1       2.854   4.769  20.304  0.00  0.00    +0.000 A 
ATOM     19  N   UNL     1       1.754   5.559  20.554  0.00  0.00    +0.000 NA
ATOM     20  C   UNL     1       2.127   6.762  20.171  0.00  0.00    +0.000 A 
ATOM     21  O   UNL     1       3.385   6.813  19.643  0.00  0.00    +0.000 OA
ATOM     22  C   UNL     1       3.836   5.516  19.688  0.00  0.00    +0.000 A 
BRANCH  20  23
ATOM     23  C   UNL     1       1.412   8.025  20.315  0.00  0.00    +0.000 A 
ATOM     24  C   UNL     1       1.420   8.932  19.243  0.00  0.00    +0.000 A 
ATOM     25  C   UNL     1       0.648  10.094  19.284  0.00  0.00    +0.000 A 
ATOM     26  C   UNL     1      -0.130  10.370  20.404  0.00  0.00    +0.000 A 
ATOM     27  C   UNL     1      -0.115   9.502  21.495  0.00  0.00    +0.000 A 
ATOM     28  C   UNL     1       0.658   8.338  21.455  0.00  0.00    +0.000 A 
ENDBRANCH  20  23
ENDBRANCH   1  22
TORSDOF 3
ENDMDL
MODEL 9
REMARK VINA RESULT:      -7.6      4.607     10.124
REMARK  Name = 
REMARK  4 active torsions:
REMARK  status: ('A' for Active; 'I' for Inactive)
REMARK    1  A    between atoms: C_1  and  C_2
REMARK    2  A    between atoms: C_4  and  C_5
REMARK    3  A    between atoms: C_12  and  C_13
REMARK    4  A    between atoms: N_18  and  C_19
REMARK                            x       y       z     vdW  Elec       q    Type
REMARK                         _______ _______ _______ _____ _____    ______ ____
ROOT
ATOM      1  C   UNL     1       1.289  11.004  19.058  0.00  0.00    +0.000 C 
ATOM      2  O   UNL     1       1.753  11.568  18.065  0.00  0.00    +0.000 OA
ATOM      3  N   UNL     1       1.382   9.614  19.191  0.00  0.00    +0.000 N 
ATOM      4  C   UNL     1       0.982   8.841  20.377  0.00  0.00    +0.000 C 
ATOM      5  C   UNL     1       1.949   7.684  20.693  0.00  0.00    +0.000 C 
ATOM      6  N   UNL     1       2.171   6.881  19.482  0.00  0.00    +0.000 N 
ATOM      7  C   UNL     1       2.723   7.676  18.363  0.00  0.00    +0.000 C 
ATOM      8  C   UNL     1       1.737   8.806  18.015  0.00  0.00    +0.000 C 
ENDROOT
BRANCH   6   9
ATOM      9  C   UNL     1       2.628   5.568  19.612  0.00  0.00    +0.000 A 
ATOM     10  C   UNL     1       3.928   5.266  19.176  0.00  0.00    +0.000 A 
ATOM     11  C   UNL     1       4.411   3.960  19.196  0.00  0.00    +0.000 A 
ATOM     12  F   UNL     1       5.645   3.710  18.743  0.00  0.00    +0.000 F 
ATOM     13  C   UNL     1       3.625   2.911  19.653  0.00  0.00    +0.000 A 
ATOM     14  C   UNL     1       2.337   3.177  20.100  0.00  0.00    +0.000 A 
ATOM     15  C   UNL     1       1.848   4.486  20.075  0.00  0.00    +0.000 A 
ATOM     16  F   UNL     1       0.599   4.685  20.524  0.00  0.00    +0.000 F 
ENDBRANCH   6   9
BRANCH   1  22
ATOM     17  C   UNL     1       2.444  13.477  20.910  0.00  0.00    +0.000 C 
ATOM     18  C   UNL     1       1.130  12.801  20.907  0.00  0.00    +0.000 A 
ATOM     19  N   UNL     1       0.149  13.193  21.791  0.00  0.00    +0.000 NA
ATOM     20  C   UNL     1      -0.893  12.458  21.463  0.00  0.00    +0.000 A 
ATOM     21  O   UNL     1      -0.654  11.573  20.450  0.00  0.00    +0.000 OA
ATOM     22  C   UNL     1       0.667  11.765  20.123  0.00  0.00    +0.000 A 
BRANCH  20  23
ATOM     23  C   UNL     1      -2.255  12.529  21.979  0.00  0.00    +0.000 A 
ATOM     24  C   UNL     1      -2.471  12.313  23.349  0.00  0.00    +0.000 A 
ATOM     25  C   UNL     1      -3.736  12.495  23.910  0.00  0.00    +0.000 A 
ATOM     26  C   UNL     1      -4.803  12.883  23.105  0.00  0.00    +0.000 A 
ATOM     27  C   UNL     1      -4.615  13.059  21.736  0.00  0.00    +0.000 A 
ATOM     28  C   UNL     1      -3.348  12.876  21.172  0.00  0.00    +0.000 A 
ENDBRANCH  20  23
ENDBRANCH   1  22
TORSDOF 3
ENDMDL
