MODEL 1
REMARK VINA RESULT:      -9.0      0.000      0.000
REMARK  Name = 
REMARK  8 active torsions:
REMARK  status: ('A' for Active; 'I' for Inactive)
REMARK    1  A    between atoms: C_1  and  C_2
REMARK    2  A    between atoms: C_2  and  C_3
REMARK    3  A    between atoms: C_5  and  C_6
REMARK    4  A    between atoms: N_8  and  C_9
REMARK    5  A    between atoms: C_13  and  C_14
REMARK    6  A    between atoms: C_14  and  N_15
REMARK    7  A    between atoms: N_20  and  C_21
REMARK    8  A    between atoms: C_27  and  C_28
REMARK                            x       y       z     vdW  Elec       q    Type
REMARK                         _______ _______ _______ _____ _____    ______ ____
ROOT
ATOM      1  C   UNL     1       2.425   5.825  18.199  0.00  0.00    +0.000 A 
ATOM      2  C   UNL     1       1.669   4.657  18.162  0.00  0.00    +0.000 A 
ATOM      3  C   UNL     1       2.193   3.494  17.602  0.00  0.00    +0.000 A 
ATOM      4  C   UNL     1       3.476   3.498  17.055  0.00  0.00    +0.000 A 
ATOM      5  C   UNL     1       4.263   4.666  17.017  0.00  0.00    +0.000 A 
ATOM      6  C   UNL     1       3.700   5.820  17.616  0.00  0.00    +0.000 A 
ENDROOT
BRANCH   1   9
ATOM      7  C   UNL     1       2.041   8.289  18.255  0.00  0.00    +0.000 C 
ATOM      8  O   UNL     1       2.512   8.599  17.159  0.00  0.00    +0.000 OA
ATOM      9  N   UNL     1       1.972   7.019  18.795  0.00  0.00    +0.000 N 
ATOM     10  H   UNL     1       1.461   6.957  19.674  0.00  0.00    +0.000 HD
BRANCH   7  13
ATOM     11  C   UNL     1       0.408  10.045  21.149  0.00  0.00    +0.000 A 
ATOM     12  C   UNL     1       0.957   9.034  20.367  0.00  0.00    +0.000 A 
ATOM     13  C   UNL     1       1.430   9.358  19.102  0.00  0.00    +0.000 A 
ATOM     14  N   UNL     1       1.387  10.607  18.570  0.00  0.00    +0.000 NA
ATOM     15  C   UNL     1       0.843  11.594  19.327  0.00  0.00    +0.000 A 
ATOM     16  C   UNL     1       0.350  11.336  20.612  0.00  0.00    +0.000 A 
BRANCH  15  17
ATOM     17  C   UNL     1       0.771  12.974  18.718  0.00  0.00    +0.000 C 
ATOM     18  C   UNL     1       1.539  14.094  19.386  0.00  0.00    +0.000 C 
ATOM     19  C   UNL     1       0.040  14.114  19.387  0.00  0.00    +0.000 C 
ENDBRANCH  15  17
BRANCH  11  21
ATOM     20  C   UNL     1      -1.032  10.817  23.046  0.00  0.00    +0.000 C 
ATOM     21  C   UNL     1      -0.064   9.753  22.549  0.00  0.00    +0.000 C 
ENDBRANCH  11  21
ENDBRANCH   7  13
ENDBRANCH   1   9
BRANCH   5  22
ATOM     22  C   UNL     1       5.684   4.702  16.302  0.00  0.00    +0.000 C 
ATOM     23  C   UNL     1       5.831   5.466  14.957  0.00  0.00    +0.000 C 
ATOM     24  O   UNL     1       6.627   4.379  14.397  0.00  0.00    +0.000 OA
ATOM     25  C   UNL     1       6.071   3.484  15.401  0.00  0.00    +0.000 C 
BRANCH  22  26
ATOM     26  N   UNL     1       6.769   4.974  17.258  0.00  0.00    +0.000 N 
ATOM     27  C   UNL     1       7.212   6.239  17.486  0.00  0.00    +0.000 A 
ATOM     28  N   UNL     1       7.059   7.324  16.759  0.00  0.00    +0.000 NA
ATOM     29  N   UNL     1       7.739   8.355  17.370  0.00  0.00    +0.000 NA
ATOM     30  C   UNL     1       8.268   7.878  18.472  0.00  0.00    +0.000 A 
ATOM     31  N   UNL     1       7.968   6.556  18.586  0.00  0.00    +0.000 N 
ATOM     32  C   UNL     1       8.324   5.711  19.694  0.00  0.00    +0.000 C 
ATOM     33  H   UNL     1       7.544   4.346  17.041  0.00  0.00    +0.000 HD
ENDBRANCH  22  26
ENDBRANCH   5  22
TORSDOF 6
ENDMDL
MODEL 2
REMARK VINA RESULT:      -8.9      3.027      9.098
REMARK  Name = 
REMARK  8 active torsions:
REMARK  status: ('A' for Active; 'I' for Inactive)
REMARK    1  A    between atoms: C_1  and  C_2
REMARK    2  A    between atoms: C_2  and  C_3
REMARK    3  A    between atoms: C_5  and  C_6
REMARK    4  A    between atoms: N_8  and  C_9
REMARK    5  A    between atoms: C_13  and  C_14
REMARK    6  A    between atoms: C_14  and  N_15
REMARK    7  A    between atoms: N_20  and  C_21
REMARK    8  A    between atoms: C_27  and  C_28
REMARK                            x       y       z     vdW  Elec       q    Type
REMARK                         _______ _______ _______ _____ _____    ______ ____
ROOT
ATOM      1  C   UNL     1       0.959   8.820  21.023  0.00  0.00    +0.000 A 
ATOM      2  C   UNL     1       0.512   9.112  22.309  0.00  0.00    +0.000 A 
ATOM      3  C   UNL     1      -0.263  10.244  22.548  0.00  0.00    +0.000 A 
ATOM      4  C   UNL     1      -0.580  11.107  21.500  0.00  0.00    +0.000 A 
ATOM      5  C   UNL     1      -0.109  10.890  20.190  0.00  0.00    +0.000 A 
ATOM      6  C   UNL     1       0.657   9.716  19.988  0.00  0.00    +0.000 A 
ENDROOT
BRANCH   1   9
ATOM      7  C   UNL     1       2.287   7.367  19.492  0.00  0.00    +0.000 C 
ATOM      8  O   UNL     1       2.259   8.058  18.472  0.00  0.00    +0.000 OA
ATOM      9  N   UNL     1       1.702   7.665  20.708  0.00  0.00    +0.000 N 
ATOM     10  H   UNL     1       1.917   7.009  21.456  0.00  0.00    +0.000 HD
BRANCH   7  13
ATOM     11  C   UNL     1       3.315   3.814  20.160  0.00  0.00    +0.000 A 
ATOM     12  C   UNL     1       2.595   5.003  20.205  0.00  0.00    +0.000 A 
ATOM     13  C   UNL     1       3.059   6.087  19.471  0.00  0.00    +0.000 A 
ATOM     14  N   UNL     1       4.183   6.066  18.709  0.00  0.00    +0.000 NA
ATOM     15  C   UNL     1       4.894   4.910  18.670  0.00  0.00    +0.000 A 
ATOM     16  C   UNL     1       4.480   3.779  19.385  0.00  0.00    +0.000 A 
BRANCH  15  17
ATOM     17  C   UNL     1       6.159   4.902  17.846  0.00  0.00    +0.000 C 
ATOM     18  C   UNL     1       7.435   5.406  18.485  0.00  0.00    +0.000 C 
ATOM     19  C   UNL     1       6.813   6.175  17.359  0.00  0.00    +0.000 C 
ENDBRANCH  15  17
BRANCH  11  21
ATOM     20  C   UNL     1       1.394   2.785  21.391  0.00  0.00    +0.000 C 
ATOM     21  C   UNL     1       2.819   2.596  20.892  0.00  0.00    +0.000 C 
ENDBRANCH  11  21
ENDBRANCH   7  13
ENDBRANCH   1   9
BRANCH   5  22
ATOM     22  C   UNL     1      -0.382  11.926  19.013  0.00  0.00    +0.000 C 
ATOM     23  C   UNL     1       0.794  12.797  18.491  0.00  0.00    +0.000 C 
ATOM     24  O   UNL     1      -0.062  13.978  18.461  0.00  0.00    +0.000 OA
ATOM     25  C   UNL     1      -0.960  13.326  19.402  0.00  0.00    +0.000 C 
BRANCH  22  26
ATOM     26  N   UNL     1      -1.200  11.333  17.943  0.00  0.00    +0.000 N 
ATOM     27  C   UNL     1      -2.554  11.457  17.936  0.00  0.00    +0.000 A 
ATOM     28  N   UNL     1      -3.372  11.773  18.916  0.00  0.00    +0.000 NA
ATOM     29  N   UNL     1      -4.663  11.713  18.440  0.00  0.00    +0.000 NA
ATOM     30  C   UNL     1      -4.600  11.388  17.170  0.00  0.00    +0.000 A 
ATOM     31  N   UNL     1      -3.299  11.214  16.810  0.00  0.00    +0.000 N 
ATOM     32  C   UNL     1      -2.833  10.913  15.484  0.00  0.00    +0.000 C 
ATOM     33  H   UNL     1      -0.919  10.358  17.837  0.00  0.00    +0.000 HD
ENDBRANCH  22  26
ENDBRANCH   5  22
TORSDOF 6
ENDMDL
MODEL 3
REMARK VINA RESULT:      -8.8      0.617      2.455
REMARK  Name = 
REMARK  8 active torsions:
REMARK  status: ('A' for Active; 'I' for Inactive)
REMARK    1  A    between atoms: C_1  and  C_2
REMARK    2  A    between atoms: C_2  and  C_3
REMARK    3  A    between atoms: C_5  and  C_6
REMARK    4  A    between atoms: N_8  and  C_9
REMARK    5  A    between atoms: C_13  and  C_14
REMARK    6  A    between atoms: C_14  and  N_15
REMARK    7  A    between atoms: N_20  and  C_21
REMARK    8  A    between atoms: C_27  and  C_28
REMARK                            x       y       z     vdW  Elec       q    Type
REMARK                         _______ _______ _______ _____ _____    ______ ____
ROOT
ATOM      1  C   UNL     1       2.420   5.826  18.153  0.00  0.00    +0.000 A 
ATOM      2  C   UNL     1       1.667   4.655  18.131  0.00  0.00    +0.000 A 
ATOM      3  C   UNL     1       2.200   3.483  17.598  0.00  0.00    +0.000 A 
ATOM      4  C   UNL     1       3.487   3.480  17.064  0.00  0.00    +0.000 A 
ATOM      5  C   UNL     1       4.272   4.650  17.011  0.00  0.00    +0.000 A 
ATOM      6  C   UNL     1       3.700   5.813  17.583  0.00  0.00    +0.000 A 
ENDROOT
BRANCH   1   9
ATOM      7  C   UNL     1       2.076   8.296  18.183  0.00  0.00    +0.000 C 
ATOM      8  O   UNL     1       2.607   8.593  17.111  0.00  0.00    +0.000 OA
ATOM      9  N   UNL     1       1.958   7.030  18.722  0.00  0.00    +0.000 N 
ATOM     10  H   UNL     1       1.402   6.980  19.575  0.00  0.00    +0.000 HD
BRANCH   7  13
ATOM     11  C   UNL     1       0.963  11.693  19.342  0.00  0.00    +0.000 A 
ATOM     12  C   UNL     1       1.574  10.700  18.585  0.00  0.00    +0.000 A 
ATOM     13  C   UNL     1       1.442   9.379  18.995  0.00  0.00    +0.000 A 
ATOM     14  N   UNL     1       0.753   8.990  20.099  0.00  0.00    +0.000 NA
ATOM     15  C   UNL     1       0.163   9.958  20.845  0.00  0.00    +0.000 A 
ATOM     16  C   UNL     1       0.255  11.309  20.486  0.00  0.00    +0.000 A 
BRANCH  15  17
ATOM     17  C   UNL     1      -0.576   9.520  22.087  0.00  0.00    +0.000 C 
ATOM     18  C   UNL     1      -0.937  10.572  23.114  0.00  0.00    +0.000 C 
ATOM     19  C   UNL     1       0.071   9.517  23.452  0.00  0.00    +0.000 C 
ENDBRANCH  15  17
BRANCH  11  21
ATOM     20  C   UNL     1       2.291  13.413  18.099  0.00  0.00    +0.000 C 
ATOM     21  C   UNL     1       1.031  13.133  18.905  0.00  0.00    +0.000 C 
ENDBRANCH  11  21
ENDBRANCH   7  13
ENDBRANCH   1   9
BRANCH   5  22
ATOM     22  C   UNL     1       5.700   4.676  16.309  0.00  0.00    +0.000 C 
ATOM     23  C   UNL     1       5.861   5.427  14.959  0.00  0.00    +0.000 C 
ATOM     24  O   UNL     1       6.659   4.334  14.416  0.00  0.00    +0.000 OA
ATOM     25  C   UNL     1       6.092   3.449  15.423  0.00  0.00    +0.000 C 
BRANCH  22  26
ATOM     26  N   UNL     1       6.776   4.953  17.273  0.00  0.00    +0.000 N 
ATOM     27  C   UNL     1       7.217   6.220  17.497  0.00  0.00    +0.000 A 
ATOM     28  N   UNL     1       7.070   7.300  16.763  0.00  0.00    +0.000 NA
ATOM     29  N   UNL     1       7.745   8.335  17.374  0.00  0.00    +0.000 NA
ATOM     30  C   UNL     1       8.264   7.865  18.483  0.00  0.00    +0.000 A 
ATOM     31  N   UNL     1       7.964   6.543  18.602  0.00  0.00    +0.000 N 
ATOM     32  C   UNL     1       8.310   5.705  19.718  0.00  0.00    +0.000 C 
ATOM     33  H   UNL     1       7.553   4.324  17.067  0.00  0.00    +0.000 HD
ENDBRANCH  22  26
ENDBRANCH   5  22
TORSDOF 6
ENDMDL
MODEL 4
REMARK VINA RESULT:      -8.8      2.819      9.402
REMARK  Name = 
REMARK  8 active torsions:
REMARK  status: ('A' for Active; 'I' for Inactive)
REMARK    1  A    between atoms: C_1  and  C_2
REMARK    2  A    between atoms: C_2  and  C_3
REMARK    3  A    between atoms: C_5  and  C_6
REMARK    4  A    between atoms: N_8  and  C_9
REMARK    5  A    between atoms: C_13  and  C_14
REMARK    6  A    between atoms: C_14  and  N_15
REMARK    7  A    between atoms: N_20  and  C_21
REMARK    8  A    between atoms: C_27  and  C_28
REMARK                            x       y       z     vdW  Elec       q    Type
REMARK                         _______ _______ _______ _____ _____    ______ ____
ROOT
ATOM      1  C   UNL     1       1.338   8.527  20.223  0.00  0.00    +0.000 A 
ATOM      2  C   UNL     1       1.265   8.741  21.596  0.00  0.00    +0.000 A 
ATOM      3  C   UNL     1       0.645   9.881  22.101  0.00  0.00    +0.000 A 
ATOM      4  C   UNL     1       0.110  10.830  21.231  0.00  0.00    +0.000 A 
ATOM      5  C   UNL     1       0.204  10.690  19.832  0.00  0.00    +0.000 A 
ATOM      6  C   UNL     1       0.823   9.505  19.362  0.00  0.00    +0.000 A 
ENDROOT
BRANCH   1   9
ATOM      7  C   UNL     1       2.734   7.318  18.546  0.00  0.00    +0.000 C 
ATOM      8  O   UNL     1       3.118   8.272  17.868  0.00  0.00    +0.000 OA
ATOM      9  N   UNL     1       1.906   7.370  19.651  0.00  0.00    +0.000 N 
ATOM     10  H   UNL     1       1.779   6.481  20.131  0.00  0.00    +0.000 HD
BRANCH   7  13
ATOM     11  C   UNL     1       4.737   4.531  17.016  0.00  0.00    +0.000 A 
ATOM     12  C   UNL     1       4.282   5.811  17.311  0.00  0.00    +0.000 A 
ATOM     13  C   UNL     1       3.224   5.949  18.202  0.00  0.00    +0.000 A 
ATOM     14  N   UNL     1       2.596   4.907  18.805  0.00  0.00    +0.000 NA
ATOM     15  C   UNL     1       3.033   3.655  18.512  0.00  0.00    +0.000 A 
ATOM     16  C   UNL     1       4.096   3.446  17.624  0.00  0.00    +0.000 A 
BRANCH  15  17
ATOM     17  C   UNL     1       2.310   2.500  19.162  0.00  0.00    +0.000 C 
ATOM     18  C   UNL     1       0.845   2.297  18.841  0.00  0.00    +0.000 C 
ATOM     19  C   UNL     1       1.254   2.703  20.224  0.00  0.00    +0.000 C 
ENDBRANCH  15  17
BRANCH  11  21
ATOM     20  C   UNL     1       5.566   4.662  14.657  0.00  0.00    +0.000 C 
ATOM     21  C   UNL     1       5.918   4.336  16.102  0.00  0.00    +0.000 C 
ENDBRANCH  11  21
ENDBRANCH   7  13
ENDBRANCH   1   9
BRANCH   5  22
ATOM     22  C   UNL     1      -0.312  11.818  18.835  0.00  0.00    +0.000 C 
ATOM     23  C   UNL     1       0.690  12.894  18.333  0.00  0.00    +0.000 C 
ATOM     24  O   UNL     1      -0.298  13.947  18.539  0.00  0.00    +0.000 OA
ATOM     25  C   UNL     1      -1.008  13.071  19.460  0.00  0.00    +0.000 C 
BRANCH  22  26
ATOM     26  N   UNL     1      -1.163  11.259  17.772  0.00  0.00    +0.000 N 
ATOM     27  C   UNL     1      -2.518  11.354  17.826  0.00  0.00    +0.000 A 
ATOM     28  N   UNL     1      -3.300  11.605  18.853  0.00  0.00    +0.000 NA
ATOM     29  N   UNL     1      -4.609  11.539  18.428  0.00  0.00    +0.000 NA
ATOM     30  C   UNL     1      -4.592  11.276  17.142  0.00  0.00    +0.000 A 
ATOM     31  N   UNL     1      -3.304  11.148  16.721  0.00  0.00    +0.000 N 
ATOM     32  C   UNL     1      -2.888  10.921  15.364  0.00  0.00    +0.000 C 
ATOM     33  H   UNL     1      -0.867  10.297  17.607  0.00  0.00    +0.000 HD
ENDBRANCH  22  26
ENDBRANCH   5  22
TORSDOF 6
ENDMDL
MODEL 5
REMARK VINA RESULT:      -8.8      2.609      9.051
REMARK  Name = 
REMARK  8 active torsions:
REMARK  status: ('A' for Active; 'I' for Inactive)
REMARK    1  A    between atoms: C_1  and  C_2
REMARK    2  A    between atoms: C_2  and  C_3
REMARK    3  A    between atoms: C_5  and  C_6
REMARK    4  A    between atoms: N_8  and  C_9
REMARK    5  A    between atoms: C_13  and  C_14
REMARK    6  A    between atoms: C_14  and  N_15
REMARK    7  A    between atoms: N_20  and  C_21
REMARK    8  A    between atoms: C_27  and  C_28
REMARK                            x       y       z     vdW  Elec       q    Type
REMARK                         _______ _______ _______ _____ _____    ______ ____
ROOT
ATOM      1  C   UNL     1       1.058   9.013  20.527  0.00  0.00    +0.000 A 
ATOM      2  C   UNL     1       0.706   8.902  21.869  0.00  0.00    +0.000 A 
ATOM      3  C   UNL     1      -0.040   9.902  22.488  0.00  0.00    +0.000 A 
ATOM      4  C   UNL     1      -0.423  11.034  21.770  0.00  0.00    +0.000 A 
ATOM      5  C   UNL     1      -0.047  11.223  20.426  0.00  0.00    +0.000 A 
ATOM      6  C   UNL     1       0.692  10.172  19.830  0.00  0.00    +0.000 A 
ENDROOT
BRANCH   1   9
ATOM      7  C   UNL     1       2.223   8.081  18.528  0.00  0.00    +0.000 C 
ATOM      8  O   UNL     1       2.087   9.026  17.748  0.00  0.00    +0.000 OA
ATOM      9  N   UNL     1       1.768   8.014  19.831  0.00  0.00    +0.000 N 
ATOM     10  H   UNL     1       2.063   7.184  20.343  0.00  0.00    +0.000 HD
BRANCH   7  13
ATOM     11  C   UNL     1       3.087   4.543  17.601  0.00  0.00    +0.000 A 
ATOM     12  C   UNL     1       2.362   5.645  18.042  0.00  0.00    +0.000 A 
ATOM     13  C   UNL     1       2.992   6.882  18.076  0.00  0.00    +0.000 A 
ATOM     14  N   UNL     1       4.284   7.089  17.709  0.00  0.00    +0.000 NA
ATOM     15  C   UNL     1       4.997   6.014  17.287  0.00  0.00    +0.000 A 
ATOM     16  C   UNL     1       4.421   4.739  17.226  0.00  0.00    +0.000 A 
BRANCH  15  17
ATOM     17  C   UNL     1       6.440   6.245  16.909  0.00  0.00    +0.000 C 
ATOM     18  C   UNL     1       7.507   5.956  17.942  0.00  0.00    +0.000 C 
ATOM     19  C   UNL     1       7.260   7.367  17.502  0.00  0.00    +0.000 C 
ENDBRANCH  15  17
BRANCH  11  21
ATOM     20  C   UNL     1       1.286   3.047  18.488  0.00  0.00    +0.000 C 
ATOM     21  C   UNL     1       2.429   3.193  17.493  0.00  0.00    +0.000 C 
ENDBRANCH  11  21
ENDBRANCH   7  13
ENDBRANCH   1   9
BRANCH   5  22
ATOM     22  C   UNL     1      -0.393  12.559  19.633  0.00  0.00    +0.000 C 
ATOM     23  C   UNL     1       0.531  13.001  18.466  0.00  0.00    +0.000 C 
ATOM     24  O   UNL     1       0.497  14.384  18.929  0.00  0.00    +0.000 OA
ATOM     25  C   UNL     1       0.099  13.911  20.246  0.00  0.00    +0.000 C 
BRANCH  22  26
ATOM     26  N   UNL     1      -1.828  12.651  19.320  0.00  0.00    +0.000 N 
ATOM     27  C   UNL     1      -2.424  11.777  18.467  0.00  0.00    +0.000 A 
ATOM     28  N   UNL     1      -1.885  10.983  17.568  0.00  0.00    +0.000 NA
ATOM     29  N   UNL     1      -2.899  10.328  16.903  0.00  0.00    +0.000 NA
ATOM     30  C   UNL     1      -4.033  10.719  17.433  0.00  0.00    +0.000 A 
ATOM     31  N   UNL     1      -3.788  11.630  18.414  0.00  0.00    +0.000 N 
ATOM     32  C   UNL     1      -4.781  12.235  19.260  0.00  0.00    +0.000 C 
ATOM     33  H   UNL     1      -2.031  13.617  19.060  0.00  0.00    +0.000 HD
ENDBRANCH  22  26
ENDBRANCH   5  22
TORSDOF 6
ENDMDL
MODEL 6
REMARK VINA RESULT:      -8.8      1.076      1.135
REMARK  Name = 
REMARK  8 active torsions:
REMARK  status: ('A' for Active; 'I' for Inactive)
REMARK    1  A    between atoms: C_1  and  C_2
REMARK    2  A    between atoms: C_2  and  C_3
REMARK    3  A    between atoms: C_5  and  C_6
REMARK    4  A    between atoms: N_8  and  C_9
REMARK    5  A    between atoms: C_13  and  C_14
REMARK    6  A    between atoms: C_14  and  N_15
REMARK    7  A    between atoms: N_20  and  C_21
REMARK    8  A    between atoms: C_27  and  C_28
REMARK                            x       y       z     vdW  Elec       q    Type
REMARK                         _______ _______ _______ _____ _____    ______ ____
ROOT
ATOM      1  C   UNL     1       2.465   5.667  18.025  0.00  0.00    +0.000 A 
ATOM      2  C   UNL     1       1.749   4.476  17.935  0.00  0.00    +0.000 A 
ATOM      3  C   UNL     1       2.332   3.342  17.374  0.00  0.00    +0.000 A 
ATOM      4  C   UNL     1       3.633   3.398  16.878  0.00  0.00    +0.000 A 
ATOM      5  C   UNL     1       4.383   4.591  16.893  0.00  0.00    +0.000 A 
ATOM      6  C   UNL     1       3.760   5.714  17.492  0.00  0.00    +0.000 A 
ENDROOT
BRANCH   1   9
ATOM      7  C   UNL     1       1.742   7.042  19.976  0.00  0.00    +0.000 C 
ATOM      8  O   UNL     1       1.970   6.245  20.888  0.00  0.00    +0.000 OA
ATOM      9  N   UNL     1       1.950   6.833  18.626  0.00  0.00    +0.000 N 
ATOM     10  H   UNL     1       1.788   7.649  18.039  0.00  0.00    +0.000 HD
BRANCH   7  13
ATOM     11  C   UNL     1       0.097   9.863  21.836  0.00  0.00    +0.000 A 
ATOM     12  C   UNL     1       0.551   8.587  21.520  0.00  0.00    +0.000 A 
ATOM     13  C   UNL     1       1.231   8.403  20.323  0.00  0.00    +0.000 A 
ATOM     14  N   UNL     1       1.480   9.394  19.428  0.00  0.00    +0.000 NA
ATOM     15  C   UNL     1       1.031  10.639  19.729  0.00  0.00    +0.000 A 
ATOM     16  C   UNL     1       0.341  10.894  20.921  0.00  0.00    +0.000 A 
BRANCH  15  17
ATOM     17  C   UNL     1       1.286  11.730  18.717  0.00  0.00    +0.000 C 
ATOM     18  C   UNL     1       2.118  12.921  19.140  0.00  0.00    +0.000 C 
ATOM     19  C   UNL     1       0.662  13.101  18.834  0.00  0.00    +0.000 C 
ENDBRANCH  15  17
BRANCH  11  21
ATOM     20  C   UNL     1      -1.471  11.364  23.083  0.00  0.00    +0.000 C 
ATOM     21  C   UNL     1      -0.594  10.122  23.148  0.00  0.00    +0.000 C 
ENDBRANCH  11  21
ENDBRANCH   7  13
ENDBRANCH   1   9
BRANCH   5  22
ATOM     22  C   UNL     1       5.829   4.687  16.235  0.00  0.00    +0.000 C 
ATOM     23  C   UNL     1       6.002   5.482  14.911  0.00  0.00    +0.000 C 
ATOM     24  O   UNL     1       6.854   4.433  14.362  0.00  0.00    +0.000 OA
ATOM     25  C   UNL     1       6.290   3.500  15.327  0.00  0.00    +0.000 C 
BRANCH  22  26
ATOM     26  N   UNL     1       6.867   4.973  17.238  0.00  0.00    +0.000 N 
ATOM     27  C   UNL     1       7.279   6.245  17.487  0.00  0.00    +0.000 A 
ATOM     28  N   UNL     1       7.139   7.329  16.757  0.00  0.00    +0.000 NA
ATOM     29  N   UNL     1       7.775   8.370  17.399  0.00  0.00    +0.000 NA
ATOM     30  C   UNL     1       8.264   7.899  18.522  0.00  0.00    +0.000 A 
ATOM     31  N   UNL     1       7.981   6.571  18.620  0.00  0.00    +0.000 N 
ATOM     32  C   UNL     1       8.303   5.729  19.740  0.00  0.00    +0.000 C 
ATOM     33  H   UNL     1       7.660   4.359  17.053  0.00  0.00    +0.000 HD
ENDBRANCH  22  26
ENDBRANCH   5  22
TORSDOF 6
ENDMDL
MODEL 7
REMARK VINA RESULT:      -8.7      2.834      9.287
REMARK  Name = 
REMARK  8 active torsions:
REMARK  status: ('A' for Active; 'I' for Inactive)
REMARK    1  A    between atoms: C_1  and  C_2
REMARK    2  A    between atoms: C_2  and  C_3
REMARK    3  A    between atoms: C_5  and  C_6
REMARK    4  A    between atoms: N_8  and  C_9
REMARK    5  A    between atoms: C_13  and  C_14
REMARK    6  A    between atoms: C_14  and  N_15
REMARK    7  A    between atoms: N_20  and  C_21
REMARK    8  A    between atoms: C_27  and  C_28
REMARK                            x       y       z     vdW  Elec       q    Type
REMARK                         _______ _______ _______ _____ _____    ______ ____
ROOT
ATOM      1  C   UNL     1       1.220   8.676  20.309  0.00  0.00    +0.000 A 
ATOM      2  C   UNL     1       1.114   8.873  21.683  0.00  0.00    +0.000 A 
ATOM      3  C   UNL     1       0.464   9.997  22.188  0.00  0.00    +0.000 A 
ATOM      4  C   UNL     1      -0.069  10.946  21.317  0.00  0.00    +0.000 A 
ATOM      5  C   UNL     1       0.057  10.825  19.919  0.00  0.00    +0.000 A 
ATOM      6  C   UNL     1       0.706   9.656  19.449  0.00  0.00    +0.000 A 
ENDROOT
BRANCH   1   9
ATOM      7  C   UNL     1       2.513   7.481  18.543  0.00  0.00    +0.000 C 
ATOM      8  O   UNL     1       2.726   8.418  17.771  0.00  0.00    +0.000 OA
ATOM      9  N   UNL     1       1.820   7.537  19.737  0.00  0.00    +0.000 N 
ATOM     10  H   UNL     1       1.832   6.674  20.277  0.00  0.00    +0.000 HD
BRANCH   7  13
ATOM     11  C   UNL     1       3.047   3.762  18.458  0.00  0.00    +0.000 A 
ATOM     12  C   UNL     1       2.516   5.005  18.786  0.00  0.00    +0.000 A 
ATOM     13  C   UNL     1       3.083   6.138  18.217  0.00  0.00    +0.000 A 
ATOM     14  N   UNL     1       4.134   6.115  17.358  0.00  0.00    +0.000 NA
ATOM     15  C   UNL     1       4.660   4.904  17.042  0.00  0.00    +0.000 A 
ATOM     16  C   UNL     1       4.135   3.721  17.579  0.00  0.00    +0.000 A 
BRANCH  15  17
ATOM     17  C   UNL     1       5.848   4.887  16.110  0.00  0.00    +0.000 C 
ATOM     18  C   UNL     1       5.589   4.837  14.619  0.00  0.00    +0.000 C 
ATOM     19  C   UNL     1       6.224   3.665  15.304  0.00  0.00    +0.000 C 
ENDBRANCH  15  17
BRANCH  11  21
ATOM     20  C   UNL     1       0.924   2.475  18.779  0.00  0.00    +0.000 C 
ATOM     21  C   UNL     1       2.429   2.503  19.005  0.00  0.00    +0.000 C 
ENDBRANCH  11  21
ENDBRANCH   7  13
ENDBRANCH   1   9
BRANCH   5  22
ATOM     22  C   UNL     1      -0.458  11.955  18.924  0.00  0.00    +0.000 C 
ATOM     23  C   UNL     1       0.543  13.036  18.431  0.00  0.00    +0.000 C 
ATOM     24  O   UNL     1      -0.449  14.085  18.637  0.00  0.00    +0.000 OA
ATOM     25  C   UNL     1      -1.160  13.204  19.550  0.00  0.00    +0.000 C 
BRANCH  22  26
ATOM     26  N   UNL     1      -1.302  11.398  17.855  0.00  0.00    +0.000 N 
ATOM     27  C   UNL     1      -2.657  11.487  17.904  0.00  0.00    +0.000 A 
ATOM     28  N   UNL     1      -3.444  11.729  18.929  0.00  0.00    +0.000 NA
ATOM     29  N   UNL     1      -4.752  11.661  18.497  0.00  0.00    +0.000 NA
ATOM     30  C   UNL     1      -4.728  11.404  17.211  0.00  0.00    +0.000 A 
ATOM     31  N   UNL     1      -3.438  11.283  16.794  0.00  0.00    +0.000 N 
ATOM     32  C   UNL     1      -3.016  11.064  15.437  0.00  0.00    +0.000 C 
ATOM     33  H   UNL     1      -1.001  10.437  17.687  0.00  0.00    +0.000 HD
ENDBRANCH  22  26
ENDBRANCH   5  22
TORSDOF 6
ENDMDL
MODEL 8
REMARK VINA RESULT:      -8.6      3.040      9.341
REMARK  Name = 
REMARK  8 active torsions:
REMARK  status: ('A' for Active; 'I' for Inactive)
REMARK    1  A    between atoms: C_1  and  C_2
REMARK    2  A    between atoms: C_2  and  C_3
REMARK    3  A    between atoms: C_5  and  C_6
REMARK    4  A    between atoms: N_8  and  C_9
REMARK    5  A    between atoms: C_13  and  C_14
REMARK    6  A    between atoms: C_14  and  N_15
REMARK    7  A    between atoms: N_20  and  C_21
REMARK    8  A    between atoms: C_27  and  C_28
REMARK                            x       y       z     vdW  Elec       q    Type
REMARK                         _______ _______ _______ _____ _____    ______ ____
ROOT
ATOM      1  C   UNL     1       0.699   9.084  21.097  0.00  0.00    +0.000 A 
ATOM      2  C   UNL     1       0.284   9.137  22.425  0.00  0.00    +0.000 A 
ATOM      3  C   UNL     1      -0.448  10.225  22.893  0.00  0.00    +0.000 A 
ATOM      4  C   UNL     1      -0.754  11.282  22.037  0.00  0.00    +0.000 A 
ATOM      5  C   UNL     1      -0.312  11.306  20.699  0.00  0.00    +0.000 A 
ATOM      6  C   UNL     1       0.410  10.170  20.259  0.00  0.00    +0.000 A 
ENDROOT
BRANCH   1   9
ATOM      7  C   UNL     1       2.045   7.950  19.329  0.00  0.00    +0.000 C 
ATOM      8  O   UNL     1       2.122   8.864  18.507  0.00  0.00    +0.000 OA
ATOM      9  N   UNL     1       1.398   7.989  20.550  0.00  0.00    +0.000 N 
ATOM     10  H   UNL     1       1.528   7.161  21.127  0.00  0.00    +0.000 HD
BRANCH   7  13
ATOM     11  C   UNL     1       4.283   5.395  17.720  0.00  0.00    +0.000 A 
ATOM     12  C   UNL     1       3.625   6.596  17.965  0.00  0.00    +0.000 A 
ATOM     13  C   UNL     1       2.746   6.662  19.039  0.00  0.00    +0.000 A 
ATOM     14  N   UNL     1       2.478   5.622  19.869  0.00  0.00    +0.000 NA
ATOM     15  C   UNL     1       3.112   4.446  19.628  0.00  0.00    +0.000 A 
ATOM     16  C   UNL     1       4.013   4.312  18.563  0.00  0.00    +0.000 A 
BRANCH  15  17
ATOM     17  C   UNL     1       2.788   3.285  20.537  0.00  0.00    +0.000 C 
ATOM     18  C   UNL     1       1.591   2.422  20.199  0.00  0.00    +0.000 C 
ATOM     19  C   UNL     1       1.569   3.275  21.430  0.00  0.00    +0.000 C 
ENDBRANCH  15  17
BRANCH  11  21
ATOM     20  C   UNL     1       5.142   6.440  15.613  0.00  0.00    +0.000 C 
ATOM     21  C   UNL     1       5.288   5.293  16.604  0.00  0.00    +0.000 C 
ENDBRANCH  11  21
ENDBRANCH   7  13
ENDBRANCH   1   9
BRANCH   5  22
ATOM     22  C   UNL     1      -0.570  12.556  19.749  0.00  0.00    +0.000 C 
ATOM     23  C   UNL     1       0.459  12.874  18.629  0.00  0.00    +0.000 C 
ATOM     24  O   UNL     1       0.402  14.297  18.945  0.00  0.00    +0.000 OA
ATOM     25  C   UNL     1      -0.116  13.961  20.263  0.00  0.00    +0.000 C 
BRANCH  22  26
ATOM     26  N   UNL     1      -1.970  12.622  19.301  0.00  0.00    +0.000 N 
ATOM     27  C   UNL     1      -2.474  11.722  18.415  0.00  0.00    +0.000 A 
ATOM     28  N   UNL     1      -1.843  10.918  17.588  0.00  0.00    +0.000 NA
ATOM     29  N   UNL     1      -2.783  10.235  16.846  0.00  0.00    +0.000 NA
ATOM     30  C   UNL     1      -3.966  10.621  17.260  0.00  0.00    +0.000 A 
ATOM     31  N   UNL     1      -3.825  11.554  18.240  0.00  0.00    +0.000 N 
ATOM     32  C   UNL     1      -4.899  12.162  18.976  0.00  0.00    +0.000 C 
ATOM     33  H   UNL     1      -2.160  13.579  19.003  0.00  0.00    +0.000 HD
ENDBRANCH  22  26
ENDBRANCH   5  22
TORSDOF 6
ENDMDL
MODEL 9
REMARK VINA RESULT:      -8.6      2.804      9.461
REMARK  Name = 
REMARK  8 active torsions:
REMARK  status: ('A' for Active; 'I' for Inactive)
REMARK    1  A    between atoms: C_1  and  C_2
REMARK    2  A    between atoms: C_2  and  C_3
REMARK    3  A    between atoms: C_5  and  C_6
REMARK    4  A    between atoms: N_8  and  C_9
REMARK    5  A    between atoms: C_13  and  C_14
REMARK    6  A    between atoms: C_14  and  N_15
REMARK    7  A    between atoms: N_20  and  C_21
REMARK    8  A    between atoms: C_27  and  C_28
REMARK                            x       y       z     vdW  Elec       q    Type
REMARK                         _______ _______ _______ _____ _____    ______ ____
ROOT
ATOM      1  C   UNL     1       0.856   9.112  20.502  0.00  0.00    +0.000 A 
ATOM      2  C   UNL     1       0.598   9.027  21.867  0.00  0.00    +0.000 A 
ATOM      3  C   UNL     1      -0.110  10.036  22.516  0.00  0.00    +0.000 A 
ATOM      4  C   UNL     1      -0.549  11.151  21.804  0.00  0.00    +0.000 A 
ATOM      5  C   UNL     1      -0.268  11.315  20.433  0.00  0.00    +0.000 A 
ATOM      6  C   UNL     1       0.435  10.255  19.808  0.00  0.00    +0.000 A 
ENDROOT
BRANCH   1   9
ATOM      7  C   UNL     1       2.186   8.251  18.575  0.00  0.00    +0.000 C 
ATOM      8  O   UNL     1       2.311   9.292  17.926  0.00  0.00    +0.000 OA
ATOM      9  N   UNL     1       1.522   8.103  19.778  0.00  0.00    +0.000 N 
ATOM     10  H   UNL     1       1.611   7.182  20.203  0.00  0.00    +0.000 HD
BRANCH   7  13
ATOM     11  C   UNL     1       4.696   5.927  17.019  0.00  0.00    +0.000 A 
ATOM     12  C   UNL     1       4.091   7.096  17.467  0.00  0.00    +0.000 A 
ATOM     13  C   UNL     1       2.843   7.007  18.071  0.00  0.00    +0.000 A 
ATOM     14  N   UNL     1       2.165   5.844  18.250  0.00  0.00    +0.000 NA
ATOM     15  C   UNL     1       2.749   4.702  17.806  0.00  0.00    +0.000 A 
ATOM     16  C   UNL     1       4.007   4.721  17.190  0.00  0.00    +0.000 A 
BRANCH  15  17
ATOM     17  C   UNL     1       1.977   3.416  17.982  0.00  0.00    +0.000 C 
ATOM     18  C   UNL     1       2.304   2.541  19.172  0.00  0.00    +0.000 C 
ATOM     19  C   UNL     1       2.613   2.060  17.787  0.00  0.00    +0.000 C 
ENDBRANCH  15  17
BRANCH  11  21
ATOM     20  C   UNL     1       6.424   4.650  15.735  0.00  0.00    +0.000 C 
ATOM     21  C   UNL     1       6.072   5.967  16.410  0.00  0.00    +0.000 C 
ENDBRANCH  11  21
ENDBRANCH   7  13
ENDBRANCH   1   9
BRANCH   5  22
ATOM     22  C   UNL     1      -0.676  12.633  19.640  0.00  0.00    +0.000 C 
ATOM     23  C   UNL     1       0.250  13.143  18.502  0.00  0.00    +0.000 C 
ATOM     24  O   UNL     1       0.115  14.516  18.973  0.00  0.00    +0.000 OA
ATOM     25  C   UNL     1      -0.288  14.008  20.275  0.00  0.00    +0.000 C 
BRANCH  22  26
ATOM     26  N   UNL     1      -2.105  12.637  19.287  0.00  0.00    +0.000 N 
ATOM     27  C   UNL     1      -2.593  11.836  18.303  0.00  0.00    +0.000 A 
ATOM     28  N   UNL     1      -1.958  11.223  17.329  0.00  0.00    +0.000 NA
ATOM     29  N   UNL     1      -2.888  10.575  16.545  0.00  0.00    +0.000 NA
ATOM     30  C   UNL     1      -4.068  10.787  17.078  0.00  0.00    +0.000 A 
ATOM     31  N   UNL     1      -3.935  11.574  18.180  0.00  0.00    +0.000 N 
ATOM     32  C   UNL     1      -5.002  11.967  19.059  0.00  0.00    +0.000 C 
ATOM     33  H   UNL     1      -2.391  13.606  19.149  0.00  0.00    +0.000 HD
ENDBRANCH  22  26
ENDBRANCH   5  22
TORSDOF 6
ENDMDL
