MODEL 1
REMARK VINA RESULT:      -9.8      0.000      0.000
REMARK  Name = 
REMARK  5 active torsions:
REMARK  status: ('A' for Active; 'I' for Inactive)
REMARK    1  A    between atoms: C_1  and  C_2
REMARK    2  A    between atoms: C_4  and  C_5
REMARK    3  A    between atoms: C_5  and  N_6
REMARK    4  A    between atoms: C_7  and  C_9
REMARK    5  A    between atoms: C_9  and  C_10
REMARK                            x       y       z     vdW  Elec       q    Type
REMARK                         _______ _______ _______ _____ _____    ______ ____
ROOT
ATOM      1  C   UNL     1       3.205   4.930  19.079  0.00  0.00    +0.000 C 
ATOM      2  C   UNL     1       2.890   4.084  20.353  0.00  0.00    +0.000 C 
ATOM      3  C   UNL     1       1.406   3.750  20.496  0.00  0.00    +0.000 C 
ATOM      4  C   UNL     1       0.899   2.964  19.299  0.00  0.00    +0.000 C 
ATOM      5  C   UNL     1       1.214   3.670  17.983  0.00  0.00    +0.000 C 
ATOM      6  C   UNL     1       2.685   4.073  17.876  0.00  0.00    +0.000 C 
ENDROOT
BRANCH   1   7
ATOM      7  C   UNL     1       2.592   6.356  19.143  0.00  0.00    +0.000 A 
ATOM      8  C   UNL     1       2.557   7.205  18.006  0.00  0.00    +0.000 A 
ATOM      9  C   UNL     1       2.010   8.497  18.058  0.00  0.00    +0.000 A 
ATOM     10  C   UNL     1       1.530   8.941  19.266  0.00  0.00    +0.000 A 
ATOM     11  C   UNL     1       1.579   8.156  20.386  0.00  0.00    +0.000 A 
ATOM     12  C   UNL     1       2.103   6.877  20.358  0.00  0.00    +0.000 A 
ATOM     13  O   UNL     1       1.071   8.779  21.483  0.00  0.00    +0.000 OA
ATOM     14  C   UNL     1       0.749  10.072  20.931  0.00  0.00    +0.000 C 
ATOM     15  O   UNL     1       0.985  10.164  19.511  0.00  0.00    +0.000 OA
ENDBRANCH   1   7
BRANCH   1  17
ATOM     16  N   UNL     1       5.241   4.712  17.648  0.00  0.00    +0.000 N 
ATOM     17  C   UNL     1       4.747   5.093  18.872  0.00  0.00    +0.000 C 
ATOM     18  O   UNL     1       5.498   5.460  19.779  0.00  0.00    +0.000 OA
ATOM     19  H   UNL     1       4.617   4.624  16.856  0.00  0.00    +0.000 HD
BRANCH  16  20
ATOM     20  C   UNL     1       6.650   4.775  17.334  0.00  0.00    +0.000 C 
BRANCH  20  24
ATOM     21  C   UNL     1       6.451   3.728  12.346  0.00  0.00    +0.000 C 
ATOM     22  C   UNL     1       6.727   4.247  13.704  0.00  0.00    +0.000 A 
ATOM     23  C   UNL     1       6.198   3.807  14.935  0.00  0.00    +0.000 A 
ATOM     24  C   UNL     1       6.781   4.628  15.870  0.00  0.00    +0.000 A 
ATOM     25  O   UNL     1       7.606   5.506  15.238  0.00  0.00    +0.000 OA
ATOM     26  N   UNL     1       7.573   5.270  13.877  0.00  0.00    +0.000 NA
ENDBRANCH  20  24
ENDBRANCH  16  20
ENDBRANCH   1  17
TORSDOF 4
ENDMDL
MODEL 2
REMARK VINA RESULT:      -9.7      0.726      1.454
REMARK  Name = 
REMARK  5 active torsions:
REMARK  status: ('A' for Active; 'I' for Inactive)
REMARK    1  A    between atoms: C_1  and  C_2
REMARK    2  A    between atoms: C_4  and  C_5
REMARK    3  A    between atoms: C_5  and  N_6
REMARK    4  A    between atoms: C_7  and  C_9
REMARK    5  A    between atoms: C_9  and  C_10
REMARK                            x       y       z     vdW  Elec       q    Type
REMARK                         _______ _______ _______ _____ _____    ______ ____
ROOT
ATOM      1  C   UNL     1       3.234   4.561  19.188  0.00  0.00    +0.000 C 
ATOM      2  C   UNL     1       2.871   3.672  20.420  0.00  0.00    +0.000 C 
ATOM      3  C   UNL     1       1.373   3.397  20.538  0.00  0.00    +0.000 C 
ATOM      4  C   UNL     1       0.843   2.690  19.302  0.00  0.00    +0.000 C 
ATOM      5  C   UNL     1       1.200   3.440  18.022  0.00  0.00    +0.000 C 
ATOM      6  C   UNL     1       2.687   3.783  17.944  0.00  0.00    +0.000 C 
ENDROOT
BRANCH   1   7
ATOM      7  C   UNL     1       2.683   6.007  19.314  0.00  0.00    +0.000 A 
ATOM      8  C   UNL     1       2.087   6.478  20.513  0.00  0.00    +0.000 A 
ATOM      9  C   UNL     1       1.580   7.781  20.632  0.00  0.00    +0.000 A 
ATOM     10  C   UNL     1       1.646   8.597  19.529  0.00  0.00    +0.000 A 
ATOM     11  C   UNL     1       2.188   8.161  18.350  0.00  0.00    +0.000 A 
ATOM     12  C   UNL     1       2.702   6.885  18.211  0.00  0.00    +0.000 A 
ATOM     13  O   UNL     1       2.146   9.108  17.375  0.00  0.00    +0.000 OA
ATOM     14  C   UNL     1       1.462  10.173  18.066  0.00  0.00    +0.000 C 
ATOM     15  O   UNL     1       1.192   9.877  19.451  0.00  0.00    +0.000 OA
ENDBRANCH   1   7
BRANCH   1  17
ATOM     16  N   UNL     1       5.238   4.701  17.704  0.00  0.00    +0.000 N 
ATOM     17  C   UNL     1       4.784   4.665  18.999  0.00  0.00    +0.000 C 
ATOM     18  O   UNL     1       5.567   4.630  19.952  0.00  0.00    +0.000 OA
ATOM     19  H   UNL     1       4.605   4.945  16.952  0.00  0.00    +0.000 HD
BRANCH  16  20
ATOM     20  C   UNL     1       6.646   4.760  17.384  0.00  0.00    +0.000 C 
BRANCH  20  24
ATOM     21  C   UNL     1       6.423   3.729  12.394  0.00  0.00    +0.000 C 
ATOM     22  C   UNL     1       6.707   4.242  13.752  0.00  0.00    +0.000 A 
ATOM     23  C   UNL     1       6.180   3.801  14.984  0.00  0.00    +0.000 A 
ATOM     24  C   UNL     1       6.771   4.616  15.919  0.00  0.00    +0.000 A 
ATOM     25  O   UNL     1       7.597   5.492  15.287  0.00  0.00    +0.000 OA
ATOM     26  N   UNL     1       7.558   5.261  13.925  0.00  0.00    +0.000 NA
ENDBRANCH  20  24
ENDBRANCH  16  20
ENDBRANCH   1  17
TORSDOF 4
ENDMDL
MODEL 3
REMARK VINA RESULT:      -9.1      1.898      2.944
REMARK  Name = 
REMARK  5 active torsions:
REMARK  status: ('A' for Active; 'I' for Inactive)
REMARK    1  A    between atoms: C_1  and  C_2
REMARK    2  A    between atoms: C_4  and  C_5
REMARK    3  A    between atoms: C_5  and  N_6
REMARK    4  A    between atoms: C_7  and  C_9
REMARK    5  A    between atoms: C_9  and  C_10
REMARK                            x       y       z     vdW  Elec       q    Type
REMARK                         _______ _______ _______ _____ _____    ______ ____
ROOT
ATOM      1  C   UNL     1       3.264   4.519  19.186  0.00  0.00    +0.000 C 
ATOM      2  C   UNL     1       2.849   3.613  20.388  0.00  0.00    +0.000 C 
ATOM      3  C   UNL     1       1.346   3.342  20.442  0.00  0.00    +0.000 C 
ATOM      4  C   UNL     1       0.864   2.655  19.175  0.00  0.00    +0.000 C 
ATOM      5  C   UNL     1       1.274   3.423  17.922  0.00  0.00    +0.000 C 
ATOM      6  C   UNL     1       2.765   3.762  17.909  0.00  0.00    +0.000 C 
ENDROOT
BRANCH   1   7
ATOM      7  C   UNL     1       2.713   5.965  19.311  0.00  0.00    +0.000 A 
ATOM      8  C   UNL     1       2.102   6.430  20.505  0.00  0.00    +0.000 A 
ATOM      9  C   UNL     1       1.595   7.733  20.624  0.00  0.00    +0.000 A 
ATOM     10  C   UNL     1       1.675   8.554  19.526  0.00  0.00    +0.000 A 
ATOM     11  C   UNL     1       2.232   8.124  18.352  0.00  0.00    +0.000 A 
ATOM     12  C   UNL     1       2.746   6.848  18.213  0.00  0.00    +0.000 A 
ATOM     13  O   UNL     1       2.203   9.075  17.380  0.00  0.00    +0.000 OA
ATOM     14  C   UNL     1       1.511  10.138  18.067  0.00  0.00    +0.000 C 
ATOM     15  O   UNL     1       1.223   9.836  19.448  0.00  0.00    +0.000 OA
ENDBRANCH   1   7
BRANCH   1  17
ATOM     16  N   UNL     1       5.330   4.621  17.785  0.00  0.00    +0.000 N 
ATOM     17  C   UNL     1       4.820   4.620  19.061  0.00  0.00    +0.000 C 
ATOM     18  O   UNL     1       5.562   4.612  20.047  0.00  0.00    +0.000 OA
ATOM     19  H   UNL     1       4.730   4.844  17.001  0.00  0.00    +0.000 HD
BRANCH  16  20
ATOM     20  C   UNL     1       6.750   4.674  17.525  0.00  0.00    +0.000 C 
BRANCH  20  24
ATOM     21  C   UNL     1       8.726   9.256  18.577  0.00  0.00    +0.000 C 
ATOM     22  C   UNL     1       8.005   8.084  18.036  0.00  0.00    +0.000 A 
ATOM     23  C   UNL     1       7.987   6.761  18.528  0.00  0.00    +0.000 A 
ATOM     24  C   UNL     1       7.169   6.084  17.656  0.00  0.00    +0.000 A 
ATOM     25  O   UNL     1       6.727   6.945  16.700  0.00  0.00    +0.000 OA
ATOM     26  N   UNL     1       7.252   8.202  16.936  0.00  0.00    +0.000 NA
ENDBRANCH  20  24
ENDBRANCH  16  20
ENDBRANCH   1  17
TORSDOF 4
ENDMDL
MODEL 4
REMARK VINA RESULT:      -9.0      1.786      2.629
REMARK  Name = 
REMARK  5 active torsions:
REMARK  status: ('A' for Active; 'I' for Inactive)
REMARK    1  A    between atoms: C_1  and  C_2
REMARK    2  A    between atoms: C_4  and  C_5
REMARK    3  A    between atoms: C_5  and  N_6
REMARK    4  A    between atoms: C_7  and  C_9
REMARK    5  A    between atoms: C_9  and  C_10
REMARK                            x       y       z     vdW  Elec       q    Type
REMARK                         _______ _______ _______ _____ _____    ______ ____
ROOT
ATOM      1  C   UNL     1       3.274   4.681  19.025  0.00  0.00    +0.000 C 
ATOM      2  C   UNL     1       2.821   3.839  20.259  0.00  0.00    +0.000 C 
ATOM      3  C   UNL     1       1.319   3.558  20.274  0.00  0.00    +0.000 C 
ATOM      4  C   UNL     1       0.887   2.800  19.030  0.00  0.00    +0.000 C 
ATOM      5  C   UNL     1       1.338   3.502  17.753  0.00  0.00    +0.000 C 
ATOM      6  C   UNL     1       2.826   3.852  17.774  0.00  0.00    +0.000 C 
ENDROOT
BRANCH   1   7
ATOM      7  C   UNL     1       2.709   6.128  19.051  0.00  0.00    +0.000 A 
ATOM      8  C   UNL     1       2.763   6.971  17.910  0.00  0.00    +0.000 A 
ATOM      9  C   UNL     1       2.261   8.281  17.928  0.00  0.00    +0.000 A 
ATOM     10  C   UNL     1       1.736   8.750  19.108  0.00  0.00    +0.000 A 
ATOM     11  C   UNL     1       1.698   7.970  20.232  0.00  0.00    +0.000 A 
ATOM     12  C   UNL     1       2.177   6.674  20.237  0.00  0.00    +0.000 A 
ATOM     13  O   UNL     1       1.158   8.618  21.299  0.00  0.00    +0.000 OA
ATOM     14  C   UNL     1       0.911   9.918  20.726  0.00  0.00    +0.000 C 
ATOM     15  O   UNL     1       1.223   9.993  19.319  0.00  0.00    +0.000 OA
ENDBRANCH   1   7
BRANCH   1  17
ATOM     16  N   UNL     1       5.385   4.753  17.694  0.00  0.00    +0.000 N 
ATOM     17  C   UNL     1       4.832   4.788  18.950  0.00  0.00    +0.000 C 
ATOM     18  O   UNL     1       5.540   4.815  19.960  0.00  0.00    +0.000 OA
ATOM     19  H   UNL     1       4.812   4.948  16.882  0.00  0.00    +0.000 HD
BRANCH  16  20
ATOM     20  C   UNL     1       6.813   4.806  17.480  0.00  0.00    +0.000 C 
BRANCH  20  24
ATOM     21  C   UNL     1       8.803   9.347  18.680  0.00  0.00    +0.000 C 
ATOM     22  C   UNL     1       8.073   8.196  18.106  0.00  0.00    +0.000 A 
ATOM     23  C   UNL     1       8.067   6.854  18.544  0.00  0.00    +0.000 A 
ATOM     24  C   UNL     1       7.233   6.211  17.661  0.00  0.00    +0.000 A 
ATOM     25  O   UNL     1       6.770   7.110  16.751  0.00  0.00    +0.000 OA
ATOM     26  N   UNL     1       7.297   8.358  17.027  0.00  0.00    +0.000 NA
ENDBRANCH  20  24
ENDBRANCH  16  20
ENDBRANCH   1  17
TORSDOF 4
ENDMDL
MODEL 5
REMARK VINA RESULT:      -8.8      2.209      2.824
REMARK  Name = 
REMARK  5 active torsions:
REMARK  status: ('A' for Active; 'I' for Inactive)
REMARK    1  A    between atoms: C_1  and  C_2
REMARK    2  A    between atoms: C_4  and  C_5
REMARK    3  A    between atoms: C_5  and  N_6
REMARK    4  A    between atoms: C_7  and  C_9
REMARK    5  A    between atoms: C_9  and  C_10
REMARK                            x       y       z     vdW  Elec       q    Type
REMARK                         _______ _______ _______ _____ _____    ______ ____
ROOT
ATOM      1  C   UNL     1       3.364   4.015  18.699  0.00  0.00    +0.000 C 
ATOM      2  C   UNL     1       3.484   3.276  20.069  0.00  0.00    +0.000 C 
ATOM      3  C   UNL     1       2.132   3.038  20.741  0.00  0.00    +0.000 C 
ATOM      4  C   UNL     1       1.217   2.205  19.860  0.00  0.00    +0.000 C 
ATOM      5  C   UNL     1       1.077   2.802  18.463  0.00  0.00    +0.000 C 
ATOM      6  C   UNL     1       2.431   3.111  17.824  0.00  0.00    +0.000 C 
ENDROOT
BRANCH   1   7
ATOM      7  C   UNL     1       2.856   5.475  18.852  0.00  0.00    +0.000 A 
ATOM      8  C   UNL     1       3.009   6.432  17.815  0.00  0.00    +0.000 A 
ATOM      9  C   UNL     1       2.559   7.754  17.948  0.00  0.00    +0.000 A 
ATOM     10  C   UNL     1       1.984   8.117  19.141  0.00  0.00    +0.000 A 
ATOM     11  C   UNL     1       1.850   7.225  20.170  0.00  0.00    +0.000 A 
ATOM     12  C   UNL     1       2.277   5.915  20.060  0.00  0.00    +0.000 A 
ATOM     13  O   UNL     1       1.274   7.779  21.270  0.00  0.00    +0.000 OA
ATOM     14  C   UNL     1       1.112   9.143  20.830  0.00  0.00    +0.000 C 
ATOM     15  O   UNL     1       1.509   9.353  19.459  0.00  0.00    +0.000 OA
ENDBRANCH   1   7
BRANCH   1  17
ATOM     16  N   UNL     1       5.804   4.548  18.694  0.00  0.00    +0.000 N 
ATOM     17  C   UNL     1       4.742   4.074  17.962  0.00  0.00    +0.000 C 
ATOM     18  O   UNL     1       4.862   3.796  16.766  0.00  0.00    +0.000 OA
ATOM     19  H   UNL     1       5.754   4.565  19.705  0.00  0.00    +0.000 HD
BRANCH  16  20
ATOM     20  C   UNL     1       7.125   4.689  18.128  0.00  0.00    +0.000 C 
BRANCH  20  24
ATOM     21  C   UNL     1       8.635   9.559  18.285  0.00  0.00    +0.000 C 
ATOM     22  C   UNL     1       8.024   8.244  17.989  0.00  0.00    +0.000 A 
ATOM     23  C   UNL     1       8.166   7.032  18.698  0.00  0.00    +0.000 A 
ATOM     24  C   UNL     1       7.395   6.136  17.997  0.00  0.00    +0.000 A 
ATOM     25  O   UNL     1       6.830   6.770  16.935  0.00  0.00    +0.000 OA
ATOM     26  N   UNL     1       7.224   8.095  16.926  0.00  0.00    +0.000 NA
ENDBRANCH  20  24
ENDBRANCH  16  20
ENDBRANCH   1  17
TORSDOF 4
ENDMDL
MODEL 6
REMARK VINA RESULT:      -8.4      2.535      7.586
REMARK  Name = 
REMARK  5 active torsions:
REMARK  status: ('A' for Active; 'I' for Inactive)
REMARK    1  A    between atoms: C_1  and  C_2
REMARK    2  A    between atoms: C_4  and  C_5
REMARK    3  A    between atoms: C_5  and  N_6
REMARK    4  A    between atoms: C_7  and  C_9
REMARK    5  A    between atoms: C_9  and  C_10
REMARK                            x       y       z     vdW  Elec       q    Type
REMARK                         _______ _______ _______ _____ _____    ______ ____
ROOT
ATOM      1  C   UNL     1       2.536   5.945  18.795  0.00  0.00    +0.000 C 
ATOM      2  C   UNL     1       1.427   5.158  18.028  0.00  0.00    +0.000 C 
ATOM      3  C   UNL     1       1.424   3.663  18.347  0.00  0.00    +0.000 C 
ATOM      4  C   UNL     1       1.207   3.417  19.831  0.00  0.00    +0.000 C 
ATOM      5  C   UNL     1       2.201   4.195  20.687  0.00  0.00    +0.000 C 
ATOM      6  C   UNL     1       2.258   5.676  20.312  0.00  0.00    +0.000 C 
ENDROOT
BRANCH   1   7
ATOM      7  C   UNL     1       3.968   5.549  18.341  0.00  0.00    +0.000 A 
ATOM      8  C   UNL     1       5.060   5.530  19.249  0.00  0.00    +0.000 A 
ATOM      9  C   UNL     1       6.358   5.181  18.846  0.00  0.00    +0.000 A 
ATOM     10  C   UNL     1       6.558   4.883  17.520  0.00  0.00    +0.000 A 
ATOM     11  C   UNL     1       5.531   4.922  16.616  0.00  0.00    +0.000 A 
ATOM     12  C   UNL     1       4.242   5.254  16.990  0.00  0.00    +0.000 A 
ATOM     13  O   UNL     1       5.933   4.613  15.354  0.00  0.00    +0.000 OA
ATOM     14  C   UNL     1       7.349   4.429  15.563  0.00  0.00    +0.000 C 
ATOM     15  O   UNL     1       7.744   4.543  16.945  0.00  0.00    +0.000 OA
ENDBRANCH   1   7
BRANCH   1  17
ATOM     16  N   UNL     1       1.602   8.153  19.492  0.00  0.00    +0.000 N 
ATOM     17  C   UNL     1       2.388   7.487  18.584  0.00  0.00    +0.000 C 
ATOM     18  O   UNL     1       2.874   8.069  17.610  0.00  0.00    +0.000 OA
ATOM     19  H   UNL     1       1.392   7.728  20.387  0.00  0.00    +0.000 HD
BRANCH  16  20
ATOM     20  C   UNL     1       1.349   9.572  19.396  0.00  0.00    +0.000 C 
BRANCH  20  24
ATOM     21  C   UNL     1      -1.576  11.244  23.225  0.00  0.00    +0.000 C 
ATOM     22  C   UNL     1      -0.537  10.658  22.351  0.00  0.00    +0.000 A 
ATOM     23  C   UNL     1      -0.469  10.668  20.941  0.00  0.00    +0.000 A 
ATOM     24  C   UNL     1       0.688   9.988  20.650  0.00  0.00    +0.000 A 
ATOM     25  O   UNL     1       1.276   9.593  21.811  0.00  0.00    +0.000 OA
ATOM     26  N   UNL     1       0.508  10.011  22.882  0.00  0.00    +0.000 NA
ENDBRANCH  20  24
ENDBRANCH  16  20
ENDBRANCH   1  17
TORSDOF 4
ENDMDL
MODEL 7
REMARK VINA RESULT:      -8.4      1.827      2.557
REMARK  Name = 
REMARK  5 active torsions:
REMARK  status: ('A' for Active; 'I' for Inactive)
REMARK    1  A    between atoms: C_1  and  C_2
REMARK    2  A    between atoms: C_4  and  C_5
REMARK    3  A    between atoms: C_5  and  N_6
REMARK    4  A    between atoms: C_7  and  C_9
REMARK    5  A    between atoms: C_9  and  C_10
REMARK                            x       y       z     vdW  Elec       q    Type
REMARK                         _______ _______ _______ _____ _____    ______ ____
ROOT
ATOM      1  C   UNL     1       3.214   4.104  19.075  0.00  0.00    +0.000 C 
ATOM      2  C   UNL     1       2.907   3.379  20.423  0.00  0.00    +0.000 C 
ATOM      3  C   UNL     1       1.411   3.210  20.685  0.00  0.00    +0.000 C 
ATOM      4  C   UNL     1       0.747   2.405  19.581  0.00  0.00    +0.000 C 
ATOM      5  C   UNL     1       1.036   2.988  18.201  0.00  0.00    +0.000 C 
ATOM      6  C   UNL     1       2.528   3.229  17.972  0.00  0.00    +0.000 C 
ENDROOT
BRANCH   1   7
ATOM      7  C   UNL     1       2.751   5.586  19.076  0.00  0.00    +0.000 A 
ATOM      8  C   UNL     1       2.952   6.432  17.954  0.00  0.00    +0.000 A 
ATOM      9  C   UNL     1       2.542   7.774  17.950  0.00  0.00    +0.000 A 
ATOM     10  C   UNL     1       1.960   8.270  19.092  0.00  0.00    +0.000 A 
ATOM     11  C   UNL     1       1.781   7.486  20.199  0.00  0.00    +0.000 A 
ATOM     12  C   UNL     1       2.167   6.159  20.225  0.00  0.00    +0.000 A 
ATOM     13  O   UNL     1       1.205   8.162  21.230  0.00  0.00    +0.000 OA
ATOM     14  C   UNL     1       1.094   9.481  20.655  0.00  0.00    +0.000 C 
ATOM     15  O   UNL     1       1.520   9.544  19.279  0.00  0.00    +0.000 OA
ENDBRANCH   1   7
BRANCH   1  17
ATOM     16  N   UNL     1       5.105   4.411  17.472  0.00  0.00    +0.000 N 
ATOM     17  C   UNL     1       4.746   4.093  18.759  0.00  0.00    +0.000 C 
ATOM     18  O   UNL     1       5.587   3.735  19.588  0.00  0.00    +0.000 OA
ATOM     19  H   UNL     1       4.454   4.904  16.873  0.00  0.00    +0.000 HD
BRANCH  16  20
ATOM     20  C   UNL     1       6.482   4.405  17.034  0.00  0.00    +0.000 C 
BRANCH  20  24
ATOM     21  C   UNL     1       8.001   9.208  17.832  0.00  0.00    +0.000 C 
ATOM     22  C   UNL     1       7.752   7.750  17.848  0.00  0.00    +0.000 A 
ATOM     23  C   UNL     1       6.965   6.985  16.961  0.00  0.00    +0.000 A 
ATOM     24  C   UNL     1       7.076   5.699  17.430  0.00  0.00    +0.000 A 
ATOM     25  O   UNL     1       7.875   5.693  18.531  0.00  0.00    +0.000 OA
ATOM     26  N   UNL     1       8.301   6.981  18.797  0.00  0.00    +0.000 NA
ENDBRANCH  20  24
ENDBRANCH  16  20
ENDBRANCH   1  17
TORSDOF 4
ENDMDL
MODEL 8
REMARK VINA RESULT:      -8.4      2.628      7.380
REMARK  Name = 
REMARK  5 active torsions:
REMARK  status: ('A' for Active; 'I' for Inactive)
REMARK    1  A    between atoms: C_1  and  C_2
REMARK    2  A    between atoms: C_4  and  C_5
REMARK    3  A    between atoms: C_5  and  N_6
REMARK    4  A    between atoms: C_7  and  C_9
REMARK    5  A    between atoms: C_9  and  C_10
REMARK                            x       y       z     vdW  Elec       q    Type
REMARK                         _______ _______ _______ _____ _____    ______ ____
ROOT
ATOM      1  C   UNL     1       2.501   5.821  18.706  0.00  0.00    +0.000 C 
ATOM      2  C   UNL     1       1.492   5.011  17.832  0.00  0.00    +0.000 C 
ATOM      3  C   UNL     1       1.476   3.520  18.164  0.00  0.00    +0.000 C 
ATOM      4  C   UNL     1       1.103   3.282  19.617  0.00  0.00    +0.000 C 
ATOM      5  C   UNL     1       1.989   4.082  20.568  0.00  0.00    +0.000 C 
ATOM      6  C   UNL     1       2.065   5.560  20.188  0.00  0.00    +0.000 C 
ENDROOT
BRANCH   1   7
ATOM      7  C   UNL     1       3.979   5.443  18.413  0.00  0.00    +0.000 A 
ATOM      8  C   UNL     1       4.356   4.774  17.219  0.00  0.00    +0.000 A 
ATOM      9  C   UNL     1       5.688   4.423  16.950  0.00  0.00    +0.000 A 
ATOM     10  C   UNL     1       6.632   4.719  17.903  0.00  0.00    +0.000 A 
ATOM     11  C   UNL     1       6.294   5.336  19.076  0.00  0.00    +0.000 A 
ATOM     12  C   UNL     1       4.991   5.700  19.360  0.00  0.00    +0.000 A 
ATOM     13  O   UNL     1       7.364   5.527  19.893  0.00  0.00    +0.000 OA
ATOM     14  C   UNL     1       8.408   4.905  19.116  0.00  0.00    +0.000 C 
ATOM     15  O   UNL     1       7.962   4.439  17.826  0.00  0.00    +0.000 OA
ENDBRANCH   1   7
BRANCH   1  17
ATOM     16  N   UNL     1       1.624   8.055  19.398  0.00  0.00    +0.000 N 
ATOM     17  C   UNL     1       2.355   7.360  18.466  0.00  0.00    +0.000 C 
ATOM     18  O   UNL     1       2.793   7.913  17.454  0.00  0.00    +0.000 OA
ATOM     19  H   UNL     1       1.458   7.653  20.313  0.00  0.00    +0.000 HD
BRANCH  16  20
ATOM     20  C   UNL     1       1.379   9.474  19.281  0.00  0.00    +0.000 C 
BRANCH  20  24
ATOM     21  C   UNL     1      -1.411  11.365  23.109  0.00  0.00    +0.000 C 
ATOM     22  C   UNL     1      -0.441  10.671  22.234  0.00  0.00    +0.000 A 
ATOM     23  C   UNL     1      -0.310  10.755  20.831  0.00  0.00    +0.000 A 
ATOM     24  C   UNL     1       0.737   9.915  20.536  0.00  0.00    +0.000 A 
ATOM     25  O   UNL     1       1.201   9.361  21.688  0.00  0.00    +0.000 OA
ATOM     26  N   UNL     1       0.462   9.833  22.757  0.00  0.00    +0.000 NA
ENDBRANCH  20  24
ENDBRANCH  16  20
ENDBRANCH   1  17
TORSDOF 4
ENDMDL
MODEL 9
REMARK VINA RESULT:      -8.3      2.555      6.817
REMARK  Name = 
REMARK  5 active torsions:
REMARK  status: ('A' for Active; 'I' for Inactive)
REMARK    1  A    between atoms: C_1  and  C_2
REMARK    2  A    between atoms: C_4  and  C_5
REMARK    3  A    between atoms: C_5  and  N_6
REMARK    4  A    between atoms: C_7  and  C_9
REMARK    5  A    between atoms: C_9  and  C_10
REMARK                            x       y       z     vdW  Elec       q    Type
REMARK                         _______ _______ _______ _____ _____    ______ ____
ROOT
ATOM      1  C   UNL     1       2.458   5.596  19.055  0.00  0.00    +0.000 C 
ATOM      2  C   UNL     1       1.344   4.992  18.143  0.00  0.00    +0.000 C 
ATOM      3  C   UNL     1       1.356   3.464  18.115  0.00  0.00    +0.000 C 
ATOM      4  C   UNL     1       1.160   2.886  19.507  0.00  0.00    +0.000 C 
ATOM      5  C   UNL     1       2.160   3.459  20.505  0.00  0.00    +0.000 C 
ATOM      6  C   UNL     1       2.203   4.987  20.475  0.00  0.00    +0.000 C 
ENDROOT
BRANCH   1   7
ATOM      7  C   UNL     1       3.887   5.327  18.507  0.00  0.00    +0.000 A 
ATOM      8  C   UNL     1       5.031   5.387  19.345  0.00  0.00    +0.000 A 
ATOM      9  C   UNL     1       6.325   5.152  18.857  0.00  0.00    +0.000 A 
ATOM     10  C   UNL     1       6.466   4.890  17.516  0.00  0.00    +0.000 A 
ATOM     11  C   UNL     1       5.384   4.856  16.678  0.00  0.00    +0.000 A 
ATOM     12  C   UNL     1       4.099   5.074  17.137  0.00  0.00    +0.000 A 
ATOM     13  O   UNL     1       5.730   4.598  15.388  0.00  0.00    +0.000 OA
ATOM     14  C   UNL     1       7.166   4.529  15.505  0.00  0.00    +0.000 C 
ATOM     15  O   UNL     1       7.637   4.657  16.863  0.00  0.00    +0.000 OA
ENDBRANCH   1   7
BRANCH   1  17
ATOM     16  N   UNL     1       2.311   7.870  18.035  0.00  0.00    +0.000 N 
ATOM     17  C   UNL     1       2.297   7.145  19.201  0.00  0.00    +0.000 C 
ATOM     18  O   UNL     1       2.247   7.701  20.301  0.00  0.00    +0.000 OA
ATOM     19  H   UNL     1       2.135   7.410  17.150  0.00  0.00    +0.000 HD
BRANCH  16  20
ATOM     20  C   UNL     1       2.207   9.311  18.025  0.00  0.00    +0.000 C 
BRANCH  20  24
ATOM     21  C   UNL     1      -2.842   9.998  17.802  0.00  0.00    +0.000 C 
ATOM     22  C   UNL     1      -1.402   9.960  18.142  0.00  0.00    +0.000 A 
ATOM     23  C   UNL     1      -0.337   9.427  17.386  0.00  0.00    +0.000 A 
ATOM     24  C   UNL     1       0.776   9.651  18.160  0.00  0.00    +0.000 A 
ATOM     25  O   UNL     1       0.401  10.276  19.308  0.00  0.00    +0.000 OA
ATOM     26  N   UNL     1      -0.968  10.470  19.301  0.00  0.00    +0.000 NA
ENDBRANCH  20  24
ENDBRANCH  16  20
ENDBRANCH   1  17
TORSDOF 4
ENDMDL
