MODEL 1
REMARK VINA RESULT:      -8.9      0.000      0.000
REMARK  Name = 
REMARK  8 active torsions:
REMARK  status: ('A' for Active; 'I' for Inactive)
REMARK    1  A    between atoms: C_1  and  C_2
REMARK    2  A    between atoms: C_4  and  C_5
REMARK    3  A    between atoms: C_5  and  O_6
REMARK    4  A    between atoms: O_6  and  C_7
REMARK    5  A    between atoms: C_10  and  C_11
REMARK    6  A    between atoms: N_13  and  C_14
REMARK    7  A    between atoms: C_14  and  C_15
REMARK    8  A    between atoms: C_14  and  C_21
REMARK                            x       y       z     vdW  Elec       q    Type
REMARK                         _______ _______ _______ _____ _____    ______ ____
ROOT
ATOM      1  C   UNL     1       1.533   8.347  20.074  0.00  0.00    +0.000 C 
ATOM      2  O   UNL     1       1.337   8.385  21.281  0.00  0.00    +0.000 OA
ATOM      3  N   UNL     1       1.036   9.268  19.179  0.00  0.00    +0.000 N 
ATOM      4  H   UNL     1       1.080   9.085  18.190  0.00  0.00    +0.000 HD
ENDROOT
BRANCH   1   8
ATOM      5  C   UNL     1       3.883   5.181  18.364  0.00  0.00    +0.000 A 
ATOM      6  C   UNL     1       3.701   6.376  17.667  0.00  0.00    +0.000 A 
ATOM      7  C   UNL     1       2.926   7.407  18.219  0.00  0.00    +0.000 A 
ATOM      8  C   UNL     1       2.326   7.238  19.472  0.00  0.00    +0.000 A 
ATOM      9  C   UNL     1       2.458   6.013  20.136  0.00  0.00    +0.000 A 
ATOM     10  C   UNL     1       3.230   4.991  19.582  0.00  0.00    +0.000 A 
BRANCH   5  11
ATOM     11  O   UNL     1       4.703   4.259  17.772  0.00  0.00    +0.000 OA
BRANCH  11  12
ATOM     12  C   UNL     1       6.075   4.666  17.642  0.00  0.00    +0.000 C 
BRANCH  12  16
ATOM     13  C   UNL     1       6.441   3.774  12.800  0.00  0.00    +0.000 C 
ATOM     14  C   UNL     1       6.582   4.258  14.181  0.00  0.00    +0.000 A 
ATOM     15  N   UNL     1       5.941   3.890  15.266  0.00  0.00    +0.000 NA
ATOM     16  C   UNL     1       6.520   4.685  16.224  0.00  0.00    +0.000 A 
ATOM     17  N   UNL     1       7.451   5.535  15.764  0.00  0.00    +0.000 NA
ATOM     18  O   UNL     1       7.501   5.242  14.399  0.00  0.00    +0.000 OA
ENDBRANCH  12  16
ENDBRANCH  11  12
ENDBRANCH   5  11
ENDBRANCH   1   8
BRANCH   3  19
ATOM     19  C   UNL     1       0.293  10.456  19.575  0.00  0.00    +0.000 C 
BRANCH  19  20
ATOM     20  C   UNL     1       1.241  11.657  19.519  0.00  0.00    +0.000 A 
ATOM     21  C   UNL     1       1.942  11.989  18.345  0.00  0.00    +0.000 A 
ATOM     22  C   UNL     1       2.722  13.146  18.284  0.00  0.00    +0.000 A 
ATOM     23  C   UNL     1       2.816  13.983  19.393  0.00  0.00    +0.000 A 
ATOM     24  C   UNL     1       2.144  13.658  20.570  0.00  0.00    +0.000 A 
ATOM     25  C   UNL     1       1.366  12.500  20.636  0.00  0.00    +0.000 A 
ENDBRANCH  19  20
BRANCH  19  26
ATOM     26  C   UNL     1      -0.975  10.642  18.731  0.00  0.00    +0.000 A 
ATOM     27  C   UNL     1      -1.195   9.885  17.567  0.00  0.00    +0.000 A 
ATOM     28  C   UNL     1      -2.373  10.026  16.827  0.00  0.00    +0.000 A 
ATOM     29  C   UNL     1      -3.360  10.915  17.242  0.00  0.00    +0.000 A 
ATOM     30  C   UNL     1      -3.175  11.660  18.404  0.00  0.00    +0.000 A 
ATOM     31  C   UNL     1      -2.000  11.516  19.145  0.00  0.00    +0.000 A 
ENDBRANCH  19  26
ENDBRANCH   3  19
TORSDOF 7
ENDMDL
MODEL 2
REMARK VINA RESULT:      -8.9      3.515      9.766
REMARK  Name = 
REMARK  8 active torsions:
REMARK  status: ('A' for Active; 'I' for Inactive)
REMARK    1  A    between atoms: C_1  and  C_2
REMARK    2  A    between atoms: C_4  and  C_5
REMARK    3  A    between atoms: C_5  and  O_6
REMARK    4  A    between atoms: O_6  and  C_7
REMARK    5  A    between atoms: C_10  and  C_11
REMARK    6  A    between atoms: N_13  and  C_14
REMARK    7  A    between atoms: C_14  and  C_15
REMARK    8  A    between atoms: C_14  and  C_21
REMARK                            x       y       z     vdW  Elec       q    Type
REMARK                         _______ _______ _______ _____ _____    ______ ____
ROOT
ATOM      1  C   UNL     1       2.035   8.165  18.616  0.00  0.00    +0.000 C 
ATOM      2  O   UNL     1       2.102   8.623  17.484  0.00  0.00    +0.000 OA
ATOM      3  N   UNL     1       2.408   6.884  18.958  0.00  0.00    +0.000 N 
ATOM      4  H   UNL     1       2.163   6.511  19.860  0.00  0.00    +0.000 HD
ENDROOT
BRANCH   1   8
ATOM      5  C   UNL     1       0.401  10.523  21.816  0.00  0.00    +0.000 A 
ATOM      6  C   UNL     1       0.549  11.074  20.542  0.00  0.00    +0.000 A 
ATOM      7  C   UNL     1       1.091  10.309  19.499  0.00  0.00    +0.000 A 
ATOM      8  C   UNL     1       1.492   8.989  19.734  0.00  0.00    +0.000 A 
ATOM      9  C   UNL     1       1.402   8.465  21.028  0.00  0.00    +0.000 A 
ATOM     10  C   UNL     1       0.862   9.230  22.062  0.00  0.00    +0.000 A 
BRANCH   5  11
ATOM     11  O   UNL     1      -0.193  11.326  22.752  0.00  0.00    +0.000 OA
BRANCH  11  12
ATOM     12  C   UNL     1      -0.951  12.422  22.216  0.00  0.00    +0.000 C 
BRANCH  12  16
ATOM     13  C   UNL     1      -5.160  12.341  24.795  0.00  0.00    +0.000 C 
ATOM     14  C   UNL     1      -3.869  12.668  24.171  0.00  0.00    +0.000 A 
ATOM     15  N   UNL     1      -3.161  11.980  23.306  0.00  0.00    +0.000 NA
ATOM     16  C   UNL     1      -2.082  12.806  23.100  0.00  0.00    +0.000 A 
ATOM     17  N   UNL     1      -2.092  13.936  23.822  0.00  0.00    +0.000 NA
ATOM     18  O   UNL     1      -3.292  13.850  24.531  0.00  0.00    +0.000 OA
ENDBRANCH  12  16
ENDBRANCH  11  12
ENDBRANCH   5  11
ENDBRANCH   1   8
BRANCH   3  19
ATOM     19  C   UNL     1       3.019   5.948  18.025  0.00  0.00    +0.000 C 
BRANCH  19  20
ATOM     20  C   UNL     1       4.539   6.093  18.125  0.00  0.00    +0.000 A 
ATOM     21  C   UNL     1       5.277   5.447  19.134  0.00  0.00    +0.000 A 
ATOM     22  C   UNL     1       6.673   5.510  19.147  0.00  0.00    +0.000 A 
ATOM     23  C   UNL     1       7.349   6.218  18.157  0.00  0.00    +0.000 A 
ATOM     24  C   UNL     1       6.632   6.880  17.162  0.00  0.00    +0.000 A 
ATOM     25  C   UNL     1       5.236   6.824  17.148  0.00  0.00    +0.000 A 
ENDBRANCH  19  20
BRANCH  19  26
ATOM     26  C   UNL     1       2.528   4.512  18.256  0.00  0.00    +0.000 A 
ATOM     27  C   UNL     1       1.575   4.217  19.246  0.00  0.00    +0.000 A 
ATOM     28  C   UNL     1       1.098   2.915  19.423  0.00  0.00    +0.000 A 
ATOM     29  C   UNL     1       1.552   1.884  18.605  0.00  0.00    +0.000 A 
ATOM     30  C   UNL     1       2.479   2.156  17.603  0.00  0.00    +0.000 A 
ATOM     31  C   UNL     1       2.953   3.457  17.425  0.00  0.00    +0.000 A 
ENDBRANCH  19  26
ENDBRANCH   3  19
TORSDOF 7
ENDMDL
MODEL 3
REMARK VINA RESULT:      -8.9      3.466      9.732
REMARK  Name = 
REMARK  8 active torsions:
REMARK  status: ('A' for Active; 'I' for Inactive)
REMARK    1  A    between atoms: C_1  and  C_2
REMARK    2  A    between atoms: C_4  and  C_5
REMARK    3  A    between atoms: C_5  and  O_6
REMARK    4  A    between atoms: O_6  and  C_7
REMARK    5  A    between atoms: C_10  and  C_11
REMARK    6  A    between atoms: N_13  and  C_14
REMARK    7  A    between atoms: C_14  and  C_15
REMARK    8  A    between atoms: C_14  and  C_21
REMARK                            x       y       z     vdW  Elec       q    Type
REMARK                         _______ _______ _______ _____ _____    ______ ____
ROOT
ATOM      1  C   UNL     1       2.066   8.179  18.501  0.00  0.00    +0.000 C 
ATOM      2  O   UNL     1       2.263   8.666  17.396  0.00  0.00    +0.000 OA
ATOM      3  N   UNL     1       2.355   6.875  18.836  0.00  0.00    +0.000 N 
ATOM      4  H   UNL     1       2.008   6.486  19.697  0.00  0.00    +0.000 HD
ENDROOT
BRANCH   1   8
ATOM      5  C   UNL     1       0.349  10.544  21.651  0.00  0.00    +0.000 A 
ATOM      6  C   UNL     1       0.778   9.241  21.905  0.00  0.00    +0.000 A 
ATOM      7  C   UNL     1       1.329   8.463  20.876  0.00  0.00    +0.000 A 
ATOM      8  C   UNL     1       1.447   8.992  19.586  0.00  0.00    +0.000 A 
ATOM      9  C   UNL     1       0.955  10.275  19.323  0.00  0.00    +0.000 A 
ATOM     10  C   UNL     1       0.407  11.044  20.350  0.00  0.00    +0.000 A 
BRANCH   5  11
ATOM     11  O   UNL     1      -0.119  11.244  22.731  0.00  0.00    +0.000 OA
BRANCH  11  12
ATOM     12  C   UNL     1      -0.717  12.511  22.416  0.00  0.00    +0.000 C 
BRANCH  12  16
ATOM     13  C   UNL     1      -5.157  14.268  23.670  0.00  0.00    +0.000 C 
ATOM     14  C   UNL     1      -3.953  13.458  23.431  0.00  0.00    +0.000 A 
ATOM     15  N   UNL     1      -2.804  13.806  22.900  0.00  0.00    +0.000 NA
ATOM     16  C   UNL     1      -2.094  12.632  22.963  0.00  0.00    +0.000 A 
ATOM     17  N   UNL     1      -2.769  11.591  23.473  0.00  0.00    +0.000 NA
ATOM     18  O   UNL     1      -4.010  12.145  23.797  0.00  0.00    +0.000 OA
ENDBRANCH  12  16
ENDBRANCH  11  12
ENDBRANCH   5  11
ENDBRANCH   1   8
BRANCH   3  19
ATOM     19  C   UNL     1       3.020   5.941  17.937  0.00  0.00    +0.000 C 
BRANCH  19  20
ATOM     20  C   UNL     1       4.532   6.076  18.136  0.00  0.00    +0.000 A 
ATOM     21  C   UNL     1       5.196   5.433  19.197  0.00  0.00    +0.000 A 
ATOM     22  C   UNL     1       6.588   5.485  19.302  0.00  0.00    +0.000 A 
ATOM     23  C   UNL     1       7.334   6.181  18.353  0.00  0.00    +0.000 A 
ATOM     24  C   UNL     1       6.689   6.840  17.307  0.00  0.00    +0.000 A 
ATOM     25  C   UNL     1       5.297   6.794  17.202  0.00  0.00    +0.000 A 
ENDBRANCH  19  20
BRANCH  19  26
ATOM     26  C   UNL     1       2.507   4.507  18.125  0.00  0.00    +0.000 A 
ATOM     27  C   UNL     1       3.042   3.437  17.385  0.00  0.00    +0.000 A 
ATOM     28  C   UNL     1       2.602   2.127  17.592  0.00  0.00    +0.000 A 
ATOM     29  C   UNL     1       1.632   1.855  18.552  0.00  0.00    +0.000 A 
ATOM     30  C   UNL     1       1.104   2.894  19.313  0.00  0.00    +0.000 A 
ATOM     31  C   UNL     1       1.546   4.203  19.109  0.00  0.00    +0.000 A 
ENDBRANCH  19  26
ENDBRANCH   3  19
TORSDOF 7
ENDMDL
MODEL 4
REMARK VINA RESULT:      -8.9      3.346      9.379
REMARK  Name = 
REMARK  8 active torsions:
REMARK  status: ('A' for Active; 'I' for Inactive)
REMARK    1  A    between atoms: C_1  and  C_2
REMARK    2  A    between atoms: C_4  and  C_5
REMARK    3  A    between atoms: C_5  and  O_6
REMARK    4  A    between atoms: O_6  and  C_7
REMARK    5  A    between atoms: C_10  and  C_11
REMARK    6  A    between atoms: N_13  and  C_14
REMARK    7  A    between atoms: C_14  and  C_15
REMARK    8  A    between atoms: C_14  and  C_21
REMARK                            x       y       z     vdW  Elec       q    Type
REMARK                         _______ _______ _______ _____ _____    ______ ____
ROOT
ATOM      1  C   UNL     1       2.181   8.200  18.193  0.00  0.00    +0.000 C 
ATOM      2  O   UNL     1       2.378   8.584  17.048  0.00  0.00    +0.000 OA
ATOM      3  N   UNL     1       2.435   6.921  18.636  0.00  0.00    +0.000 N 
ATOM      4  H   UNL     1       2.088   6.620  19.533  0.00  0.00    +0.000 HD
ENDROOT
BRANCH   1   8
ATOM      5  C   UNL     1       0.582  10.875  21.152  0.00  0.00    +0.000 A 
ATOM      6  C   UNL     1       0.809   9.535  21.466  0.00  0.00    +0.000 A 
ATOM      7  C   UNL     1       1.322   8.657  20.499  0.00  0.00    +0.000 A 
ATOM      8  C   UNL     1       1.603   9.124  19.210  0.00  0.00    +0.000 A 
ATOM      9  C   UNL     1       1.310  10.452  18.883  0.00  0.00    +0.000 A 
ATOM     10  C   UNL     1       0.800  11.321  19.848  0.00  0.00    +0.000 A 
BRANCH   5  11
ATOM     11  O   UNL     1       0.137  11.666  22.177  0.00  0.00    +0.000 OA
BRANCH  11  12
ATOM     12  C   UNL     1      -0.921  11.096  22.964  0.00  0.00    +0.000 C 
BRANCH  12  16
ATOM     13  C   UNL     1      -4.635  13.630  20.923  0.00  0.00    +0.000 C 
ATOM     14  C   UNL     1      -3.738  12.857  21.796  0.00  0.00    +0.000 A 
ATOM     15  N   UNL     1      -2.514  12.438  21.575  0.00  0.00    +0.000 NA
ATOM     16  C   UNL     1      -2.215  11.798  22.753  0.00  0.00    +0.000 A 
ATOM     17  N   UNL     1      -3.208  11.781  23.653  0.00  0.00    +0.000 NA
ATOM     18  O   UNL     1      -4.224  12.500  23.019  0.00  0.00    +0.000 OA
ENDBRANCH  12  16
ENDBRANCH  11  12
ENDBRANCH   5  11
ENDBRANCH   1   8
BRANCH   3  19
ATOM     19  C   UNL     1       3.058   5.893  17.816  0.00  0.00    +0.000 C 
BRANCH  19  20
ATOM     20  C   UNL     1       4.574   5.978  18.006  0.00  0.00    +0.000 A 
ATOM     21  C   UNL     1       5.386   6.723  17.131  0.00  0.00    +0.000 A 
ATOM     22  C   UNL     1       6.753   6.872  17.381  0.00  0.00    +0.000 A 
ATOM     23  C   UNL     1       7.326   6.278  18.503  0.00  0.00    +0.000 A 
ATOM     24  C   UNL     1       6.539   5.521  19.368  0.00  0.00    +0.000 A 
ATOM     25  C   UNL     1       5.173   5.366  19.119  0.00  0.00    +0.000 A 
ENDBRANCH  19  20
BRANCH  19  26
ATOM     26  C   UNL     1       2.484   4.501  18.114  0.00  0.00    +0.000 A 
ATOM     27  C   UNL     1       2.910   3.367  17.400  0.00  0.00    +0.000 A 
ATOM     28  C   UNL     1       2.417   2.095  17.705  0.00  0.00    +0.000 A 
ATOM     29  C   UNL     1       1.501   1.927  18.739  0.00  0.00    +0.000 A 
ATOM     30  C   UNL     1       1.081   3.032  19.476  0.00  0.00    +0.000 A 
ATOM     31  C   UNL     1       1.576   4.302  19.173  0.00  0.00    +0.000 A 
ENDBRANCH  19  26
ENDBRANCH   3  19
TORSDOF 7
ENDMDL
MODEL 5
REMARK VINA RESULT:      -8.9      0.229      1.541
REMARK  Name = 
REMARK  8 active torsions:
REMARK  status: ('A' for Active; 'I' for Inactive)
REMARK    1  A    between atoms: C_1  and  C_2
REMARK    2  A    between atoms: C_4  and  C_5
REMARK    3  A    between atoms: C_5  and  O_6
REMARK    4  A    between atoms: O_6  and  C_7
REMARK    5  A    between atoms: C_10  and  C_11
REMARK    6  A    between atoms: N_13  and  C_14
REMARK    7  A    between atoms: C_14  and  C_15
REMARK    8  A    between atoms: C_14  and  C_21
REMARK                            x       y       z     vdW  Elec       q    Type
REMARK                         _______ _______ _______ _____ _____    ______ ____
ROOT
ATOM      1  C   UNL     1       1.483   8.436  19.954  0.00  0.00    +0.000 C 
ATOM      2  O   UNL     1       1.302   8.452  21.164  0.00  0.00    +0.000 OA
ATOM      3  N   UNL     1       0.905   9.321  19.072  0.00  0.00    +0.000 N 
ATOM      4  H   UNL     1       0.949   9.147  18.080  0.00  0.00    +0.000 HD
ENDROOT
BRANCH   1   8
ATOM      5  C   UNL     1       3.924   5.401  18.138  0.00  0.00    +0.000 A 
ATOM      6  C   UNL     1       3.329   5.174  19.379  0.00  0.00    +0.000 A 
ATOM      7  C   UNL     1       2.540   6.166  19.979  0.00  0.00    +0.000 A 
ATOM      8  C   UNL     1       2.351   7.394  19.334  0.00  0.00    +0.000 A 
ATOM      9  C   UNL     1       3.004   7.640  18.121  0.00  0.00    +0.000 A 
ATOM     10  C   UNL     1       3.788   6.649  17.529  0.00  0.00    +0.000 A 
BRANCH   5  11
ATOM     11  O   UNL     1       4.626   4.352  17.606  0.00  0.00    +0.000 OA
BRANCH  11  12
ATOM     12  C   UNL     1       6.044   4.558  17.516  0.00  0.00    +0.000 C 
BRANCH  12  16
ATOM     13  C   UNL     1       6.494   3.812  12.656  0.00  0.00    +0.000 C 
ATOM     14  C   UNL     1       6.609   4.257  14.053  0.00  0.00    +0.000 A 
ATOM     15  N   UNL     1       5.955   3.850  15.116  0.00  0.00    +0.000 NA
ATOM     16  C   UNL     1       6.512   4.623  16.106  0.00  0.00    +0.000 A 
ATOM     17  N   UNL     1       7.440   5.495  15.686  0.00  0.00    +0.000 NA
ATOM     18  O   UNL     1       7.514   5.243  14.314  0.00  0.00    +0.000 OA
ENDBRANCH  12  16
ENDBRANCH  11  12
ENDBRANCH   5  11
ENDBRANCH   1   8
BRANCH   3  19
ATOM     19  C   UNL     1       0.078  10.446  19.485  0.00  0.00    +0.000 C 
BRANCH  19  20
ATOM     20  C   UNL     1       0.948  11.706  19.487  0.00  0.00    +0.000 A 
ATOM     21  C   UNL     1       1.011  12.555  20.607  0.00  0.00    +0.000 A 
ATOM     22  C   UNL     1       1.887  13.643  20.628  0.00  0.00    +0.000 A 
ATOM     23  C   UNL     1       2.708  13.898  19.532  0.00  0.00    +0.000 A 
ATOM     24  C   UNL     1       2.643  13.078  18.408  0.00  0.00    +0.000 A 
ATOM     25  C   UNL     1       1.765  11.992  18.381  0.00  0.00    +0.000 A 
ENDBRANCH  19  20
BRANCH  19  26
ATOM     26  C   UNL     1      -1.181  10.577  18.617  0.00  0.00    +0.000 A 
ATOM     27  C   UNL     1      -2.206  11.480  18.949  0.00  0.00    +0.000 A 
ATOM     28  C   UNL     1      -3.330  11.627  18.132  0.00  0.00    +0.000 A 
ATOM     29  C   UNL     1      -3.446  10.888  16.958  0.00  0.00    +0.000 A 
ATOM     30  C   UNL     1      -2.433  10.004  16.596  0.00  0.00    +0.000 A 
ATOM     31  C   UNL     1      -1.309   9.860  17.411  0.00  0.00    +0.000 A 
ENDBRANCH  19  26
ENDBRANCH   3  19
TORSDOF 7
ENDMDL
MODEL 6
REMARK VINA RESULT:      -8.9      3.501      9.716
REMARK  Name = 
REMARK  8 active torsions:
REMARK  status: ('A' for Active; 'I' for Inactive)
REMARK    1  A    between atoms: C_1  and  C_2
REMARK    2  A    between atoms: C_4  and  C_5
REMARK    3  A    between atoms: C_5  and  O_6
REMARK    4  A    between atoms: O_6  and  C_7
REMARK    5  A    between atoms: C_10  and  C_11
REMARK    6  A    between atoms: N_13  and  C_14
REMARK    7  A    between atoms: C_14  and  C_15
REMARK    8  A    between atoms: C_14  and  C_21
REMARK                            x       y       z     vdW  Elec       q    Type
REMARK                         _______ _______ _______ _____ _____    ______ ____
ROOT
ATOM      1  C   UNL     1       1.986   8.210  18.603  0.00  0.00    +0.000 C 
ATOM      2  O   UNL     1       2.023   8.653  17.463  0.00  0.00    +0.000 OA
ATOM      3  N   UNL     1       2.379   6.937  18.953  0.00  0.00    +0.000 N 
ATOM      4  H   UNL     1       2.159   6.574  19.866  0.00  0.00    +0.000 HD
ENDROOT
BRANCH   1   8
ATOM      5  C   UNL     1       0.407  10.598  21.808  0.00  0.00    +0.000 A 
ATOM      6  C   UNL     1       0.522  11.132  20.524  0.00  0.00    +0.000 A 
ATOM      7  C   UNL     1       1.047  10.359  19.479  0.00  0.00    +0.000 A 
ATOM      8  C   UNL     1       1.462   9.045  19.721  0.00  0.00    +0.000 A 
ATOM      9  C   UNL     1       1.405   8.537  21.024  0.00  0.00    +0.000 A 
ATOM     10  C   UNL     1       0.883   9.311  22.061  0.00  0.00    +0.000 A 
BRANCH   5  11
ATOM     11  O   UNL     1      -0.172  11.409  22.747  0.00  0.00    +0.000 OA
BRANCH  11  12
ATOM     12  C   UNL     1      -1.525  11.067  23.089  0.00  0.00    +0.000 C 
BRANCH  12  16
ATOM     13  C   UNL     1      -5.431  14.025  23.694  0.00  0.00    +0.000 C 
ATOM     14  C   UNL     1      -4.096  13.436  23.508  0.00  0.00    +0.000 A 
ATOM     15  N   UNL     1      -3.751  12.177  23.372  0.00  0.00    +0.000 NA
ATOM     16  C   UNL     1      -2.388  12.270  23.224  0.00  0.00    +0.000 A 
ATOM     17  N   UNL     1      -1.896  13.515  23.300  0.00  0.00    +0.000 NA
ATOM     18  O   UNL     1      -3.040  14.297  23.479  0.00  0.00    +0.000 OA
ENDBRANCH  12  16
ENDBRANCH  11  12
ENDBRANCH   5  11
ENDBRANCH   1   8
BRANCH   3  19
ATOM     19  C   UNL     1       2.977   5.993  18.019  0.00  0.00    +0.000 C 
BRANCH  19  20
ATOM     20  C   UNL     1       4.499   6.085  18.151  0.00  0.00    +0.000 A 
ATOM     21  C   UNL     1       5.190   5.429  19.187  0.00  0.00    +0.000 A 
ATOM     22  C   UNL     1       6.586   5.440  19.231  0.00  0.00    +0.000 A 
ATOM     23  C   UNL     1       7.310   6.108  18.245  0.00  0.00    +0.000 A 
ATOM     24  C   UNL     1       6.640   6.778  17.224  0.00  0.00    +0.000 A 
ATOM     25  C   UNL     1       5.244   6.773  17.180  0.00  0.00    +0.000 A 
ENDBRANCH  19  20
BRANCH  19  26
ATOM     26  C   UNL     1       2.433   4.572  18.220  0.00  0.00    +0.000 A 
ATOM     27  C   UNL     1       2.897   3.496  17.443  0.00  0.00    +0.000 A 
ATOM     28  C   UNL     1       2.431   2.196  17.659  0.00  0.00    +0.000 A 
ATOM     29  C   UNL     1       1.504   1.942  18.665  0.00  0.00    +0.000 A 
ATOM     30  C   UNL     1       1.046   2.987  19.463  0.00  0.00    +0.000 A 
ATOM     31  C   UNL     1       1.514   4.285  19.249  0.00  0.00    +0.000 A 
ENDBRANCH  19  26
ENDBRANCH   3  19
TORSDOF 7
ENDMDL
MODEL 7
REMARK VINA RESULT:      -8.8      3.485      9.658
REMARK  Name = 
REMARK  8 active torsions:
REMARK  status: ('A' for Active; 'I' for Inactive)
REMARK    1  A    between atoms: C_1  and  C_2
REMARK    2  A    between atoms: C_4  and  C_5
REMARK    3  A    between atoms: C_5  and  O_6
REMARK    4  A    between atoms: O_6  and  C_7
REMARK    5  A    between atoms: C_10  and  C_11
REMARK    6  A    between atoms: N_13  and  C_14
REMARK    7  A    between atoms: C_14  and  C_15
REMARK    8  A    between atoms: C_14  and  C_21
REMARK                            x       y       z     vdW  Elec       q    Type
REMARK                         _______ _______ _______ _____ _____    ______ ____
ROOT
ATOM      1  C   UNL     1       2.181   8.051  18.488  0.00  0.00    +0.000 C 
ATOM      2  O   UNL     1       2.233   8.536  17.366  0.00  0.00    +0.000 OA
ATOM      3  N   UNL     1       2.593   6.775  18.800  0.00  0.00    +0.000 N 
ATOM      4  H   UNL     1       2.360   6.375  19.695  0.00  0.00    +0.000 HD
ENDROOT
BRANCH   1   8
ATOM      5  C   UNL     1       0.484  10.288  21.742  0.00  0.00    +0.000 A 
ATOM      6  C   UNL     1       0.599  10.865  20.477  0.00  0.00    +0.000 A 
ATOM      7  C   UNL     1       1.162  10.141  19.416  0.00  0.00    +0.000 A 
ATOM      8  C   UNL     1       1.616   8.834  19.624  0.00  0.00    +0.000 A 
ATOM      9  C   UNL     1       1.559   8.285  20.910  0.00  0.00    +0.000 A 
ATOM     10  C   UNL     1       0.998   9.010  21.962  0.00  0.00    +0.000 A 
BRANCH   5  11
ATOM     11  O   UNL     1      -0.132  11.050  22.697  0.00  0.00    +0.000 OA
BRANCH  11  12
ATOM     12  C   UNL     1      -0.738  12.258  22.208  0.00  0.00    +0.000 C 
BRANCH  12  16
ATOM     13  C   UNL     1      -4.944  12.343  24.792  0.00  0.00    +0.000 C 
ATOM     14  C   UNL     1      -3.656  12.632  24.143  0.00  0.00    +0.000 A 
ATOM     15  N   UNL     1      -2.943  11.884  23.333  0.00  0.00    +0.000 NA
ATOM     16  C   UNL     1      -1.871  12.700  23.062  0.00  0.00    +0.000 A 
ATOM     17  N   UNL     1      -1.889  13.883  23.694  0.00  0.00    +0.000 NA
ATOM     18  O   UNL     1      -3.088  13.843  24.409  0.00  0.00    +0.000 OA
ENDBRANCH  12  16
ENDBRANCH  11  12
ENDBRANCH   5  11
ENDBRANCH   1   8
BRANCH   3  19
ATOM     19  C   UNL     1       3.229   5.878  17.847  0.00  0.00    +0.000 C 
BRANCH  19  20
ATOM     20  C   UNL     1       4.746   6.001  18.009  0.00  0.00    +0.000 A 
ATOM     21  C   UNL     1       5.517   6.799  17.144  0.00  0.00    +0.000 A 
ATOM     22  C   UNL     1       6.884   6.980  17.370  0.00  0.00    +0.000 A 
ATOM     23  C   UNL     1       7.498   6.365  18.459  0.00  0.00    +0.000 A 
ATOM     24  C   UNL     1       6.752   5.555  19.313  0.00  0.00    +0.000 A 
ATOM     25  C   UNL     1       5.387   5.369  19.088  0.00  0.00    +0.000 A 
ENDBRANCH  19  20
BRANCH  19  26
ATOM     26  C   UNL     1       2.717   4.438  17.989  0.00  0.00    +0.000 A 
ATOM     27  C   UNL     1       3.434   3.351  17.459  0.00  0.00    +0.000 A 
ATOM     28  C   UNL     1       2.986   2.038  17.630  0.00  0.00    +0.000 A 
ATOM     29  C   UNL     1       1.821   1.783  18.347  0.00  0.00    +0.000 A 
ATOM     30  C   UNL     1       1.105   2.840  18.902  0.00  0.00    +0.000 A 
ATOM     31  C   UNL     1       1.555   4.151  18.733  0.00  0.00    +0.000 A 
ENDBRANCH  19  26
ENDBRANCH   3  19
TORSDOF 7
ENDMDL
MODEL 8
REMARK VINA RESULT:      -8.8      3.410      9.712
REMARK  Name = 
REMARK  8 active torsions:
REMARK  status: ('A' for Active; 'I' for Inactive)
REMARK    1  A    between atoms: C_1  and  C_2
REMARK    2  A    between atoms: C_4  and  C_5
REMARK    3  A    between atoms: C_5  and  O_6
REMARK    4  A    between atoms: O_6  and  C_7
REMARK    5  A    between atoms: C_10  and  C_11
REMARK    6  A    between atoms: N_13  and  C_14
REMARK    7  A    between atoms: C_14  and  C_15
REMARK    8  A    between atoms: C_14  and  C_21
REMARK                            x       y       z     vdW  Elec       q    Type
REMARK                         _______ _______ _______ _____ _____    ______ ____
ROOT
ATOM      1  C   UNL     1       2.092   8.246  18.305  0.00  0.00    +0.000 C 
ATOM      2  O   UNL     1       2.258   8.614  17.150  0.00  0.00    +0.000 OA
ATOM      3  N   UNL     1       2.398   6.986  18.769  0.00  0.00    +0.000 N 
ATOM      4  H   UNL     1       2.075   6.690  19.676  0.00  0.00    +0.000 HD
ENDROOT
BRANCH   1   8
ATOM      5  C   UNL     1       0.442  10.916  21.241  0.00  0.00    +0.000 A 
ATOM      6  C   UNL     1       0.664   9.575  21.557  0.00  0.00    +0.000 A 
ATOM      7  C   UNL     1       1.194   8.700  20.597  0.00  0.00    +0.000 A 
ATOM      8  C   UNL     1       1.496   9.168  19.314  0.00  0.00    +0.000 A 
ATOM      9  C   UNL     1       1.209  10.497  18.984  0.00  0.00    +0.000 A 
ATOM     10  C   UNL     1       0.682  11.364  19.941  0.00  0.00    +0.000 A 
BRANCH   5  11
ATOM     11  O   UNL     1      -0.020  11.705  22.260  0.00  0.00    +0.000 OA
BRANCH  11  12
ATOM     12  C   UNL     1      -1.142  11.169  22.978  0.00  0.00    +0.000 C 
BRANCH  12  16
ATOM     13  C   UNL     1      -3.715  15.382  22.954  0.00  0.00    +0.000 C 
ATOM     14  C   UNL     1      -3.226  14.004  23.110  0.00  0.00    +0.000 A 
ATOM     15  N   UNL     1      -2.061  13.490  22.792  0.00  0.00    +0.000 NA
ATOM     16  C   UNL     1      -2.208  12.183  23.189  0.00  0.00    +0.000 A 
ATOM     17  N   UNL     1      -3.412  11.880  23.696  0.00  0.00    +0.000 NA
ATOM     18  O   UNL     1      -4.091  13.100  23.655  0.00  0.00    +0.000 OA
ENDBRANCH  12  16
ENDBRANCH  11  12
ENDBRANCH   5  11
ENDBRANCH   1   8
BRANCH   3  19
ATOM     19  C   UNL     1       3.045   5.965  17.958  0.00  0.00    +0.000 C 
BRANCH  19  20
ATOM     20  C   UNL     1       4.559   6.087  18.148  0.00  0.00    +0.000 A 
ATOM     21  C   UNL     1       5.225   5.428  19.198  0.00  0.00    +0.000 A 
ATOM     22  C   UNL     1       6.618   5.469  19.295  0.00  0.00    +0.000 A 
ATOM     23  C   UNL     1       7.363   6.169  18.348  0.00  0.00    +0.000 A 
ATOM     24  C   UNL     1       6.717   6.843  17.314  0.00  0.00    +0.000 A 
ATOM     25  C   UNL     1       5.324   6.808  17.217  0.00  0.00    +0.000 A 
ENDBRANCH  19  20
BRANCH  19  26
ATOM     26  C   UNL     1       2.504   4.563  18.268  0.00  0.00    +0.000 A 
ATOM     27  C   UNL     1       1.574   4.352  19.302  0.00  0.00    +0.000 A 
ATOM     28  C   UNL     1       1.050   3.080  19.552  0.00  0.00    +0.000 A 
ATOM     29  C   UNL     1       1.432   1.997  18.766  0.00  0.00    +0.000 A 
ATOM     30  C   UNL     1       2.334   2.185  17.722  0.00  0.00    +0.000 A 
ATOM     31  C   UNL     1       2.854   3.456  17.471  0.00  0.00    +0.000 A 
ENDBRANCH  19  26
ENDBRANCH   3  19
TORSDOF 7
ENDMDL
MODEL 9
REMARK VINA RESULT:      -8.8      0.771      1.177
REMARK  Name = 
REMARK  8 active torsions:
REMARK  status: ('A' for Active; 'I' for Inactive)
REMARK    1  A    between atoms: C_1  and  C_2
REMARK    2  A    between atoms: C_4  and  C_5
REMARK    3  A    between atoms: C_5  and  O_6
REMARK    4  A    between atoms: O_6  and  C_7
REMARK    5  A    between atoms: C_10  and  C_11
REMARK    6  A    between atoms: N_13  and  C_14
REMARK    7  A    between atoms: C_14  and  C_15
REMARK    8  A    between atoms: C_14  and  C_21
REMARK                            x       y       z     vdW  Elec       q    Type
REMARK                         _______ _______ _______ _____ _____    ______ ____
ROOT
ATOM      1  C   UNL     1       1.172   8.785  19.769  0.00  0.00    +0.000 C 
ATOM      2  O   UNL     1       0.744   8.702  20.912  0.00  0.00    +0.000 OA
ATOM      3  N   UNL     1       0.810   9.768  18.875  0.00  0.00    +0.000 N 
ATOM      4  H   UNL     1       1.055   9.680  17.902  0.00  0.00    +0.000 HD
ENDROOT
BRANCH   1   8
ATOM      5  C   UNL     1       3.865   5.813  18.224  0.00  0.00    +0.000 A 
ATOM      6  C   UNL     1       3.232   5.617  19.452  0.00  0.00    +0.000 A 
ATOM      7  C   UNL     1       2.361   6.590  19.963  0.00  0.00    +0.000 A 
ATOM      8  C   UNL     1       2.126   7.767  19.243  0.00  0.00    +0.000 A 
ATOM      9  C   UNL     1       2.814   7.987  18.044  0.00  0.00    +0.000 A 
ATOM     10  C   UNL     1       3.680   7.016  17.541  0.00  0.00    +0.000 A 
BRANCH   5  11
ATOM     11  O   UNL     1       4.649   4.782  17.780  0.00  0.00    +0.000 OA
BRANCH  11  12
ATOM     12  C   UNL     1       6.041   5.104  17.628  0.00  0.00    +0.000 C 
BRANCH  12  16
ATOM     13  C   UNL     1       6.370   3.746  12.893  0.00  0.00    +0.000 C 
ATOM     14  C   UNL     1       6.541   4.341  14.227  0.00  0.00    +0.000 A 
ATOM     15  N   UNL     1       5.861   4.129  15.329  0.00  0.00    +0.000 NA
ATOM     16  C   UNL     1       6.499   4.956  16.221  0.00  0.00    +0.000 A 
ATOM     17  N   UNL     1       7.503   5.678  15.702  0.00  0.00    +0.000 NA
ATOM     18  O   UNL     1       7.539   5.258  14.370  0.00  0.00    +0.000 OA
ENDBRANCH  12  16
ENDBRANCH  11  12
ENDBRANCH   5  11
ENDBRANCH   1   8
BRANCH   3  19
ATOM     19  C   UNL     1      -0.059  10.885  19.216  0.00  0.00    +0.000 C 
BRANCH  19  20
ATOM     20  C   UNL     1       0.730  12.183  19.024  0.00  0.00    +0.000 A 
ATOM     21  C   UNL     1       2.020  12.185  18.464  0.00  0.00    +0.000 A 
ATOM     22  C   UNL     1       2.682  13.388  18.202  0.00  0.00    +0.000 A 
ATOM     23  C   UNL     1       2.066  14.601  18.499  0.00  0.00    +0.000 A 
ATOM     24  C   UNL     1       0.797  14.616  19.072  0.00  0.00    +0.000 A 
ATOM     25  C   UNL     1       0.134  13.415  19.339  0.00  0.00    +0.000 A 
ENDBRANCH  19  20
BRANCH  19  26
ATOM     26  C   UNL     1      -1.373  10.848  18.423  0.00  0.00    +0.000 A 
ATOM     27  C   UNL     1      -1.524  10.018  17.299  0.00  0.00    +0.000 A 
ATOM     28  C   UNL     1      -2.737   9.954  16.607  0.00  0.00    +0.000 A 
ATOM     29  C   UNL     1      -3.828  10.706  17.033  0.00  0.00    +0.000 A 
ATOM     30  C   UNL     1      -3.709  11.519  18.157  0.00  0.00    +0.000 A 
ATOM     31  C   UNL     1      -2.499  11.580  18.849  0.00  0.00    +0.000 A 
ENDBRANCH  19  26
ENDBRANCH   3  19
TORSDOF 7
ENDMDL
