MODEL 1
REMARK VINA RESULT:      -8.4      0.000      0.000
REMARK  Name = 
REMARK  6 active torsions:
REMARK  status: ('A' for Active; 'I' for Inactive)
REMARK    1  A    between atoms: C_1  and  C_2
REMARK    2  A    between atoms: C_4  and  N_5
REMARK    3  A    between atoms: C_13  and  C_14
REMARK    4  A    between atoms: C_14  and  N_15
REMARK    5  A    between atoms: C_16  and  C_18
REMARK    6  A    between atoms: C_25  and  C_26
REMARK                            x       y       z     vdW  Elec       q    Type
REMARK                         _______ _______ _______ _____ _____    ______ ____
ROOT
ATOM      1  N   UNL     1       2.641   7.430  18.079  0.00  0.00    +0.000 N 
ATOM      2  C   UNL     1       2.102   7.808  19.295  0.00  0.00    +0.000 C 
ATOM      3  O   UNL     1       2.190   7.132  20.319  0.00  0.00    +0.000 OA
ATOM      4  N   UNL     1       1.436   9.034  19.324  0.00  0.00    +0.000 N 
ATOM      5  C   UNL     1       0.983   9.540  20.626  0.00  0.00    +0.000 C 
ATOM      6  C   UNL     1      -0.448  10.075  20.584  0.00  0.00    +0.000 C 
ATOM      7  C   UNL     1      -0.708  11.005  19.403  0.00  0.00    +0.000 C 
ATOM      8  C   UNL     1      -0.218  10.380  18.105  0.00  0.00    +0.000 C 
ATOM      9  C   UNL     1       1.258   9.963  18.189  0.00  0.00    +0.000 C 
ATOM     10  H   UNL     1       2.762   8.143  17.375  0.00  0.00    +0.000 HD
ENDROOT
BRANCH   1  14
ATOM     11  C   UNL     1       2.576   2.461  17.597  0.00  0.00    +0.000 C 
ATOM     12  C   UNL     1       3.310   3.767  17.549  0.00  0.00    +0.000 A 
ATOM     13  C   UNL     1       2.624   4.969  17.784  0.00  0.00    +0.000 A 
ATOM     14  C   UNL     1       3.288   6.199  17.797  0.00  0.00    +0.000 A 
ATOM     15  C   UNL     1       4.662   6.220  17.517  0.00  0.00    +0.000 A 
ATOM     16  C   UNL     1       5.360   5.026  17.262  0.00  0.00    +0.000 A 
ATOM     17  C   UNL     1       4.684   3.800  17.293  0.00  0.00    +0.000 A 
BRANCH  16  18
ATOM     18  C   UNL     1       6.825   5.093  17.017  0.00  0.00    +0.000 C 
ATOM     19  N   UNL     1       7.635   4.312  17.796  0.00  0.00    +0.000 N 
ATOM     20  O   UNL     1       7.299   5.800  16.137  0.00  0.00    +0.000 OA
ATOM     21  H   UNL     1       7.292   3.581  18.401  0.00  0.00    +0.000 HD
ATOM     22  H   UNL     1       8.619   4.306  17.559  0.00  0.00    +0.000 HD
ENDBRANCH  16  18
ENDBRANCH   1  14
BRANCH   9  23
ATOM     23  C   UNL     1       2.244  11.164  18.299  0.00  0.00    +0.000 C 
BRANCH  23  24
ATOM     24  N   UNL     1       1.653  12.479  18.134  0.00  0.00    +0.000 N 
ATOM     25  C   UNL     1       1.846  13.457  19.088  0.00  0.00    +0.000 C 
ATOM     26  O   UNL     1       2.504  13.262  20.098  0.00  0.00    +0.000 OA
ATOM     27  H   UNL     1       0.807  12.531  17.584  0.00  0.00    +0.000 HD
BRANCH  25  28
ATOM     28  C   UNL     1       1.223  14.792  18.846  0.00  0.00    +0.000 A 
ATOM     29  C   UNL     1       1.936  15.911  18.391  0.00  0.00    +0.000 A 
ATOM     30  C   UNL     1       1.285  17.141  18.241  0.00  0.00    +0.000 A 
ATOM     31  C   UNL     1      -0.073  17.259  18.534  0.00  0.00    +0.000 A 
ATOM     32  C   UNL     1      -0.787  16.152  18.987  0.00  0.00    +0.000 A 
ATOM     33  C   UNL     1      -0.139  14.928  19.152  0.00  0.00    +0.000 A 
ENDBRANCH  25  28
ENDBRANCH  23  24
ENDBRANCH   9  23
TORSDOF 5
ENDMDL
MODEL 2
REMARK VINA RESULT:      -8.4      3.296      5.712
REMARK  Name = 
REMARK  6 active torsions:
REMARK  status: ('A' for Active; 'I' for Inactive)
REMARK    1  A    between atoms: C_1  and  C_2
REMARK    2  A    between atoms: C_4  and  N_5
REMARK    3  A    between atoms: C_13  and  C_14
REMARK    4  A    between atoms: C_14  and  N_15
REMARK    5  A    between atoms: C_16  and  C_18
REMARK    6  A    between atoms: C_25  and  C_26
REMARK                            x       y       z     vdW  Elec       q    Type
REMARK                         _______ _______ _______ _____ _____    ______ ____
ROOT
ATOM      1  N   UNL     1       4.932   5.077  15.767  0.00  0.00    +0.000 N 
ATOM      2  C   UNL     1       5.182   4.645  17.057  0.00  0.00    +0.000 C 
ATOM      3  O   UNL     1       6.178   3.996  17.377  0.00  0.00    +0.000 OA
ATOM      4  N   UNL     1       4.235   4.992  18.021  0.00  0.00    +0.000 N 
ATOM      5  C   UNL     1       4.539   4.685  19.425  0.00  0.00    +0.000 C 
ATOM      6  C   UNL     1       3.357   4.052  20.158  0.00  0.00    +0.000 C 
ATOM      7  C   UNL     1       2.041   4.790  19.928  0.00  0.00    +0.000 C 
ATOM      8  C   UNL     1       1.817   5.043  18.444  0.00  0.00    +0.000 C 
ATOM      9  C   UNL     1       3.002   5.775  17.799  0.00  0.00    +0.000 C 
ATOM     10  H   UNL     1       4.257   5.816  15.640  0.00  0.00    +0.000 HD
ENDROOT
BRANCH   1  14
ATOM     11  C   UNL     1       8.911   5.854  12.855  0.00  0.00    +0.000 C 
ATOM     12  C   UNL     1       7.641   5.120  13.159  0.00  0.00    +0.000 A 
ATOM     13  C   UNL     1       6.925   5.408  14.330  0.00  0.00    +0.000 A 
ATOM     14  C   UNL     1       5.711   4.778  14.619  0.00  0.00    +0.000 A 
ATOM     15  C   UNL     1       5.236   3.802  13.731  0.00  0.00    +0.000 A 
ATOM     16  C   UNL     1       5.951   3.490  12.561  0.00  0.00    +0.000 A 
ATOM     17  C   UNL     1       7.146   4.161  12.270  0.00  0.00    +0.000 A 
BRANCH  16  18
ATOM     18  C   UNL     1       5.386   2.482  11.624  0.00  0.00    +0.000 C 
ATOM     19  N   UNL     1       6.115   1.345  11.401  0.00  0.00    +0.000 N 
ATOM     20  O   UNL     1       4.299   2.642  11.084  0.00  0.00    +0.000 OA
ATOM     21  H   UNL     1       6.916   1.078  11.954  0.00  0.00    +0.000 HD
ATOM     22  H   UNL     1       5.676   0.634  10.829  0.00  0.00    +0.000 HD
ENDBRANCH  16  18
ENDBRANCH   1  14
BRANCH   9  23
ATOM     23  C   UNL     1       3.182   7.240  18.298  0.00  0.00    +0.000 C 
BRANCH  23  24
ATOM     24  N   UNL     1       1.956   7.953  18.605  0.00  0.00    +0.000 N 
ATOM     25  C   UNL     1       1.719   9.200  18.063  0.00  0.00    +0.000 C 
ATOM     26  O   UNL     1       2.517   9.752  17.322  0.00  0.00    +0.000 OA
ATOM     27  H   UNL     1       1.517   7.744  19.491  0.00  0.00    +0.000 HD
BRANCH  25  28
ATOM     28  C   UNL     1       0.429   9.870  18.407  0.00  0.00    +0.000 A 
ATOM     29  C   UNL     1      -0.732   9.765  17.629  0.00  0.00    +0.000 A 
ATOM     30  C   UNL     1      -1.886  10.469  17.995  0.00  0.00    +0.000 A 
ATOM     31  C   UNL     1      -1.889  11.269  19.137  0.00  0.00    +0.000 A 
ATOM     32  C   UNL     1      -0.738  11.379  19.914  0.00  0.00    +0.000 A 
ATOM     33  C   UNL     1       0.417  10.691  19.545  0.00  0.00    +0.000 A 
ENDBRANCH  25  28
ENDBRANCH  23  24
ENDBRANCH   9  23
TORSDOF 5
ENDMDL
MODEL 3
REMARK VINA RESULT:      -8.4      3.158      9.526
REMARK  Name = 
REMARK  6 active torsions:
REMARK  status: ('A' for Active; 'I' for Inactive)
REMARK    1  A    between atoms: C_1  and  C_2
REMARK    2  A    between atoms: C_4  and  N_5
REMARK    3  A    between atoms: C_13  and  C_14
REMARK    4  A    between atoms: C_14  and  N_15
REMARK    5  A    between atoms: C_16  and  C_18
REMARK    6  A    between atoms: C_25  and  C_26
REMARK                            x       y       z     vdW  Elec       q    Type
REMARK                         _______ _______ _______ _____ _____    ______ ____
ROOT
ATOM      1  N   UNL     1       2.684   6.615  19.512  0.00  0.00    +0.000 N 
ATOM      2  C   UNL     1       2.384   5.715  18.507  0.00  0.00    +0.000 C 
ATOM      3  O   UNL     1       1.486   5.887  17.683  0.00  0.00    +0.000 OA
ATOM      4  N   UNL     1       3.171   4.563  18.451  0.00  0.00    +0.000 N 
ATOM      5  C   UNL     1       2.983   3.658  17.310  0.00  0.00    +0.000 C 
ATOM      6  C   UNL     1       2.908   2.190  17.729  0.00  0.00    +0.000 C 
ATOM      7  C   UNL     1       4.012   1.785  18.701  0.00  0.00    +0.000 C 
ATOM      8  C   UNL     1       4.110   2.778  19.851  0.00  0.00    +0.000 C 
ATOM      9  C   UNL     1       4.289   4.219  19.353  0.00  0.00    +0.000 C 
ATOM     10  H   UNL     1       3.584   6.536  19.962  0.00  0.00    +0.000 HD
ENDROOT
BRANCH   1  14
ATOM     11  C   UNL     1       0.806  11.038  18.160  0.00  0.00    +0.000 C 
ATOM     12  C   UNL     1       1.036   9.981  19.196  0.00  0.00    +0.000 A 
ATOM     13  C   UNL     1       1.698   8.792  18.854  0.00  0.00    +0.000 A 
ATOM     14  C   UNL     1       1.974   7.808  19.808  0.00  0.00    +0.000 A 
ATOM     15  C   UNL     1       1.528   8.006  21.122  0.00  0.00    +0.000 A 
ATOM     16  C   UNL     1       0.847   9.185  21.477  0.00  0.00    +0.000 A 
ATOM     17  C   UNL     1       0.615  10.176  20.515  0.00  0.00    +0.000 A 
BRANCH  16  18
ATOM     18  C   UNL     1       0.434   9.373  22.893  0.00  0.00    +0.000 C 
ATOM     19  N   UNL     1      -0.908   9.383  23.166  0.00  0.00    +0.000 N 
ATOM     20  O   UNL     1       1.255   9.494  23.793  0.00  0.00    +0.000 OA
ATOM     21  H   UNL     1      -1.615   9.106  22.502  0.00  0.00    +0.000 HD
ATOM     22  H   UNL     1      -1.168   9.427  24.144  0.00  0.00    +0.000 HD
ENDBRANCH  16  18
ENDBRANCH   1  14
BRANCH   9  23
ATOM     23  C   UNL     1       5.658   4.477  18.656  0.00  0.00    +0.000 C 
BRANCH  23  24
ATOM     24  N   UNL     1       5.638   4.457  17.205  0.00  0.00    +0.000 N 
ATOM     25  C   UNL     1       6.817   4.416  16.490  0.00  0.00    +0.000 C 
ATOM     26  O   UNL     1       7.910   4.402  17.035  0.00  0.00    +0.000 OA
ATOM     27  H   UNL     1       4.840   4.885  16.756  0.00  0.00    +0.000 HD
BRANCH  25  28
ATOM     28  C   UNL     1       6.722   4.380  15.000  0.00  0.00    +0.000 A 
ATOM     29  C   UNL     1       5.802   3.589  14.299  0.00  0.00    +0.000 A 
ATOM     30  C   UNL     1       5.815   3.574  12.900  0.00  0.00    +0.000 A 
ATOM     31  C   UNL     1       6.736   4.349  12.197  0.00  0.00    +0.000 A 
ATOM     32  C   UNL     1       7.655   5.137  12.886  0.00  0.00    +0.000 A 
ATOM     33  C   UNL     1       7.654   5.143  14.281  0.00  0.00    +0.000 A 
ENDBRANCH  25  28
ENDBRANCH  23  24
ENDBRANCH   9  23
TORSDOF 5
ENDMDL
MODEL 4
REMARK VINA RESULT:      -8.3      0.656      1.108
REMARK  Name = 
REMARK  6 active torsions:
REMARK  status: ('A' for Active; 'I' for Inactive)
REMARK    1  A    between atoms: C_1  and  C_2
REMARK    2  A    between atoms: C_4  and  N_5
REMARK    3  A    between atoms: C_13  and  C_14
REMARK    4  A    between atoms: C_14  and  N_15
REMARK    5  A    between atoms: C_16  and  C_18
REMARK    6  A    between atoms: C_25  and  C_26
REMARK                            x       y       z     vdW  Elec       q    Type
REMARK                         _______ _______ _______ _____ _____    ______ ____
ROOT
ATOM      1  N   UNL     1       2.585   7.359  18.100  0.00  0.00    +0.000 N 
ATOM      2  C   UNL     1       2.084   7.731  19.334  0.00  0.00    +0.000 C 
ATOM      3  O   UNL     1       2.231   7.064  20.358  0.00  0.00    +0.000 OA
ATOM      4  N   UNL     1       1.389   8.940  19.383  0.00  0.00    +0.000 N 
ATOM      5  C   UNL     1       0.974   9.442  20.699  0.00  0.00    +0.000 C 
ATOM      6  C   UNL     1      -0.472   9.939  20.711  0.00  0.00    +0.000 C 
ATOM      7  C   UNL     1      -0.802  10.855  19.536  0.00  0.00    +0.000 C 
ATOM      8  C   UNL     1      -0.346  10.234  18.223  0.00  0.00    +0.000 C 
ATOM      9  C   UNL     1       1.142   9.856  18.251  0.00  0.00    +0.000 C 
ATOM     10  H   UNL     1       2.660   8.071  17.388  0.00  0.00    +0.000 HD
ENDROOT
BRANCH   1  14
ATOM     11  C   UNL     1       2.611   2.395  17.569  0.00  0.00    +0.000 C 
ATOM     12  C   UNL     1       3.319   3.716  17.527  0.00  0.00    +0.000 A 
ATOM     13  C   UNL     1       2.613   4.901  17.781  0.00  0.00    +0.000 A 
ATOM     14  C   UNL     1       3.253   6.144  17.799  0.00  0.00    +0.000 A 
ATOM     15  C   UNL     1       4.623   6.195  17.506  0.00  0.00    +0.000 A 
ATOM     16  C   UNL     1       5.341   5.017  17.232  0.00  0.00    +0.000 A 
ATOM     17  C   UNL     1       4.690   3.777  17.258  0.00  0.00    +0.000 A 
BRANCH  16  18
ATOM     18  C   UNL     1       6.803   5.114  16.973  0.00  0.00    +0.000 C 
ATOM     19  N   UNL     1       7.217   5.979  15.995  0.00  0.00    +0.000 N 
ATOM     20  O   UNL     1       7.616   4.466  17.618  0.00  0.00    +0.000 OA
ATOM     21  H   UNL     1       6.616   6.666  15.566  0.00  0.00    +0.000 HD
ATOM     22  H   UNL     1       8.218   6.094  15.891  0.00  0.00    +0.000 HD
ENDBRANCH  16  18
ENDBRANCH   1  14
BRANCH   9  23
ATOM     23  C   UNL     1       2.100  11.083  18.316  0.00  0.00    +0.000 C 
BRANCH  23  24
ATOM     24  N   UNL     1       1.457  12.384  18.273  0.00  0.00    +0.000 N 
ATOM     25  C   UNL     1       2.097  13.496  18.781  0.00  0.00    +0.000 C 
ATOM     26  O   UNL     1       3.208  13.436  19.285  0.00  0.00    +0.000 OA
ATOM     27  H   UNL     1       0.447  12.392  18.273  0.00  0.00    +0.000 HD
BRANCH  25  28
ATOM     28  C   UNL     1       1.386  14.806  18.689  0.00  0.00    +0.000 A 
ATOM     29  C   UNL     1      -0.001  14.948  18.834  0.00  0.00    +0.000 A 
ATOM     30  C   UNL     1      -0.595  16.206  18.681  0.00  0.00    +0.000 A 
ATOM     31  C   UNL     1       0.188  17.323  18.391  0.00  0.00    +0.000 A 
ATOM     32  C   UNL     1       1.566  17.189  18.244  0.00  0.00    +0.000 A 
ATOM     33  C   UNL     1       2.160  15.934  18.382  0.00  0.00    +0.000 A 
ENDBRANCH  25  28
ENDBRANCH  23  24
ENDBRANCH   9  23
TORSDOF 5
ENDMDL
MODEL 5
REMARK VINA RESULT:      -8.2      3.204      5.728
REMARK  Name = 
REMARK  6 active torsions:
REMARK  status: ('A' for Active; 'I' for Inactive)
REMARK    1  A    between atoms: C_1  and  C_2
REMARK    2  A    between atoms: C_4  and  N_5
REMARK    3  A    between atoms: C_13  and  C_14
REMARK    4  A    between atoms: C_14  and  N_15
REMARK    5  A    between atoms: C_16  and  C_18
REMARK    6  A    between atoms: C_25  and  C_26
REMARK                            x       y       z     vdW  Elec       q    Type
REMARK                         _______ _______ _______ _____ _____    ______ ____
ROOT
ATOM      1  N   UNL     1       4.921   5.073  15.794  0.00  0.00    +0.000 N 
ATOM      2  C   UNL     1       5.110   4.555  17.062  0.00  0.00    +0.000 C 
ATOM      3  O   UNL     1       6.046   3.815  17.364  0.00  0.00    +0.000 OA
ATOM      4  N   UNL     1       4.172   4.921  18.028  0.00  0.00    +0.000 N 
ATOM      5  C   UNL     1       4.421   4.516  19.417  0.00  0.00    +0.000 C 
ATOM      6  C   UNL     1       3.179   3.937  20.094  0.00  0.00    +0.000 C 
ATOM      7  C   UNL     1       1.928   4.786  19.882  0.00  0.00    +0.000 C 
ATOM      8  C   UNL     1       1.755   5.135  18.411  0.00  0.00    +0.000 C 
ATOM      9  C   UNL     1       3.007   5.807  17.828  0.00  0.00    +0.000 C 
ATOM     10  H   UNL     1       4.307   5.868  15.697  0.00  0.00    +0.000 HD
ENDROOT
BRANCH   1  14
ATOM     11  C   UNL     1       8.906   5.850  12.890  0.00  0.00    +0.000 C 
ATOM     12  C   UNL     1       7.632   5.120  13.189  0.00  0.00    +0.000 A 
ATOM     13  C   UNL     1       6.917   5.404  14.362  0.00  0.00    +0.000 A 
ATOM     14  C   UNL     1       5.699   4.778  14.645  0.00  0.00    +0.000 A 
ATOM     15  C   UNL     1       5.221   3.809  13.751  0.00  0.00    +0.000 A 
ATOM     16  C   UNL     1       5.935   3.501  12.579  0.00  0.00    +0.000 A 
ATOM     17  C   UNL     1       7.134   4.168  12.294  0.00  0.00    +0.000 A 
BRANCH  16  18
ATOM     18  C   UNL     1       5.366   2.501  11.636  0.00  0.00    +0.000 C 
ATOM     19  N   UNL     1       6.080   1.352  11.423  0.00  0.00    +0.000 N 
ATOM     20  O   UNL     1       4.289   2.678  11.083  0.00  0.00    +0.000 OA
ATOM     21  H   UNL     1       6.870   1.073  11.985  0.00  0.00    +0.000 HD
ATOM     22  H   UNL     1       5.638   0.649  10.845  0.00  0.00    +0.000 HD
ENDBRANCH  16  18
ENDBRANCH   1  14
BRANCH   9  23
ATOM     23  C   UNL     1       3.286   7.225  18.411  0.00  0.00    +0.000 C 
BRANCH  23  24
ATOM     24  N   UNL     1       2.196   8.177  18.295  0.00  0.00    +0.000 N 
ATOM     25  C   UNL     1       1.540   8.628  19.421  0.00  0.00    +0.000 C 
ATOM     26  O   UNL     1       1.835   8.248  20.544  0.00  0.00    +0.000 OA
ATOM     27  H   UNL     1       1.676   8.169  17.429  0.00  0.00    +0.000 HD
BRANCH  25  28
ATOM     28  C   UNL     1       0.440   9.620  19.230  0.00  0.00    +0.000 A 
ATOM     29  C   UNL     1       0.014  10.508  20.227  0.00  0.00    +0.000 A 
ATOM     30  C   UNL     1      -1.061  11.371  19.983  0.00  0.00    +0.000 A 
ATOM     31  C   UNL     1      -1.708  11.356  18.748  0.00  0.00    +0.000 A 
ATOM     32  C   UNL     1      -1.291  10.475  17.753  0.00  0.00    +0.000 A 
ATOM     33  C   UNL     1      -0.230   9.604  17.998  0.00  0.00    +0.000 A 
ENDBRANCH  25  28
ENDBRANCH  23  24
ENDBRANCH   9  23
TORSDOF 5
ENDMDL
MODEL 6
REMARK VINA RESULT:      -8.2      1.743      2.417
REMARK  Name = 
REMARK  6 active torsions:
REMARK  status: ('A' for Active; 'I' for Inactive)
REMARK    1  A    between atoms: C_1  and  C_2
REMARK    2  A    between atoms: C_4  and  N_5
REMARK    3  A    between atoms: C_13  and  C_14
REMARK    4  A    between atoms: C_14  and  N_15
REMARK    5  A    between atoms: C_16  and  C_18
REMARK    6  A    between atoms: C_25  and  C_26
REMARK                            x       y       z     vdW  Elec       q    Type
REMARK                         _______ _______ _______ _____ _____    ______ ____
ROOT
ATOM      1  N   UNL     1       2.366   7.458  18.155  0.00  0.00    +0.000 N 
ATOM      2  C   UNL     1       1.946   7.873  19.405  0.00  0.00    +0.000 C 
ATOM      3  O   UNL     1       2.095   7.207  20.430  0.00  0.00    +0.000 OA
ATOM      4  N   UNL     1       1.331   9.124  19.469  0.00  0.00    +0.000 N 
ATOM      5  C   UNL     1       1.008   9.664  20.796  0.00  0.00    +0.000 C 
ATOM      6  C   UNL     1      -0.401  10.253  20.865  0.00  0.00    +0.000 C 
ATOM      7  C   UNL     1      -0.724  11.177  19.695  0.00  0.00    +0.000 C 
ATOM      8  C   UNL     1      -0.368  10.516  18.371  0.00  0.00    +0.000 C 
ATOM      9  C   UNL     1       1.093  10.044  18.338  0.00  0.00    +0.000 C 
ATOM     10  H   UNL     1       2.454   8.157  17.432  0.00  0.00    +0.000 HD
ENDROOT
BRANCH   1  14
ATOM     11  C   UNL     1       6.010   4.689  16.162  0.00  0.00    +0.000 C 
ATOM     12  C   UNL     1       4.698   4.799  16.877  0.00  0.00    +0.000 A 
ATOM     13  C   UNL     1       4.185   6.060  17.217  0.00  0.00    +0.000 A 
ATOM     14  C   UNL     1       2.942   6.200  17.840  0.00  0.00    +0.000 A 
ATOM     15  C   UNL     1       2.225   5.041  18.171  0.00  0.00    +0.000 A 
ATOM     16  C   UNL     1       2.733   3.769  17.852  0.00  0.00    +0.000 A 
ATOM     17  C   UNL     1       3.964   3.652  17.193  0.00  0.00    +0.000 A 
BRANCH  16  18
ATOM     18  C   UNL     1       1.917   2.569  18.180  0.00  0.00    +0.000 C 
ATOM     19  N   UNL     1       2.580   1.393  18.404  0.00  0.00    +0.000 N 
ATOM     20  O   UNL     1       0.697   2.626  18.271  0.00  0.00    +0.000 OA
ATOM     21  H   UNL     1       3.580   1.329  18.524  0.00  0.00    +0.000 HD
ATOM     22  H   UNL     1       2.015   0.609  18.707  0.00  0.00    +0.000 HD
ENDBRANCH  16  18
ENDBRANCH   1  14
BRANCH   9  23
ATOM     23  C   UNL     1       2.129  11.207  18.346  0.00  0.00    +0.000 C 
BRANCH  23  24
ATOM     24  N   UNL     1       1.580  12.538  18.155  0.00  0.00    +0.000 N 
ATOM     25  C   UNL     1       1.976  13.580  18.967  0.00  0.00    +0.000 C 
ATOM     26  O   UNL     1       2.784  13.432  19.871  0.00  0.00    +0.000 OA
ATOM     27  H   UNL     1       0.658  12.595  17.747  0.00  0.00    +0.000 HD
BRANCH  25  28
ATOM     28  C   UNL     1       1.384  14.926  18.704  0.00  0.00    +0.000 A 
ATOM     29  C   UNL     1       2.142  16.052  18.353  0.00  0.00    +0.000 A 
ATOM     30  C   UNL     1       1.514  17.290  18.174  0.00  0.00    +0.000 A 
ATOM     31  C   UNL     1       0.134  17.408  18.337  0.00  0.00    +0.000 A 
ATOM     32  C   UNL     1      -0.625  16.294  18.687  0.00  0.00    +0.000 A 
ATOM     33  C   UNL     1      -0.001  15.062  18.879  0.00  0.00    +0.000 A 
ENDBRANCH  25  28
ENDBRANCH  23  24
ENDBRANCH   9  23
TORSDOF 5
ENDMDL
MODEL 7
REMARK VINA RESULT:      -8.2      2.894      9.364
REMARK  Name = 
REMARK  6 active torsions:
REMARK  status: ('A' for Active; 'I' for Inactive)
REMARK    1  A    between atoms: C_1  and  C_2
REMARK    2  A    between atoms: C_4  and  N_5
REMARK    3  A    between atoms: C_13  and  C_14
REMARK    4  A    between atoms: C_14  and  N_15
REMARK    5  A    between atoms: C_16  and  C_18
REMARK    6  A    between atoms: C_25  and  C_26
REMARK                            x       y       z     vdW  Elec       q    Type
REMARK                         _______ _______ _______ _____ _____    ______ ____
ROOT
ATOM      1  N   UNL     1       2.637   6.420  19.719  0.00  0.00    +0.000 N 
ATOM      2  C   UNL     1       2.319   5.598  18.654  0.00  0.00    +0.000 C 
ATOM      3  O   UNL     1       1.421   5.843  17.848  0.00  0.00    +0.000 OA
ATOM      4  N   UNL     1       3.088   4.442  18.512  0.00  0.00    +0.000 N 
ATOM      5  C   UNL     1       2.883   3.623  17.310  0.00  0.00    +0.000 C 
ATOM      6  C   UNL     1       2.787   2.130  17.624  0.00  0.00    +0.000 C 
ATOM      7  C   UNL     1       3.887   1.640  18.560  0.00  0.00    +0.000 C 
ATOM      8  C   UNL     1       4.004   2.547  19.777  0.00  0.00    +0.000 C 
ATOM      9  C   UNL     1       4.204   4.017  19.382  0.00  0.00    +0.000 C 
ATOM     10  H   UNL     1       3.537   6.295  20.159  0.00  0.00    +0.000 HD
ENDROOT
BRANCH   1  14
ATOM     11  C   UNL     1      -0.118   9.016  22.974  0.00  0.00    +0.000 C 
ATOM     12  C   UNL     1       0.596   8.912  21.660  0.00  0.00    +0.000 A 
ATOM     13  C   UNL     1       1.311   7.748  21.339  0.00  0.00    +0.000 A 
ATOM     14  C   UNL     1       1.946   7.599  20.102  0.00  0.00    +0.000 A 
ATOM     15  C   UNL     1       1.899   8.666  19.193  0.00  0.00    +0.000 A 
ATOM     16  C   UNL     1       1.201   9.845  19.508  0.00  0.00    +0.000 A 
ATOM     17  C   UNL     1       0.538   9.960  20.737  0.00  0.00    +0.000 A 
BRANCH  16  18
ATOM     18  C   UNL     1       1.139  10.932  18.494  0.00  0.00    +0.000 C 
ATOM     19  N   UNL     1      -0.080  11.207  17.933  0.00  0.00    +0.000 N 
ATOM     20  O   UNL     1       2.130  11.578  18.181  0.00  0.00    +0.000 OA
ATOM     21  H   UNL     1      -0.952  10.839  18.283  0.00  0.00    +0.000 HD
ATOM     22  H   UNL     1      -0.118  12.004  17.310  0.00  0.00    +0.000 HD
ENDBRANCH  16  18
ENDBRANCH   1  14
BRANCH   9  23
ATOM     23  C   UNL     1       5.575   4.304  18.700  0.00  0.00    +0.000 C 
BRANCH  23  24
ATOM     24  N   UNL     1       5.574   4.264  17.249  0.00  0.00    +0.000 N 
ATOM     25  C   UNL     1       6.749   4.433  16.545  0.00  0.00    +0.000 C 
ATOM     26  O   UNL     1       7.820   4.627  17.100  0.00  0.00    +0.000 OA
ATOM     27  H   UNL     1       4.717   4.531  16.787  0.00  0.00    +0.000 HD
BRANCH  25  28
ATOM     28  C   UNL     1       6.679   4.363  15.055  0.00  0.00    +0.000 A 
ATOM     29  C   UNL     1       5.740   3.590  14.357  0.00  0.00    +0.000 A 
ATOM     30  C   UNL     1       5.777   3.539  12.958  0.00  0.00    +0.000 A 
ATOM     31  C   UNL     1       6.740   4.260  12.254  0.00  0.00    +0.000 A 
ATOM     32  C   UNL     1       7.676   5.029  12.941  0.00  0.00    +0.000 A 
ATOM     33  C   UNL     1       7.652   5.071  14.334  0.00  0.00    +0.000 A 
ENDBRANCH  25  28
ENDBRANCH  23  24
ENDBRANCH   9  23
TORSDOF 5
ENDMDL
MODEL 8
REMARK VINA RESULT:      -8.2      3.368      5.938
REMARK  Name = 
REMARK  6 active torsions:
REMARK  status: ('A' for Active; 'I' for Inactive)
REMARK    1  A    between atoms: C_1  and  C_2
REMARK    2  A    between atoms: C_4  and  N_5
REMARK    3  A    between atoms: C_13  and  C_14
REMARK    4  A    between atoms: C_14  and  N_15
REMARK    5  A    between atoms: C_16  and  C_18
REMARK    6  A    between atoms: C_25  and  C_26
REMARK                            x       y       z     vdW  Elec       q    Type
REMARK                         _______ _______ _______ _____ _____    ______ ____
ROOT
ATOM      1  N   UNL     1       4.909   5.202  15.750  0.00  0.00    +0.000 N 
ATOM      2  C   UNL     1       5.206   4.924  17.072  0.00  0.00    +0.000 C 
ATOM      3  O   UNL     1       6.255   4.395  17.438  0.00  0.00    +0.000 OA
ATOM      4  N   UNL     1       4.242   5.287  18.013  0.00  0.00    +0.000 N 
ATOM      5  C   UNL     1       4.583   5.148  19.435  0.00  0.00    +0.000 C 
ATOM      6  C   UNL     1       3.464   4.496  20.248  0.00  0.00    +0.000 C 
ATOM      7  C   UNL     1       2.089   5.097  19.968  0.00  0.00    +0.000 C 
ATOM      8  C   UNL     1       1.831   5.181  18.471  0.00  0.00    +0.000 C 
ATOM      9  C   UNL     1       2.946   5.940  17.736  0.00  0.00    +0.000 C 
ATOM     10  H   UNL     1       4.173   5.868  15.563  0.00  0.00    +0.000 HD
ENDROOT
BRANCH   1  14
ATOM     11  C   UNL     1       8.951   5.812  12.885  0.00  0.00    +0.000 C 
ATOM     12  C   UNL     1       7.660   5.115  13.188  0.00  0.00    +0.000 A 
ATOM     13  C   UNL     1       6.932   5.451  14.339  0.00  0.00    +0.000 A 
ATOM     14  C   UNL     1       5.699   4.855  14.624  0.00  0.00    +0.000 A 
ATOM     15  C   UNL     1       5.218   3.865  13.755  0.00  0.00    +0.000 A 
ATOM     16  C   UNL     1       5.945   3.506  12.606  0.00  0.00    +0.000 A 
ATOM     17  C   UNL     1       7.159   4.142  12.318  0.00  0.00    +0.000 A 
BRANCH  16  18
ATOM     18  C   UNL     1       5.373   2.484  11.688  0.00  0.00    +0.000 C 
ATOM     19  N   UNL     1       6.090   1.335  11.492  0.00  0.00    +0.000 N 
ATOM     20  O   UNL     1       4.290   2.645  11.141  0.00  0.00    +0.000 OA
ATOM     21  H   UNL     1       6.886   1.071  12.053  0.00  0.00    +0.000 HD
ATOM     22  H   UNL     1       5.647   0.618  10.932  0.00  0.00    +0.000 HD
ENDBRANCH  16  18
ENDBRANCH   1  14
BRANCH   9  23
ATOM     23  C   UNL     1       3.007   7.457  18.084  0.00  0.00    +0.000 C 
BRANCH  23  24
ATOM     24  N   UNL     1       2.258   7.862  19.260  0.00  0.00    +0.000 N 
ATOM     25  C   UNL     1       1.542   9.041  19.260  0.00  0.00    +0.000 C 
ATOM     26  O   UNL     1       1.511   9.786  18.293  0.00  0.00    +0.000 OA
ATOM     27  H   UNL     1       2.596   7.527  20.152  0.00  0.00    +0.000 HD
BRANCH  25  28
ATOM     28  C   UNL     1       0.780   9.388  20.497  0.00  0.00    +0.000 A 
ATOM     29  C   UNL     1       0.335   8.438  21.427  0.00  0.00    +0.000 A 
ATOM     30  C   UNL     1      -0.419   8.843  22.535  0.00  0.00    +0.000 A 
ATOM     31  C   UNL     1      -0.724  10.191  22.723  0.00  0.00    +0.000 A 
ATOM     32  C   UNL     1      -0.286  11.140  21.802  0.00  0.00    +0.000 A 
ATOM     33  C   UNL     1       0.453  10.738  20.690  0.00  0.00    +0.000 A 
ENDBRANCH  25  28
ENDBRANCH  23  24
ENDBRANCH   9  23
TORSDOF 5
ENDMDL
MODEL 9
REMARK VINA RESULT:      -8.1      1.696      1.834
REMARK  Name = 
REMARK  6 active torsions:
REMARK  status: ('A' for Active; 'I' for Inactive)
REMARK    1  A    between atoms: C_1  and  C_2
REMARK    2  A    between atoms: C_4  and  N_5
REMARK    3  A    between atoms: C_13  and  C_14
REMARK    4  A    between atoms: C_14  and  N_15
REMARK    5  A    between atoms: C_16  and  C_18
REMARK    6  A    between atoms: C_25  and  C_26
REMARK                            x       y       z     vdW  Elec       q    Type
REMARK                         _______ _______ _______ _____ _____    ______ ____
ROOT
ATOM      1  N   UNL     1       1.853   7.632  19.551  0.00  0.00    +0.000 N 
ATOM      2  C   UNL     1       1.398   8.469  20.554  0.00  0.00    +0.000 C 
ATOM      3  O   UNL     1       1.443   8.186  21.751  0.00  0.00    +0.000 OA
ATOM      4  N   UNL     1       0.874   9.697  20.147  0.00  0.00    +0.000 N 
ATOM      5  C   UNL     1       0.521  10.672  21.186  0.00  0.00    +0.000 C 
ATOM      6  C   UNL     1      -0.843  11.320  20.947  0.00  0.00    +0.000 C 
ATOM      7  C   UNL     1      -1.035  11.805  19.513  0.00  0.00    +0.000 C 
ATOM      8  C   UNL     1      -0.658  10.715  18.520  0.00  0.00    +0.000 C 
ATOM      9  C   UNL     1       0.764  10.187  18.757  0.00  0.00    +0.000 C 
ATOM     10  H   UNL     1       2.030   8.038  18.644  0.00  0.00    +0.000 HD
ENDROOT
BRANCH   1  14
ATOM     11  C   UNL     1       1.427   2.993  21.343  0.00  0.00    +0.000 C 
ATOM     12  C   UNL     1       2.191   4.031  20.578  0.00  0.00    +0.000 A 
ATOM     13  C   UNL     1       1.643   5.308  20.387  0.00  0.00    +0.000 A 
ATOM     14  C   UNL     1       2.350   6.314  19.722  0.00  0.00    +0.000 A 
ATOM     15  C   UNL     1       3.614   6.009  19.198  0.00  0.00    +0.000 A 
ATOM     16  C   UNL     1       4.169   4.728  19.367  0.00  0.00    +0.000 A 
ATOM     17  C   UNL     1       3.461   3.745  20.069  0.00  0.00    +0.000 A 
BRANCH  16  18
ATOM     18  C   UNL     1       5.533   4.463  18.834  0.00  0.00    +0.000 C 
ATOM     19  N   UNL     1       5.629   3.814  17.632  0.00  0.00    +0.000 N 
ATOM     20  O   UNL     1       6.538   4.828  19.429  0.00  0.00    +0.000 OA
ATOM     21  H   UNL     1       4.845   3.658  17.017  0.00  0.00    +0.000 HD
ATOM     22  H   UNL     1       6.560   3.718  17.246  0.00  0.00    +0.000 HD
ENDBRANCH  16  18
ENDBRANCH   1  14
BRANCH   9  23
ATOM     23  C   UNL     1       1.880  11.229  18.451  0.00  0.00    +0.000 C 
BRANCH  23  24
ATOM     24  N   UNL     1       1.424  12.587  18.216  0.00  0.00    +0.000 N 
ATOM     25  C   UNL     1       1.912  13.629  18.976  0.00  0.00    +0.000 C 
ATOM     26  O   UNL     1       2.728  13.460  19.869  0.00  0.00    +0.000 OA
ATOM     27  H   UNL     1       0.498  12.694  17.825  0.00  0.00    +0.000 HD
BRANCH  25  28
ATOM     28  C   UNL     1       1.412  15.003  18.670  0.00  0.00    +0.000 A 
ATOM     29  C   UNL     1       2.245  16.068  18.299  0.00  0.00    +0.000 A 
ATOM     30  C   UNL     1       1.701  17.339  18.080  0.00  0.00    +0.000 A 
ATOM     31  C   UNL     1       0.330  17.550  18.221  0.00  0.00    +0.000 A 
ATOM     32  C   UNL     1      -0.504  16.497  18.590  0.00  0.00    +0.000 A 
ATOM     33  C   UNL     1       0.037  15.233  18.823  0.00  0.00    +0.000 A 
ENDBRANCH  25  28
ENDBRANCH  23  24
ENDBRANCH   9  23
TORSDOF 5
ENDMDL
