MODEL 1
REMARK VINA RESULT:      -8.3      0.000      0.000
REMARK  Name = 
REMARK  6 active torsions:
REMARK  status: ('A' for Active; 'I' for Inactive)
REMARK    1  A    between atoms: C_2  and  C_12
REMARK    2  A    between atoms: N_3  and  C_4
REMARK    3  A    between atoms: C_4  and  C_5
REMARK    4  A    between atoms: C_17  and  O_18
REMARK    5  A    between atoms: O_18  and  C_19
REMARK    6  A    between atoms: C_19  and  C_20
REMARK                            x       y       z     vdW  Elec       q    Type
REMARK                         _______ _______ _______ _____ _____    ______ ____
ROOT
ATOM      1  C   UNL     1       3.100   3.757  18.724  0.00  0.00    +0.000 A 
ATOM      2  C   UNL     1       2.472   2.499  18.623  0.00  0.00    +0.000 A 
ATOM      3  C   UNL     1       1.342   2.191  19.377  0.00  0.00    +0.000 A 
ATOM      4  C   UNL     1       0.811   3.145  20.231  0.00  0.00    +0.000 A 
ATOM      5  C   UNL     1       1.408   4.404  20.324  0.00  0.00    +0.000 A 
ATOM      6  C   UNL     1       2.574   4.723  19.598  0.00  0.00    +0.000 A 
ENDROOT
BRANCH   1   8
ATOM      7  O   UNL     1       4.227   4.004  16.675  0.00  0.00    +0.000 OA
ATOM      8  C   UNL     1       4.332   3.914  17.896  0.00  0.00    +0.000 C 
ATOM      9  N   UNL     1       5.538   4.026  18.546  0.00  0.00    +0.000 N 
ATOM     10  H   UNL     1       5.570   3.921  19.552  0.00  0.00    +0.000 HD
BRANCH   9  11
ATOM     11  C   UNL     1       6.763   4.283  17.820  0.00  0.00    +0.000 C 
BRANCH  11  12
ATOM     12  C   UNL     1       7.182   5.725  17.870  0.00  0.00    +0.000 A 
ATOM     13  C   UNL     1       6.692   6.654  16.939  0.00  0.00    +0.000 A 
ATOM     14  C   UNL     1       7.064   7.999  17.013  0.00  0.00    +0.000 A 
ATOM     15  C   UNL     1       7.934   8.432  18.012  0.00  0.00    +0.000 A 
ATOM     16  C   UNL     1       8.438   7.515  18.934  0.00  0.00    +0.000 A 
ATOM     17  C   UNL     1       8.063   6.177  18.854  0.00  0.00    +0.000 A 
ATOM     18  F   UNL     1       8.564   5.314  19.751  0.00  0.00    +0.000 F 
ENDBRANCH  11  12
ENDBRANCH   9  11
ENDBRANCH   1   8
BRANCH   6  19
ATOM     19  O   UNL     1       3.228   5.930  19.737  0.00  0.00    +0.000 OA
BRANCH  19  20
ATOM     20  C   UNL     1       2.728   6.976  18.883  0.00  0.00    +0.000 C 
BRANCH  20  21
ATOM     21  C   UNL     1       1.887   7.995  19.571  0.00  0.00    +0.000 A 
ATOM     22  C   UNL     1       1.317   9.163  19.110  0.00  0.00    +0.000 A 
ATOM     23  N   UNL     1       0.687   9.723  20.193  0.00  0.00    +0.000 N 
ATOM     24  C   UNL     1      -0.022  10.917  20.293  0.00  0.00    +0.000 A 
ATOM     25  C   UNL     1      -0.545  11.271  21.481  0.00  0.00    +0.000 A 
ATOM     26  C   UNL     1      -0.360  10.386  22.625  0.00  0.00    +0.000 A 
ATOM     27  C   UNL     1       0.324   9.232  22.517  0.00  0.00    +0.000 A 
ATOM     28  C   UNL     1       0.885   8.859  21.265  0.00  0.00    +0.000 A 
ATOM     29  N   UNL     1       1.594   7.811  20.909  0.00  0.00    +0.000 NA
ENDBRANCH  20  21
ENDBRANCH  19  20
ENDBRANCH   6  19
TORSDOF 6
ENDMDL
MODEL 2
REMARK VINA RESULT:      -8.3      1.041      1.693
REMARK  Name = 
REMARK  6 active torsions:
REMARK  status: ('A' for Active; 'I' for Inactive)
REMARK    1  A    between atoms: C_2  and  C_12
REMARK    2  A    between atoms: N_3  and  C_4
REMARK    3  A    between atoms: C_4  and  C_5
REMARK    4  A    between atoms: C_17  and  O_18
REMARK    5  A    between atoms: O_18  and  C_19
REMARK    6  A    between atoms: C_19  and  C_20
REMARK                            x       y       z     vdW  Elec       q    Type
REMARK                         _______ _______ _______ _____ _____    ______ ____
ROOT
ATOM      1  C   UNL     1       3.160   3.684  18.783  0.00  0.00    +0.000 A 
ATOM      2  C   UNL     1       2.559   2.411  18.705  0.00  0.00    +0.000 A 
ATOM      3  C   UNL     1       1.437   2.092  19.466  0.00  0.00    +0.000 A 
ATOM      4  C   UNL     1       0.885   3.049  20.303  0.00  0.00    +0.000 A 
ATOM      5  C   UNL     1       1.454   4.322  20.372  0.00  0.00    +0.000 A 
ATOM      6  C   UNL     1       2.612   4.655  19.640  0.00  0.00    +0.000 A 
ENDROOT
BRANCH   1   8
ATOM      7  O   UNL     1       4.294   3.809  16.727  0.00  0.00    +0.000 OA
ATOM      8  C   UNL     1       4.388   3.853  17.952  0.00  0.00    +0.000 C 
ATOM      9  N   UNL     1       5.571   4.127  18.595  0.00  0.00    +0.000 N 
ATOM     10  H   UNL     1       5.596   4.130  19.607  0.00  0.00    +0.000 HD
BRANCH   9  11
ATOM     11  C   UNL     1       6.783   4.405  17.855  0.00  0.00    +0.000 C 
BRANCH  11  12
ATOM     12  C   UNL     1       7.190   5.850  17.920  0.00  0.00    +0.000 A 
ATOM     13  C   UNL     1       8.119   6.298  18.873  0.00  0.00    +0.000 A 
ATOM     14  C   UNL     1       8.514   7.639  18.906  0.00  0.00    +0.000 A 
ATOM     15  C   UNL     1       7.982   8.549  17.993  0.00  0.00    +0.000 A 
ATOM     16  C   UNL     1       7.047   8.118  17.052  0.00  0.00    +0.000 A 
ATOM     17  C   UNL     1       6.659   6.781  17.026  0.00  0.00    +0.000 A 
ATOM     18  F   UNL     1       5.757   6.391  16.113  0.00  0.00    +0.000 F 
ENDBRANCH  11  12
ENDBRANCH   9  11
ENDBRANCH   1   8
BRANCH   6  19
ATOM     19  O   UNL     1       3.240   5.877  19.756  0.00  0.00    +0.000 OA
BRANCH  19  20
ATOM     20  C   UNL     1       2.593   6.945  19.037  0.00  0.00    +0.000 C 
BRANCH  20  21
ATOM     21  C   UNL     1       1.831   7.900  19.888  0.00  0.00    +0.000 A 
ATOM     22  C   UNL     1       1.462   7.838  21.216  0.00  0.00    +0.000 A 
ATOM     23  N   UNL     1       0.735   8.979  21.454  0.00  0.00    +0.000 N 
ATOM     24  C   UNL     1       0.105   9.406  22.619  0.00  0.00    +0.000 A 
ATOM     25  C   UNL     1      -0.571  10.570  22.608  0.00  0.00    +0.000 A 
ATOM     26  C   UNL     1      -0.613  11.350  21.378  0.00  0.00    +0.000 A 
ATOM     27  C   UNL     1       0.003  10.929  20.258  0.00  0.00    +0.000 A 
ATOM     28  C   UNL     1       0.711   9.696  20.263  0.00  0.00    +0.000 A 
ATOM     29  N   UNL     1       1.372   9.071  19.315  0.00  0.00    +0.000 NA
ENDBRANCH  20  21
ENDBRANCH  19  20
ENDBRANCH   6  19
TORSDOF 6
ENDMDL
MODEL 3
REMARK VINA RESULT:      -8.3      3.199      8.188
REMARK  Name = 
REMARK  6 active torsions:
REMARK  status: ('A' for Active; 'I' for Inactive)
REMARK    1  A    between atoms: C_2  and  C_12
REMARK    2  A    between atoms: N_3  and  C_4
REMARK    3  A    between atoms: C_4  and  C_5
REMARK    4  A    between atoms: C_17  and  O_18
REMARK    5  A    between atoms: O_18  and  C_19
REMARK    6  A    between atoms: C_19  and  C_20
REMARK                            x       y       z     vdW  Elec       q    Type
REMARK                         _______ _______ _______ _____ _____    ______ ____
ROOT
ATOM      1  C   UNL     1       3.010   5.672  19.350  0.00  0.00    +0.000 A 
ATOM      2  C   UNL     1       2.057   4.885  20.029  0.00  0.00    +0.000 A 
ATOM      3  C   UNL     1       2.324   3.561  20.372  0.00  0.00    +0.000 A 
ATOM      4  C   UNL     1       3.556   3.010  20.059  0.00  0.00    +0.000 A 
ATOM      5  C   UNL     1       4.519   3.784  19.408  0.00  0.00    +0.000 A 
ATOM      6  C   UNL     1       4.256   5.114  19.017  0.00  0.00    +0.000 A 
ENDROOT
BRANCH   1   8
ATOM      7  O   UNL     1       2.722   7.465  17.856  0.00  0.00    +0.000 OA
ATOM      8  C   UNL     1       2.555   7.050  19.001  0.00  0.00    +0.000 C 
ATOM      9  N   UNL     1       1.895   7.776  19.963  0.00  0.00    +0.000 N 
ATOM     10  H   UNL     1       1.805   7.396  20.896  0.00  0.00    +0.000 HD
BRANCH   9  11
ATOM     11  C   UNL     1       1.334   9.078  19.671  0.00  0.00    +0.000 C 
BRANCH  11  12
ATOM     12  C   UNL     1       0.563   9.655  20.824  0.00  0.00    +0.000 A 
ATOM     13  C   UNL     1       0.202   8.861  21.924  0.00  0.00    +0.000 A 
ATOM     14  C   UNL     1      -0.489   9.415  23.005  0.00  0.00    +0.000 A 
ATOM     15  C   UNL     1      -0.833  10.767  22.999  0.00  0.00    +0.000 A 
ATOM     16  C   UNL     1      -0.493  11.562  21.905  0.00  0.00    +0.000 A 
ATOM     17  C   UNL     1       0.195  11.002  20.831  0.00  0.00    +0.000 A 
ATOM     18  F   UNL     1       0.509  11.787  19.790  0.00  0.00    +0.000 F 
ENDBRANCH  11  12
ENDBRANCH   9  11
ENDBRANCH   1   8
BRANCH   6  19
ATOM     19  O   UNL     1       5.160   5.870  18.300  0.00  0.00    +0.000 OA
BRANCH  19  20
ATOM     20  C   UNL     1       6.325   5.144  17.865  0.00  0.00    +0.000 C 
BRANCH  20  21
ATOM     21  C   UNL     1       6.361   4.837  16.407  0.00  0.00    +0.000 A 
ATOM     22  C   UNL     1       5.598   3.983  15.640  0.00  0.00    +0.000 A 
ATOM     23  N   UNL     1       6.102   4.075  14.366  0.00  0.00    +0.000 N 
ATOM     24  C   UNL     1       5.720   3.407  13.207  0.00  0.00    +0.000 A 
ATOM     25  C   UNL     1       6.382   3.654  12.061  0.00  0.00    +0.000 A 
ATOM     26  C   UNL     1       7.473   4.620  12.070  0.00  0.00    +0.000 A 
ATOM     27  C   UNL     1       7.832   5.262  13.196  0.00  0.00    +0.000 A 
ATOM     28  C   UNL     1       7.141   4.999  14.411  0.00  0.00    +0.000 A 
ATOM     29  N   UNL     1       7.304   5.476  15.625  0.00  0.00    +0.000 NA
ENDBRANCH  20  21
ENDBRANCH  19  20
ENDBRANCH   6  19
TORSDOF 6
ENDMDL
MODEL 4
REMARK VINA RESULT:      -8.2      0.991      1.354
REMARK  Name = 
REMARK  6 active torsions:
REMARK  status: ('A' for Active; 'I' for Inactive)
REMARK    1  A    between atoms: C_2  and  C_12
REMARK    2  A    between atoms: N_3  and  C_4
REMARK    3  A    between atoms: C_4  and  C_5
REMARK    4  A    between atoms: C_17  and  O_18
REMARK    5  A    between atoms: O_18  and  C_19
REMARK    6  A    between atoms: C_19  and  C_20
REMARK                            x       y       z     vdW  Elec       q    Type
REMARK                         _______ _______ _______ _____ _____    ______ ____
ROOT
ATOM      1  C   UNL     1       3.128   3.697  18.955  0.00  0.00    +0.000 A 
ATOM      2  C   UNL     1       2.573   2.402  18.991  0.00  0.00    +0.000 A 
ATOM      3  C   UNL     1       1.495   2.099  19.820  0.00  0.00    +0.000 A 
ATOM      4  C   UNL     1       0.941   3.093  20.610  0.00  0.00    +0.000 A 
ATOM      5  C   UNL     1       1.465   4.387  20.567  0.00  0.00    +0.000 A 
ATOM      6  C   UNL     1       2.580   4.707  19.765  0.00  0.00    +0.000 A 
ENDROOT
BRANCH   1   8
ATOM      7  O   UNL     1       4.155   3.834  16.844  0.00  0.00    +0.000 OA
ATOM      8  C   UNL     1       4.315   3.849  18.063  0.00  0.00    +0.000 C 
ATOM      9  N   UNL     1       5.538   4.076  18.647  0.00  0.00    +0.000 N 
ATOM     10  H   UNL     1       5.617   4.056  19.655  0.00  0.00    +0.000 HD
BRANCH   9  11
ATOM     11  C   UNL     1       6.717   4.335  17.848  0.00  0.00    +0.000 C 
BRANCH  11  12
ATOM     12  C   UNL     1       7.151   5.773  17.895  0.00  0.00    +0.000 A 
ATOM     13  C   UNL     1       8.073   6.220  18.853  0.00  0.00    +0.000 A 
ATOM     14  C   UNL     1       8.493   7.553  18.869  0.00  0.00    +0.000 A 
ATOM     15  C   UNL     1       7.992   8.457  17.933  0.00  0.00    +0.000 A 
ATOM     16  C   UNL     1       7.064   8.027  16.985  0.00  0.00    +0.000 A 
ATOM     17  C   UNL     1       6.651   6.698  16.976  0.00  0.00    +0.000 A 
ATOM     18  F   UNL     1       5.755   6.309  16.056  0.00  0.00    +0.000 F 
ENDBRANCH  11  12
ENDBRANCH   9  11
ENDBRANCH   1   8
BRANCH   6  19
ATOM     19  O   UNL     1       3.165   5.955  19.769  0.00  0.00    +0.000 OA
BRANCH  19  20
ATOM     20  C   UNL     1       2.665   6.847  18.754  0.00  0.00    +0.000 C 
BRANCH  20  21
ATOM     21  C   UNL     1       1.930   8.034  19.273  0.00  0.00    +0.000 A 
ATOM     22  C   UNL     1       1.536   9.200  18.652  0.00  0.00    +0.000 A 
ATOM     23  N   UNL     1       0.932   9.955  19.627  0.00  0.00    +0.000 N 
ATOM     24  C   UNL     1       0.377  11.230  19.551  0.00  0.00    +0.000 A 
ATOM     25  C   UNL     1      -0.153  11.780  20.658  0.00  0.00    +0.000 A 
ATOM     26  C   UNL     1      -0.137  11.019  21.902  0.00  0.00    +0.000 A 
ATOM     27  C   UNL     1       0.398   9.787  21.963  0.00  0.00    +0.000 A 
ATOM     28  C   UNL     1       0.967   9.204  20.797  0.00  0.00    +0.000 A 
ATOM     29  N   UNL     1       1.552   8.044  20.602  0.00  0.00    +0.000 NA
ENDBRANCH  20  21
ENDBRANCH  19  20
ENDBRANCH   6  19
TORSDOF 6
ENDMDL
MODEL 5
REMARK VINA RESULT:      -8.1      2.514      6.123
REMARK  Name = 
REMARK  6 active torsions:
REMARK  status: ('A' for Active; 'I' for Inactive)
REMARK    1  A    between atoms: C_2  and  C_12
REMARK    2  A    between atoms: N_3  and  C_4
REMARK    3  A    between atoms: C_4  and  C_5
REMARK    4  A    between atoms: C_17  and  O_18
REMARK    5  A    between atoms: O_18  and  C_19
REMARK    6  A    between atoms: C_19  and  C_20
REMARK                            x       y       z     vdW  Elec       q    Type
REMARK                         _______ _______ _______ _____ _____    ______ ____
ROOT
ATOM      1  C   UNL     1       1.162   9.382  19.522  0.00  0.00    +0.000 A 
ATOM      2  C   UNL     1       0.324  10.511  19.419  0.00  0.00    +0.000 A 
ATOM      3  C   UNL     1      -0.487  10.910  20.479  0.00  0.00    +0.000 A 
ATOM      4  C   UNL     1      -0.457  10.197  21.667  0.00  0.00    +0.000 A 
ATOM      5  C   UNL     1       0.386   9.091  21.793  0.00  0.00    +0.000 A 
ATOM      6  C   UNL     1       1.187   8.647  20.720  0.00  0.00    +0.000 A 
ENDROOT
BRANCH   1   8
ATOM      7  O   UNL     1       1.925   9.844  17.346  0.00  0.00    +0.000 OA
ATOM      8  C   UNL     1       1.925   9.049  18.283  0.00  0.00    +0.000 C 
ATOM      9  N   UNL     1       2.662   7.889  18.270  0.00  0.00    +0.000 N 
ATOM     10  H   UNL     1       2.608   7.258  19.060  0.00  0.00    +0.000 HD
BRANCH   9  11
ATOM     11  C   UNL     1       3.508   7.548  17.146  0.00  0.00    +0.000 C 
BRANCH  11  12
ATOM     12  C   UNL     1       4.536   6.505  17.483  0.00  0.00    +0.000 A 
ATOM     13  C   UNL     1       4.828   6.180  18.817  0.00  0.00    +0.000 A 
ATOM     14  C   UNL     1       5.764   5.187  19.120  0.00  0.00    +0.000 A 
ATOM     15  C   UNL     1       6.424   4.510  18.095  0.00  0.00    +0.000 A 
ATOM     16  C   UNL     1       6.153   4.835  16.766  0.00  0.00    +0.000 A 
ATOM     17  C   UNL     1       5.220   5.826  16.473  0.00  0.00    +0.000 A 
ATOM     18  F   UNL     1       4.978   6.121  15.187  0.00  0.00    +0.000 F 
ENDBRANCH  11  12
ENDBRANCH   9  11
ENDBRANCH   1   8
BRANCH   6  19
ATOM     19  O   UNL     1       1.964   7.510  20.793  0.00  0.00    +0.000 OA
BRANCH  19  20
ATOM     20  C   UNL     1       1.218   6.296  21.003  0.00  0.00    +0.000 C 
BRANCH  20  21
ATOM     21  C   UNL     1       1.792   5.088  20.347  0.00  0.00    +0.000 A 
ATOM     22  C   UNL     1       2.502   4.024  20.863  0.00  0.00    +0.000 A 
ATOM     23  N   UNL     1       2.813   3.228  19.789  0.00  0.00    +0.000 N 
ATOM     24  C   UNL     1       3.540   2.042  19.741  0.00  0.00    +0.000 A 
ATOM     25  C   UNL     1       3.730   1.438  18.553  0.00  0.00    +0.000 A 
ATOM     26  C   UNL     1       3.160   2.043  17.355  0.00  0.00    +0.000 A 
ATOM     27  C   UNL     1       2.456   3.188  17.414  0.00  0.00    +0.000 A 
ATOM     28  C   UNL     1       2.260   3.833  18.666  0.00  0.00    +0.000 A 
ATOM     29  N   UNL     1       1.633   4.944  18.981  0.00  0.00    +0.000 NA
ENDBRANCH  20  21
ENDBRANCH  19  20
ENDBRANCH   6  19
TORSDOF 6
ENDMDL
MODEL 6
REMARK VINA RESULT:      -8.1      1.376      1.994
REMARK  Name = 
REMARK  6 active torsions:
REMARK  status: ('A' for Active; 'I' for Inactive)
REMARK    1  A    between atoms: C_2  and  C_12
REMARK    2  A    between atoms: N_3  and  C_4
REMARK    3  A    between atoms: C_4  and  C_5
REMARK    4  A    between atoms: C_17  and  O_18
REMARK    5  A    between atoms: O_18  and  C_19
REMARK    6  A    between atoms: C_19  and  C_20
REMARK                            x       y       z     vdW  Elec       q    Type
REMARK                         _______ _______ _______ _____ _____    ______ ____
ROOT
ATOM      1  C   UNL     1       3.225   3.477  19.370  0.00  0.00    +0.000 A 
ATOM      2  C   UNL     1       3.366   2.538  20.412  0.00  0.00    +0.000 A 
ATOM      3  C   UNL     1       2.373   2.369  21.374  0.00  0.00    +0.000 A 
ATOM      4  C   UNL     1       1.213   3.124  21.297  0.00  0.00    +0.000 A 
ATOM      5  C   UNL     1       1.048   4.041  20.256  0.00  0.00    +0.000 A 
ATOM      6  C   UNL     1       2.057   4.255  19.294  0.00  0.00    +0.000 A 
ENDROOT
BRANCH   1   8
ATOM      7  O   UNL     1       4.266   3.272  17.271  0.00  0.00    +0.000 OA
ATOM      8  C   UNL     1       4.399   3.581  18.454  0.00  0.00    +0.000 C 
ATOM      9  N   UNL     1       5.570   4.093  18.959  0.00  0.00    +0.000 N 
ATOM     10  H   UNL     1       5.631   4.310  19.945  0.00  0.00    +0.000 HD
BRANCH   9  11
ATOM     11  C   UNL     1       6.720   4.321  18.110  0.00  0.00    +0.000 C 
BRANCH  11  12
ATOM     12  C   UNL     1       7.101   5.771  18.018  0.00  0.00    +0.000 A 
ATOM     13  C   UNL     1       8.075   6.319  18.867  0.00  0.00    +0.000 A 
ATOM     14  C   UNL     1       8.444   7.662  18.753  0.00  0.00    +0.000 A 
ATOM     15  C   UNL     1       7.841   8.477  17.796  0.00  0.00    +0.000 A 
ATOM     16  C   UNL     1       6.861   7.947  16.957  0.00  0.00    +0.000 A 
ATOM     17  C   UNL     1       6.498   6.608  17.077  0.00  0.00    +0.000 A 
ATOM     18  F   UNL     1       5.551   6.123  16.260  0.00  0.00    +0.000 F 
ENDBRANCH  11  12
ENDBRANCH   9  11
ENDBRANCH   1   8
BRANCH   6  19
ATOM     19  O   UNL     1       1.952   5.213  18.307  0.00  0.00    +0.000 OA
BRANCH  19  20
ATOM     20  C   UNL     1       2.808   6.355  18.498  0.00  0.00    +0.000 C 
BRANCH  20  21
ATOM     21  C   UNL     1       2.138   7.545  19.092  0.00  0.00    +0.000 A 
ATOM     22  C   UNL     1       1.699   7.795  20.375  0.00  0.00    +0.000 A 
ATOM     23  N   UNL     1       1.119   9.039  20.336  0.00  0.00    +0.000 N 
ATOM     24  C   UNL     1       0.495   9.763  21.348  0.00  0.00    +0.000 A 
ATOM     25  C   UNL     1      -0.020  10.973  21.064  0.00  0.00    +0.000 A 
ATOM     26  C   UNL     1       0.102  11.492  19.707  0.00  0.00    +0.000 A 
ATOM     27  C   UNL     1       0.711  10.785  18.738  0.00  0.00    +0.000 A 
ATOM     28  C   UNL     1       1.249   9.502  19.031  0.00  0.00    +0.000 A 
ATOM     29  N   UNL     1       1.867   8.625  18.272  0.00  0.00    +0.000 NA
ENDBRANCH  20  21
ENDBRANCH  19  20
ENDBRANCH   6  19
TORSDOF 6
ENDMDL
MODEL 7
REMARK VINA RESULT:      -8.1      0.947      1.428
REMARK  Name = 
REMARK  6 active torsions:
REMARK  status: ('A' for Active; 'I' for Inactive)
REMARK    1  A    between atoms: C_2  and  C_12
REMARK    2  A    between atoms: N_3  and  C_4
REMARK    3  A    between atoms: C_4  and  C_5
REMARK    4  A    between atoms: C_17  and  O_18
REMARK    5  A    between atoms: O_18  and  C_19
REMARK    6  A    between atoms: C_19  and  C_20
REMARK                            x       y       z     vdW  Elec       q    Type
REMARK                         _______ _______ _______ _____ _____    ______ ____
ROOT
ATOM      1  C   UNL     1       3.224   3.543  19.335  0.00  0.00    +0.000 A 
ATOM      2  C   UNL     1       3.317   2.523  20.305  0.00  0.00    +0.000 A 
ATOM      3  C   UNL     1       2.338   2.362  21.283  0.00  0.00    +0.000 A 
ATOM      4  C   UNL     1       1.239   3.206  21.294  0.00  0.00    +0.000 A 
ATOM      5  C   UNL     1       1.121   4.206  20.326  0.00  0.00    +0.000 A 
ATOM      6  C   UNL     1       2.118   4.411  19.351  0.00  0.00    +0.000 A 
ENDROOT
BRANCH   1   8
ATOM      7  O   UNL     1       4.203   3.359  17.206  0.00  0.00    +0.000 OA
ATOM      8  C   UNL     1       4.378   3.623  18.393  0.00  0.00    +0.000 C 
ATOM      9  N   UNL     1       5.583   4.065  18.883  0.00  0.00    +0.000 N 
ATOM     10  H   UNL     1       5.679   4.248  19.874  0.00  0.00    +0.000 HD
BRANCH   9  11
ATOM     11  C   UNL     1       6.721   4.268  18.012  0.00  0.00    +0.000 C 
BRANCH  11  12
ATOM     12  C   UNL     1       7.160   5.703  17.948  0.00  0.00    +0.000 A 
ATOM     13  C   UNL     1       6.682   6.563  16.947  0.00  0.00    +0.000 A 
ATOM     14  C   UNL     1       7.073   7.905  16.914  0.00  0.00    +0.000 A 
ATOM     15  C   UNL     1       7.952   8.403  17.875  0.00  0.00    +0.000 A 
ATOM     16  C   UNL     1       8.445   7.554  18.866  0.00  0.00    +0.000 A 
ATOM     17  C   UNL     1       8.051   6.219  18.891  0.00  0.00    +0.000 A 
ATOM     18  F   UNL     1       8.541   5.422  19.853  0.00  0.00    +0.000 F 
ENDBRANCH  11  12
ENDBRANCH   9  11
ENDBRANCH   1   8
BRANCH   6  19
ATOM     19  O   UNL     1       2.064   5.443  18.437  0.00  0.00    +0.000 OA
BRANCH  19  20
ATOM     20  C   UNL     1       2.847   6.596  18.800  0.00  0.00    +0.000 C 
BRANCH  20  21
ATOM     21  C   UNL     1       2.066   7.723  19.383  0.00  0.00    +0.000 A 
ATOM     22  C   UNL     1       1.578   7.926  20.657  0.00  0.00    +0.000 A 
ATOM     23  N   UNL     1       0.898   9.118  20.610  0.00  0.00    +0.000 N 
ATOM     24  C   UNL     1       0.192   9.780  21.610  0.00  0.00    +0.000 A 
ATOM     25  C   UNL     1      -0.414  10.946  21.321  0.00  0.00    +0.000 A 
ATOM     26  C   UNL     1      -0.304  11.483  19.969  0.00  0.00    +0.000 A 
ATOM     27  C   UNL     1       0.384  10.836  19.012  0.00  0.00    +0.000 A 
ATOM     28  C   UNL     1       1.020   9.599  19.311  0.00  0.00    +0.000 A 
ATOM     29  N   UNL     1       1.726   8.782  18.563  0.00  0.00    +0.000 NA
ENDBRANCH  20  21
ENDBRANCH  19  20
ENDBRANCH   6  19
TORSDOF 6
ENDMDL
MODEL 8
REMARK VINA RESULT:      -8.0      2.187      6.976
REMARK  Name = 
REMARK  6 active torsions:
REMARK  status: ('A' for Active; 'I' for Inactive)
REMARK    1  A    between atoms: C_2  and  C_12
REMARK    2  A    between atoms: N_3  and  C_4
REMARK    3  A    between atoms: C_4  and  C_5
REMARK    4  A    between atoms: C_17  and  O_18
REMARK    5  A    between atoms: O_18  and  C_19
REMARK    6  A    between atoms: C_19  and  C_20
REMARK                            x       y       z     vdW  Elec       q    Type
REMARK                         _______ _______ _______ _____ _____    ______ ____
ROOT
ATOM      1  C   UNL     1       2.123   4.981  19.865  0.00  0.00    +0.000 A 
ATOM      2  C   UNL     1       1.943   4.667  21.228  0.00  0.00    +0.000 A 
ATOM      3  C   UNL     1       1.784   3.350  21.653  0.00  0.00    +0.000 A 
ATOM      4  C   UNL     1       1.824   2.324  20.723  0.00  0.00    +0.000 A 
ATOM      5  C   UNL     1       2.025   2.617  19.373  0.00  0.00    +0.000 A 
ATOM      6  C   UNL     1       2.150   3.945  18.916  0.00  0.00    +0.000 A 
ENDROOT
BRANCH   1   8
ATOM      7  O   UNL     1       2.729   6.800  18.504  0.00  0.00    +0.000 OA
ATOM      8  C   UNL     1       2.219   6.439  19.562  0.00  0.00    +0.000 C 
ATOM      9  N   UNL     1       1.663   7.323  20.455  0.00  0.00    +0.000 N 
ATOM     10  H   UNL     1       1.276   6.974  21.323  0.00  0.00    +0.000 HD
BRANCH   9  11
ATOM     11  C   UNL     1       1.625   8.745  20.183  0.00  0.00    +0.000 C 
BRANCH  11  12
ATOM     12  C   UNL     1       0.744   9.500  21.137  0.00  0.00    +0.000 A 
ATOM     13  C   UNL     1       0.228   8.885  22.288  0.00  0.00    +0.000 A 
ATOM     14  C   UNL     1      -0.566   9.605  23.185  0.00  0.00    +0.000 A 
ATOM     15  C   UNL     1      -0.861  10.946  22.940  0.00  0.00    +0.000 A 
ATOM     16  C   UNL     1      -0.366  11.563  21.792  0.00  0.00    +0.000 A 
ATOM     17  C   UNL     1       0.424  10.839  20.903  0.00  0.00    +0.000 A 
ATOM     18  F   UNL     1       0.887  11.455  19.805  0.00  0.00    +0.000 F 
ENDBRANCH  11  12
ENDBRANCH   9  11
ENDBRANCH   1   8
BRANCH   6  19
ATOM     19  O   UNL     1       2.266   4.264  17.579  0.00  0.00    +0.000 OA
BRANCH  19  20
ATOM     20  C   UNL     1       3.498   3.831  16.973  0.00  0.00    +0.000 C 
BRANCH  20  21
ATOM     21  C   UNL     1       4.702   4.609  17.379  0.00  0.00    +0.000 A 
ATOM     22  C   UNL     1       5.617   4.404  18.391  0.00  0.00    +0.000 A 
ATOM     23  N   UNL     1       6.490   5.461  18.323  0.00  0.00    +0.000 N 
ATOM     24  C   UNL     1       7.587   5.763  19.125  0.00  0.00    +0.000 A 
ATOM     25  C   UNL     1       8.295   6.879  18.872  0.00  0.00    +0.000 A 
ATOM     26  C   UNL     1       7.895   7.732  17.760  0.00  0.00    +0.000 A 
ATOM     27  C   UNL     1       6.835   7.429  16.989  0.00  0.00    +0.000 A 
ATOM     28  C   UNL     1       6.079   6.255  17.257  0.00  0.00    +0.000 A 
ATOM     29  N   UNL     1       5.014   5.754  16.672  0.00  0.00    +0.000 NA
ENDBRANCH  20  21
ENDBRANCH  19  20
ENDBRANCH   6  19
TORSDOF 6
ENDMDL
MODEL 9
REMARK VINA RESULT:      -8.0      3.362      5.534
REMARK  Name = 
REMARK  6 active torsions:
REMARK  status: ('A' for Active; 'I' for Inactive)
REMARK    1  A    between atoms: C_2  and  C_12
REMARK    2  A    between atoms: N_3  and  C_4
REMARK    3  A    between atoms: C_4  and  C_5
REMARK    4  A    between atoms: C_17  and  O_18
REMARK    5  A    between atoms: O_18  and  C_19
REMARK    6  A    between atoms: C_19  and  C_20
REMARK                            x       y       z     vdW  Elec       q    Type
REMARK                         _______ _______ _______ _____ _____    ______ ____
ROOT
ATOM      1  C   UNL     1       6.910   6.415  16.992  0.00  0.00    +0.000 A 
ATOM      2  C   UNL     1       7.625   5.479  16.218  0.00  0.00    +0.000 A 
ATOM      3  C   UNL     1       6.991   4.702  15.251  0.00  0.00    +0.000 A 
ATOM      4  C   UNL     1       5.633   4.865  15.029  0.00  0.00    +0.000 A 
ATOM      5  C   UNL     1       4.915   5.806  15.771  0.00  0.00    +0.000 A 
ATOM      6  C   UNL     1       5.529   6.575  16.781  0.00  0.00    +0.000 A 
ENDROOT
BRANCH   1   8
ATOM      7  O   UNL     1       8.179   6.490  18.971  0.00  0.00    +0.000 OA
ATOM      8  C   UNL     1       7.718   7.127  18.025  0.00  0.00    +0.000 C 
ATOM      9  N   UNL     1       7.977   8.463  17.836  0.00  0.00    +0.000 N 
ATOM     10  H   UNL     1       7.554   8.944  17.053  0.00  0.00    +0.000 HD
BRANCH   9  11
ATOM     11  C   UNL     1       8.837   9.198  18.739  0.00  0.00    +0.000 C 
BRANCH  11  12
ATOM     12  C   UNL     1       8.984  10.644  18.359  0.00  0.00    +0.000 A 
ATOM     13  C   UNL     1       7.981  11.310  17.638  0.00  0.00    +0.000 A 
ATOM     14  C   UNL     1       8.115  12.663  17.316  0.00  0.00    +0.000 A 
ATOM     15  C   UNL     1       9.254  13.367  17.704  0.00  0.00    +0.000 A 
ATOM     16  C   UNL     1      10.264  12.713  18.408  0.00  0.00    +0.000 A 
ATOM     17  C   UNL     1      10.124  11.364  18.724  0.00  0.00    +0.000 A 
ATOM     18  F   UNL     1      11.110  10.757  19.401  0.00  0.00    +0.000 F 
ENDBRANCH  11  12
ENDBRANCH   9  11
ENDBRANCH   1   8
BRANCH   6  19
ATOM     19  O   UNL     1       4.825   7.449  17.582  0.00  0.00    +0.000 OA
BRANCH  19  20
ATOM     20  C   UNL     1       3.395   7.286  17.522  0.00  0.00    +0.000 C 
BRANCH  20  21
ATOM     21  C   UNL     1       2.868   6.118  18.282  0.00  0.00    +0.000 A 
ATOM     22  C   UNL     1       2.100   5.045  17.881  0.00  0.00    +0.000 A 
ATOM     23  N   UNL     1       1.879   4.301  19.013  0.00  0.00    +0.000 N 
ATOM     24  C   UNL     1       1.143   3.131  19.180  0.00  0.00    +0.000 A 
ATOM     25  C   UNL     1       1.056   2.583  20.406  0.00  0.00    +0.000 A 
ATOM     26  C   UNL     1       1.742   3.228  21.519  0.00  0.00    +0.000 A 
ATOM     27  C   UNL     1       2.452   4.357  21.345  0.00  0.00    +0.000 A 
ATOM     28  C   UNL     1       2.541   4.944  20.053  0.00  0.00    +0.000 A 
ATOM     29  N   UNL     1       3.150   6.030  19.632  0.00  0.00    +0.000 NA
ENDBRANCH  20  21
ENDBRANCH  19  20
ENDBRANCH   6  19
TORSDOF 6
ENDMDL
