MODEL 1
REMARK VINA RESULT:      -8.0      0.000      0.000
REMARK  Name = 
REMARK  7 active torsions:
REMARK  status: ('A' for Active; 'I' for Inactive)
REMARK    1  A    between atoms: S_2  and  N_4
REMARK    2  A    between atoms: S_2  and  C_12
REMARK    3  A    between atoms: N_4  and  C_5
REMARK    4  A    between atoms: C_15  and  O_16
REMARK    5  A    between atoms: C_17  and  N_18
REMARK    6  A    between atoms: N_18  and  S_19
REMARK    7  A    between atoms: S_19  and  C_22
REMARK                            x       y       z     vdW  Elec       q    Type
REMARK                         _______ _______ _______ _____ _____    ______ ____
ROOT
ATOM      1  C   UNL     1       1.053   8.807  20.443  0.00  0.00    +0.000 A 
ATOM      2  C   UNL     1       1.093   9.498  19.229  0.00  0.00    +0.000 A 
ATOM      3  C   UNL     1       1.879   9.005  18.184  0.00  0.00    +0.000 A 
ATOM      4  C   UNL     1       2.627   7.839  18.372  0.00  0.00    +0.000 A 
ATOM      5  C   UNL     1       2.586   7.156  19.592  0.00  0.00    +0.000 A 
ATOM      6  C   UNL     1       1.803   7.643  20.635  0.00  0.00    +0.000 A 
ENDROOT
BRANCH   1   8
ATOM      7  O   UNL     1       0.961   9.942  22.789  0.00  0.00    +0.000 OA
ATOM      8  S   UNL     1       0.056   9.427  21.783  0.00  0.00    +0.000 S 
ATOM      9  O   UNL     1      -0.934   8.422  22.108  0.00  0.00    +0.000 OA
BRANCH   8  10
ATOM     10  N   UNL     1      -0.704  10.769  21.114  0.00  0.00    +0.000 N 
ATOM     11  H   UNL     1      -1.340  10.519  20.360  0.00  0.00    +0.000 HD
BRANCH  10  12
ATOM     12  C   UNL     1      -1.082  11.858  21.956  0.00  0.00    +0.000 A 
ATOM     13  C   UNL     1      -0.340  13.037  21.985  0.00  0.00    +0.000 A 
ATOM     14  C   UNL     1      -0.723  14.074  22.841  0.00  0.00    +0.000 A 
ATOM     15  C   UNL     1      -1.847  13.931  23.658  0.00  0.00    +0.000 A 
ATOM     16  C   UNL     1      -2.583  12.751  23.614  0.00  0.00    +0.000 A 
ATOM     17 CL   UNL     1      -4.013  12.589  24.560  0.00  0.00    +0.000 Cl
ATOM     18  C   UNL     1      -2.191  11.701  22.787  0.00  0.00    +0.000 A 
ENDBRANCH  10  12
ENDBRANCH   8  10
ENDBRANCH   1   8
BRANCH   4  19
ATOM     19  O   UNL     1       3.421   7.360  17.367  0.00  0.00    +0.000 OA
ATOM     20  H   UNL     1       4.110   8.015  17.166  0.00  0.00    +0.000 HD
ENDBRANCH   4  19
BRANCH   5  21
ATOM     21  N   UNL     1       3.371   5.997  19.822  0.00  0.00    +0.000 N 
ATOM     22  H   UNL     1       4.284   6.095  20.257  0.00  0.00    +0.000 HD
BRANCH  21  23
ATOM     23  S   UNL     1       3.110   4.587  18.959  0.00  0.00    +0.000 S 
ATOM     24  O   UNL     1       3.212   3.501  19.921  0.00  0.00    +0.000 OA
ATOM     25  O   UNL     1       1.919   4.743  18.152  0.00  0.00    +0.000 OA
BRANCH  23  26
ATOM     26  C   UNL     1       4.499   4.436  17.855  0.00  0.00    +0.000 A 
ATOM     27  C   UNL     1       4.308   4.052  16.522  0.00  0.00    +0.000 A 
ATOM     28  C   UNL     1       5.397   4.032  15.648  0.00  0.00    +0.000 A 
ATOM     29  C   UNL     1       6.658   4.416  16.101  0.00  0.00    +0.000 A 
ATOM     30  F   UNL     1       7.696   4.403  15.258  0.00  0.00    +0.000 F 
ATOM     31  C   UNL     1       6.850   4.816  17.419  0.00  0.00    +0.000 A 
ATOM     32  C   UNL     1       5.766   4.830  18.297  0.00  0.00    +0.000 A 
ENDBRANCH  23  26
ENDBRANCH  21  23
ENDBRANCH   5  21
TORSDOF 7
ENDMDL
MODEL 2
REMARK VINA RESULT:      -8.0      4.125      8.768
REMARK  Name = 
REMARK  7 active torsions:
REMARK  status: ('A' for Active; 'I' for Inactive)
REMARK    1  A    between atoms: S_2  and  N_4
REMARK    2  A    between atoms: S_2  and  C_12
REMARK    3  A    between atoms: N_4  and  C_5
REMARK    4  A    between atoms: C_15  and  O_16
REMARK    5  A    between atoms: C_17  and  N_18
REMARK    6  A    between atoms: N_18  and  S_19
REMARK    7  A    between atoms: S_19  and  C_22
REMARK                            x       y       z     vdW  Elec       q    Type
REMARK                         _______ _______ _______ _____ _____    ______ ____
ROOT
ATOM      1  C   UNL     1       1.900   5.231  19.462  0.00  0.00    +0.000 A 
ATOM      2  C   UNL     1       2.064   5.652  18.140  0.00  0.00    +0.000 A 
ATOM      3  C   UNL     1       2.197   7.015  17.865  0.00  0.00    +0.000 A 
ATOM      4  C   UNL     1       2.145   7.939  18.911  0.00  0.00    +0.000 A 
ATOM      5  C   UNL     1       1.974   7.512  20.232  0.00  0.00    +0.000 A 
ATOM      6  C   UNL     1       1.844   6.154  20.511  0.00  0.00    +0.000 A 
ENDROOT
BRANCH   1   8
ATOM      7  O   UNL     1       1.033   2.889  18.709  0.00  0.00    +0.000 OA
ATOM      8  S   UNL     1       1.728   3.495  19.825  0.00  0.00    +0.000 S 
ATOM      9  O   UNL     1       1.231   3.366  21.179  0.00  0.00    +0.000 OA
BRANCH   8  10
ATOM     10  N   UNL     1       3.308   2.924  19.752  0.00  0.00    +0.000 N 
ATOM     11  H   UNL     1       3.367   1.923  19.923  0.00  0.00    +0.000 HD
BRANCH  10  12
ATOM     12  C   UNL     1       4.216   3.480  18.802  0.00  0.00    +0.000 A 
ATOM     13  C   UNL     1       4.104   3.193  17.443  0.00  0.00    +0.000 A 
ATOM     14  C   UNL     1       5.027   3.734  16.543  0.00  0.00    +0.000 A 
ATOM     15  C   UNL     1       6.052   4.563  17.004  0.00  0.00    +0.000 A 
ATOM     16  C   UNL     1       6.148   4.849  18.362  0.00  0.00    +0.000 A 
ATOM     17 CL   UNL     1       7.362   5.928  18.935  0.00  0.00    +0.000 Cl
ATOM     18  C   UNL     1       5.252   4.289  19.269  0.00  0.00    +0.000 A 
ENDBRANCH  10  12
ENDBRANCH   8  10
ENDBRANCH   1   8
BRANCH   4  19
ATOM     19  O   UNL     1       2.247   9.279  18.654  0.00  0.00    +0.000 OA
ATOM     20  H   UNL     1       2.778   9.409  17.850  0.00  0.00    +0.000 HD
ENDBRANCH   4  19
BRANCH   5  21
ATOM     21  N   UNL     1       1.873   8.434  21.306  0.00  0.00    +0.000 N 
ATOM     22  H   UNL     1       2.629   8.491  21.982  0.00  0.00    +0.000 HD
BRANCH  21  23
ATOM     23  S   UNL     1       0.390   9.031  21.800  0.00  0.00    +0.000 S 
ATOM     24  O   UNL     1      -0.571   7.964  21.569  0.00  0.00    +0.000 OA
ATOM     25  O   UNL     1       0.533   9.618  23.114  0.00  0.00    +0.000 OA
BRANCH  23  26
ATOM     26  C   UNL     1      -0.004  10.341  20.659  0.00  0.00    +0.000 A 
ATOM     27  C   UNL     1       0.669  11.567  20.727  0.00  0.00    +0.000 A 
ATOM     28  C   UNL     1       0.414  12.547  19.764  0.00  0.00    +0.000 A 
ATOM     29  C   UNL     1      -0.487  12.288  18.733  0.00  0.00    +0.000 A 
ATOM     30  F   UNL     1      -0.721  13.227  17.810  0.00  0.00    +0.000 F 
ATOM     31  C   UNL     1      -1.144  11.065  18.650  0.00  0.00    +0.000 A 
ATOM     32  C   UNL     1      -0.898  10.088  19.614  0.00  0.00    +0.000 A 
ENDBRANCH  23  26
ENDBRANCH  21  23
ENDBRANCH   5  21
TORSDOF 7
ENDMDL
MODEL 3
REMARK VINA RESULT:      -7.9      7.411      9.986
REMARK  Name = 
REMARK  7 active torsions:
REMARK  status: ('A' for Active; 'I' for Inactive)
REMARK    1  A    between atoms: S_2  and  N_4
REMARK    2  A    between atoms: S_2  and  C_12
REMARK    3  A    between atoms: N_4  and  C_5
REMARK    4  A    between atoms: C_15  and  O_16
REMARK    5  A    between atoms: C_17  and  N_18
REMARK    6  A    between atoms: N_18  and  S_19
REMARK    7  A    between atoms: S_19  and  C_22
REMARK                            x       y       z     vdW  Elec       q    Type
REMARK                         _______ _______ _______ _____ _____    ______ ____
ROOT
ATOM      1  C   UNL     1      -6.627  12.411  20.434  0.00  0.00    +0.000 A 
ATOM      2  C   UNL     1      -7.825  12.250  21.136  0.00  0.00    +0.000 A 
ATOM      3  C   UNL     1      -7.916  12.708  22.453  0.00  0.00    +0.000 A 
ATOM      4  C   UNL     1      -6.806  13.304  23.056  0.00  0.00    +0.000 A 
ATOM      5  C   UNL     1      -5.608  13.457  22.350  0.00  0.00    +0.000 A 
ATOM      6  C   UNL     1      -5.513  13.004  21.037  0.00  0.00    +0.000 A 
ENDROOT
BRANCH   1   8
ATOM      7  O   UNL     1      -7.510  12.517  17.983  0.00  0.00    +0.000 OA
ATOM      8  S   UNL     1      -6.497  11.829  18.756  0.00  0.00    +0.000 S 
ATOM      9  O   UNL     1      -6.428  10.384  18.786  0.00  0.00    +0.000 OA
BRANCH   8  10
ATOM     10  N   UNL     1      -5.022  12.451  18.241  0.00  0.00    +0.000 N 
ATOM     11  H   UNL     1      -4.617  13.098  18.914  0.00  0.00    +0.000 HD
BRANCH  10  12
ATOM     12  C   UNL     1      -4.123  11.620  17.509  0.00  0.00    +0.000 A 
ATOM     13  C   UNL     1      -4.424  11.197  16.215  0.00  0.00    +0.000 A 
ATOM     14  C   UNL     1      -3.532  10.362  15.536  0.00  0.00    +0.000 A 
ATOM     15  C   UNL     1      -2.344   9.958  16.148  0.00  0.00    +0.000 A 
ATOM     16  C   UNL     1      -2.052  10.392  17.438  0.00  0.00    +0.000 A 
ATOM     17 CL   UNL     1      -0.558   9.962  18.177  0.00  0.00    +0.000 Cl
ATOM     18  C   UNL     1      -2.949  11.200  18.133  0.00  0.00    +0.000 A 
ENDBRANCH  10  12
ENDBRANCH   8  10
ENDBRANCH   1   8
BRANCH   4  19
ATOM     19  O   UNL     1      -6.874  13.733  24.353  0.00  0.00    +0.000 OA
ATOM     20  H   UNL     1      -7.804  13.879  24.592  0.00  0.00    +0.000 HD
ENDBRANCH   4  19
BRANCH   5  21
ATOM     21  N   UNL     1      -4.454  14.018  22.955  0.00  0.00    +0.000 N 
ATOM     22  H   UNL     1      -4.043  14.856  22.555  0.00  0.00    +0.000 HD
BRANCH  21  23
ATOM     23  S   UNL     1      -3.459  13.101  23.940  0.00  0.00    +0.000 S 
ATOM     24  O   UNL     1      -2.832  14.036  24.861  0.00  0.00    +0.000 OA
ATOM     25  O   UNL     1      -4.205  11.967  24.439  0.00  0.00    +0.000 OA
BRANCH  23  26
ATOM     26  C   UNL     1      -2.173  12.479  22.876  0.00  0.00    +0.000 A 
ATOM     27  C   UNL     1      -1.736  13.229  21.778  0.00  0.00    +0.000 A 
ATOM     28  C   UNL     1      -0.662  12.769  21.012  0.00  0.00    +0.000 A 
ATOM     29  C   UNL     1      -0.021  11.582  21.359  0.00  0.00    +0.000 A 
ATOM     30  F   UNL     1       1.012  11.149  20.628  0.00  0.00    +0.000 F 
ATOM     31  C   UNL     1      -0.439  10.841  22.460  0.00  0.00    +0.000 A 
ATOM     32  C   UNL     1      -1.516  11.294  23.223  0.00  0.00    +0.000 A 
ENDBRANCH  23  26
ENDBRANCH  21  23
ENDBRANCH   5  21
TORSDOF 7
ENDMDL
MODEL 4
REMARK VINA RESULT:      -7.8      0.792      1.035
REMARK  Name = 
REMARK  7 active torsions:
REMARK  status: ('A' for Active; 'I' for Inactive)
REMARK    1  A    between atoms: S_2  and  N_4
REMARK    2  A    between atoms: S_2  and  C_12
REMARK    3  A    between atoms: N_4  and  C_5
REMARK    4  A    between atoms: C_15  and  O_16
REMARK    5  A    between atoms: C_17  and  N_18
REMARK    6  A    between atoms: N_18  and  S_19
REMARK    7  A    between atoms: S_19  and  C_22
REMARK                            x       y       z     vdW  Elec       q    Type
REMARK                         _______ _______ _______ _____ _____    ______ ____
ROOT
ATOM      1  C   UNL     1       1.080   8.875  20.734  0.00  0.00    +0.000 A 
ATOM      2  C   UNL     1       1.019   9.540  19.507  0.00  0.00    +0.000 A 
ATOM      3  C   UNL     1       1.701   9.015  18.407  0.00  0.00    +0.000 A 
ATOM      4  C   UNL     1       2.449   7.844  18.551  0.00  0.00    +0.000 A 
ATOM      5  C   UNL     1       2.511   7.186  19.785  0.00  0.00    +0.000 A 
ATOM      6  C   UNL     1       1.831   7.705  20.883  0.00  0.00    +0.000 A 
ENDROOT
BRANCH   1   8
ATOM      7  O   UNL     1       1.146   9.540  23.255  0.00  0.00    +0.000 OA
ATOM      8  S   UNL     1       0.217   9.536  22.145  0.00  0.00    +0.000 S 
ATOM      9  O   UNL     1      -1.064   8.868  22.241  0.00  0.00    +0.000 OA
BRANCH   8  10
ATOM     10  N   UNL     1      -0.022  11.149  21.736  0.00  0.00    +0.000 N 
ATOM     11  H   UNL     1       0.596  11.455  20.987  0.00  0.00    +0.000 HD
BRANCH  10  12
ATOM     12  C   UNL     1      -1.339  11.697  21.763  0.00  0.00    +0.000 A 
ATOM     13  C   UNL     1      -1.968  12.121  20.594  0.00  0.00    +0.000 A 
ATOM     14  C   UNL     1      -3.249  12.677  20.660  0.00  0.00    +0.000 A 
ATOM     15  C   UNL     1      -3.897  12.801  21.891  0.00  0.00    +0.000 A 
ATOM     16  C   UNL     1      -3.261  12.367  23.050  0.00  0.00    +0.000 A 
ATOM     17 CL   UNL     1      -4.077  12.446  24.565  0.00  0.00    +0.000 Cl
ATOM     18  C   UNL     1      -1.973  11.840  22.997  0.00  0.00    +0.000 A 
ENDBRANCH  10  12
ENDBRANCH   8  10
ENDBRANCH   1   8
BRANCH   4  19
ATOM     19  O   UNL     1       3.143   7.334  17.489  0.00  0.00    +0.000 OA
ATOM     20  H   UNL     1       3.357   8.054  16.873  0.00  0.00    +0.000 HD
ENDBRANCH   4  19
BRANCH   5  21
ATOM     21  N   UNL     1       3.300   6.021  19.968  0.00  0.00    +0.000 N 
ATOM     22  H   UNL     1       4.234   6.113  20.358  0.00  0.00    +0.000 HD
BRANCH  21  23
ATOM     23  S   UNL     1       2.988   4.619  19.110  0.00  0.00    +0.000 S 
ATOM     24  O   UNL     1       3.076   3.531  20.071  0.00  0.00    +0.000 OA
ATOM     25  O   UNL     1       1.791   4.806  18.320  0.00  0.00    +0.000 OA
BRANCH  23  26
ATOM     26  C   UNL     1       4.357   4.430  17.986  0.00  0.00    +0.000 A 
ATOM     27  C   UNL     1       4.135   4.071  16.651  0.00  0.00    +0.000 A 
ATOM     28  C   UNL     1       5.212   4.022  15.762  0.00  0.00    +0.000 A 
ATOM     29  C   UNL     1       6.491   4.353  16.203  0.00  0.00    +0.000 A 
ATOM     30  F   UNL     1       7.517   4.313  15.346  0.00  0.00    +0.000 F 
ATOM     31  C   UNL     1       6.715   4.729  17.523  0.00  0.00    +0.000 A 
ATOM     32  C   UNL     1       5.643   4.772  18.416  0.00  0.00    +0.000 A 
ENDBRANCH  23  26
ENDBRANCH  21  23
ENDBRANCH   5  21
TORSDOF 7
ENDMDL
MODEL 5
REMARK VINA RESULT:      -7.8      7.078      9.447
REMARK  Name = 
REMARK  7 active torsions:
REMARK  status: ('A' for Active; 'I' for Inactive)
REMARK    1  A    between atoms: S_2  and  N_4
REMARK    2  A    between atoms: S_2  and  C_12
REMARK    3  A    between atoms: N_4  and  C_5
REMARK    4  A    between atoms: C_15  and  O_16
REMARK    5  A    between atoms: C_17  and  N_18
REMARK    6  A    between atoms: N_18  and  S_19
REMARK    7  A    between atoms: S_19  and  C_22
REMARK                            x       y       z     vdW  Elec       q    Type
REMARK                         _______ _______ _______ _____ _____    ______ ____
ROOT
ATOM      1  C   UNL     1      -5.995  12.429  20.729  0.00  0.00    +0.000 A 
ATOM      2  C   UNL     1      -6.964  12.240  21.718  0.00  0.00    +0.000 A 
ATOM      3  C   UNL     1      -6.701  12.656  23.026  0.00  0.00    +0.000 A 
ATOM      4  C   UNL     1      -5.468  13.236  23.332  0.00  0.00    +0.000 A 
ATOM      5  C   UNL     1      -4.499  13.417  22.338  0.00  0.00    +0.000 A 
ATOM      6  C   UNL     1      -4.758  13.006  21.033  0.00  0.00    +0.000 A 
ENDROOT
BRANCH   1   8
ATOM      7  O   UNL     1      -7.491  12.616  18.602  0.00  0.00    +0.000 OA
ATOM      8  S   UNL     1      -6.318  11.902  19.059  0.00  0.00    +0.000 S 
ATOM      9  O   UNL     1      -6.258  10.456  19.024  0.00  0.00    +0.000 OA
BRANCH   8  10
ATOM     10  N   UNL     1      -5.024  12.537  18.193  0.00  0.00    +0.000 N 
ATOM     11  H   UNL     1      -4.708  13.430  18.565  0.00  0.00    +0.000 HD
BRANCH  10  12
ATOM     12  C   UNL     1      -4.031  11.660  17.663  0.00  0.00    +0.000 A 
ATOM     13  C   UNL     1      -3.001  11.170  18.464  0.00  0.00    +0.000 A 
ATOM     14  C   UNL     1      -2.029  10.333  17.906  0.00  0.00    +0.000 A 
ATOM     15  C   UNL     1      -2.095   9.986  16.555  0.00  0.00    +0.000 A 
ATOM     16  C   UNL     1      -3.132  10.477  15.767  0.00  0.00    +0.000 A 
ATOM     17 CL   UNL     1      -3.267   9.998  14.119  0.00  0.00    +0.000 Cl
ATOM     18  C   UNL     1      -4.087  11.335  16.308  0.00  0.00    +0.000 A 
ENDBRANCH  10  12
ENDBRANCH   8  10
ENDBRANCH   1   8
BRANCH   4  19
ATOM     19  O   UNL     1      -5.187  13.623  24.613  0.00  0.00    +0.000 OA
ATOM     20  H   UNL     1      -4.805  14.517  24.600  0.00  0.00    +0.000 HD
ENDBRANCH   4  19
BRANCH   5  21
ATOM     21  N   UNL     1      -3.223  13.962  22.633  0.00  0.00    +0.000 N 
ATOM     22  H   UNL     1      -3.014  14.915  22.348  0.00  0.00    +0.000 HD
BRANCH  21  23
ATOM     23  S   UNL     1      -1.907  12.975  22.941  0.00  0.00    +0.000 S 
ATOM     24  O   UNL     1      -1.061  13.709  23.866  0.00  0.00    +0.000 OA
ATOM     25  O   UNL     1      -2.381  11.649  23.273  0.00  0.00    +0.000 OA
BRANCH  23  26
ATOM     26  C   UNL     1      -1.021  12.864  21.400  0.00  0.00    +0.000 A 
ATOM     27  C   UNL     1      -1.209  13.828  20.402  0.00  0.00    +0.000 A 
ATOM     28  C   UNL     1      -0.435  13.778  19.240  0.00  0.00    +0.000 A 
ATOM     29  C   UNL     1       0.533  12.786  19.094  0.00  0.00    +0.000 A 
ATOM     30  F   UNL     1       1.277  12.747  17.984  0.00  0.00    +0.000 F 
ATOM     31  C   UNL     1       0.737  11.837  20.090  0.00  0.00    +0.000 A 
ATOM     32  C   UNL     1      -0.040  11.879  21.248  0.00  0.00    +0.000 A 
ENDBRANCH  23  26
ENDBRANCH  21  23
ENDBRANCH   5  21
TORSDOF 7
ENDMDL
MODEL 6
REMARK VINA RESULT:      -7.8      2.741      3.683
REMARK  Name = 
REMARK  7 active torsions:
REMARK  status: ('A' for Active; 'I' for Inactive)
REMARK    1  A    between atoms: S_2  and  N_4
REMARK    2  A    between atoms: S_2  and  C_12
REMARK    3  A    between atoms: N_4  and  C_5
REMARK    4  A    between atoms: C_15  and  O_16
REMARK    5  A    between atoms: C_17  and  N_18
REMARK    6  A    between atoms: N_18  and  S_19
REMARK    7  A    between atoms: S_19  and  C_22
REMARK                            x       y       z     vdW  Elec       q    Type
REMARK                         _______ _______ _______ _____ _____    ______ ____
ROOT
ATOM      1  C   UNL     1       1.688   7.101  20.454  0.00  0.00    +0.000 A 
ATOM      2  C   UNL     1       1.450   5.844  21.015  0.00  0.00    +0.000 A 
ATOM      3  C   UNL     1       2.025   4.712  20.431  0.00  0.00    +0.000 A 
ATOM      4  C   UNL     1       2.813   4.849  19.285  0.00  0.00    +0.000 A 
ATOM      5  C   UNL     1       3.042   6.111  18.725  0.00  0.00    +0.000 A 
ATOM      6  C   UNL     1       2.473   7.242  19.305  0.00  0.00    +0.000 A 
ENDROOT
BRANCH   1   8
ATOM      7  O   UNL     1       1.847   8.990  22.244  0.00  0.00    +0.000 OA
ATOM      8  S   UNL     1       0.959   8.551  21.188  0.00  0.00    +0.000 S 
ATOM      9  O   UNL     1      -0.437   8.270  21.448  0.00  0.00    +0.000 OA
BRANCH   8  10
ATOM     10  N   UNL     1       1.081   9.707  19.972  0.00  0.00    +0.000 N 
ATOM     11  H   UNL     1       1.782   9.465  19.275  0.00  0.00    +0.000 HD
BRANCH  10  12
ATOM     12  C   UNL     1      -0.092  10.377  19.515  0.00  0.00    +0.000 A 
ATOM     13  C   UNL     1      -0.698  11.373  20.280  0.00  0.00    +0.000 A 
ATOM     14  C   UNL     1      -1.862  11.991  19.814  0.00  0.00    +0.000 A 
ATOM     15  C   UNL     1      -2.412  11.615  18.586  0.00  0.00    +0.000 A 
ATOM     16  C   UNL     1      -1.794  10.625  17.829  0.00  0.00    +0.000 A 
ATOM     17 CL   UNL     1      -2.419  10.204  16.280  0.00  0.00    +0.000 Cl
ATOM     18  C   UNL     1      -0.652   9.983  18.299  0.00  0.00    +0.000 A 
ENDBRANCH  10  12
ENDBRANCH   8  10
ENDBRANCH   1   8
BRANCH   4  19
ATOM     19  O   UNL     1       3.359   3.747  18.688  0.00  0.00    +0.000 OA
ATOM     20  H   UNL     1       3.755   4.008  17.840  0.00  0.00    +0.000 HD
ENDBRANCH   4  19
BRANCH   5  21
ATOM     21  N   UNL     1       3.800   6.271  17.537  0.00  0.00    +0.000 N 
ATOM     22  H   UNL     1       3.342   6.153  16.638  0.00  0.00    +0.000 HD
BRANCH  21  23
ATOM     23  S   UNL     1       5.467   6.122  17.546  0.00  0.00    +0.000 S 
ATOM     24  O   UNL     1       5.993   7.470  17.403  0.00  0.00    +0.000 OA
ATOM     25  O   UNL     1       5.861   5.295  18.666  0.00  0.00    +0.000 OA
BRANCH  23  26
ATOM     26  C   UNL     1       5.877   5.243  16.052  0.00  0.00    +0.000 A 
ATOM     27  C   UNL     1       4.967   4.344  15.484  0.00  0.00    +0.000 A 
ATOM     28  C   UNL     1       5.267   3.737  14.262  0.00  0.00    +0.000 A 
ATOM     29  C   UNL     1       6.457   4.049  13.607  0.00  0.00    +0.000 A 
ATOM     30  F   UNL     1       6.736   3.471  12.434  0.00  0.00    +0.000 F 
ATOM     31  C   UNL     1       7.357   4.956  14.157  0.00  0.00    +0.000 A 
ATOM     32  C   UNL     1       7.064   5.557  15.381  0.00  0.00    +0.000 A 
ENDBRANCH  23  26
ENDBRANCH  21  23
ENDBRANCH   5  21
TORSDOF 7
ENDMDL
MODEL 7
REMARK VINA RESULT:      -7.7      5.255     10.394
REMARK  Name = 
REMARK  7 active torsions:
REMARK  status: ('A' for Active; 'I' for Inactive)
REMARK    1  A    between atoms: S_2  and  N_4
REMARK    2  A    between atoms: S_2  and  C_12
REMARK    3  A    between atoms: N_4  and  C_5
REMARK    4  A    between atoms: C_15  and  O_16
REMARK    5  A    between atoms: C_17  and  N_18
REMARK    6  A    between atoms: N_18  and  S_19
REMARK    7  A    between atoms: S_19  and  C_22
REMARK                            x       y       z     vdW  Elec       q    Type
REMARK                         _______ _______ _______ _____ _____    ______ ____
ROOT
ATOM      1  C   UNL     1       4.440   6.479  17.506  0.00  0.00    +0.000 A 
ATOM      2  C   UNL     1       4.638   5.648  18.611  0.00  0.00    +0.000 A 
ATOM      3  C   UNL     1       3.672   5.605  19.620  0.00  0.00    +0.000 A 
ATOM      4  C   UNL     1       2.531   6.404  19.518  0.00  0.00    +0.000 A 
ATOM      5  C   UNL     1       2.341   7.238  18.411  0.00  0.00    +0.000 A 
ATOM      6  C   UNL     1       3.300   7.283  17.403  0.00  0.00    +0.000 A 
ENDROOT
BRANCH   1   8
ATOM      7  O   UNL     1       6.918   6.932  16.830  0.00  0.00    +0.000 OA
ATOM      8  S   UNL     1       5.665   6.545  16.215  0.00  0.00    +0.000 S 
ATOM      9  O   UNL     1       5.111   7.292  15.106  0.00  0.00    +0.000 OA
BRANCH   8  10
ATOM     10  N   UNL     1       5.849   4.933  15.769  0.00  0.00    +0.000 N 
ATOM     11  H   UNL     1       5.135   4.334  16.178  0.00  0.00    +0.000 HD
BRANCH  10  12
ATOM     12  C   UNL     1       6.300   4.612  14.455  0.00  0.00    +0.000 A 
ATOM     13  C   UNL     1       7.462   5.178  13.932  0.00  0.00    +0.000 A 
ATOM     14  C   UNL     1       7.861   4.861  12.630  0.00  0.00    +0.000 A 
ATOM     15  C   UNL     1       7.102   3.977  11.860  0.00  0.00    +0.000 A 
ATOM     16  C   UNL     1       5.947   3.413  12.395  0.00  0.00    +0.000 A 
ATOM     17 CL   UNL     1       5.043   2.266  11.484  0.00  0.00    +0.000 Cl
ATOM     18  C   UNL     1       5.526   3.747  13.680  0.00  0.00    +0.000 A 
ENDBRANCH  10  12
ENDBRANCH   8  10
ENDBRANCH   1   8
BRANCH   4  19
ATOM     19  O   UNL     1       1.590   6.391  20.510  0.00  0.00    +0.000 OA
ATOM     20  H   UNL     1       1.645   5.549  20.991  0.00  0.00    +0.000 HD
ENDBRANCH   4  19
BRANCH   5  21
ATOM     21  N   UNL     1       1.213   8.093  18.308  0.00  0.00    +0.000 N 
ATOM     22  H   UNL     1       0.517   7.909  17.590  0.00  0.00    +0.000 HD
BRANCH  21  23
ATOM     23  S   UNL     1       1.239   9.644  18.935  0.00  0.00    +0.000 S 
ATOM     24  O   UNL     1       1.289   9.492  20.381  0.00  0.00    +0.000 OA
ATOM     25  O   UNL     1       2.248  10.415  18.243  0.00  0.00    +0.000 OA
BRANCH  23  26
ATOM     26  C   UNL     1      -0.349  10.347  18.540  0.00  0.00    +0.000 A 
ATOM     27  C   UNL     1      -1.149   9.778  17.542  0.00  0.00    +0.000 A 
ATOM     28  C   UNL     1      -2.430  10.285  17.313  0.00  0.00    +0.000 A 
ATOM     29  C   UNL     1      -2.910  11.335  18.093  0.00  0.00    +0.000 A 
ATOM     30  F   UNL     1      -4.140  11.812  17.875  0.00  0.00    +0.000 F 
ATOM     31  C   UNL     1      -2.127  11.892  19.099  0.00  0.00    +0.000 A 
ATOM     32  C   UNL     1      -0.844  11.393  19.325  0.00  0.00    +0.000 A 
ENDBRANCH  23  26
ENDBRANCH  21  23
ENDBRANCH   5  21
TORSDOF 7
ENDMDL
MODEL 8
REMARK VINA RESULT:      -7.7      5.120      6.961
REMARK  Name = 
REMARK  7 active torsions:
REMARK  status: ('A' for Active; 'I' for Inactive)
REMARK    1  A    between atoms: S_2  and  N_4
REMARK    2  A    between atoms: S_2  and  C_12
REMARK    3  A    between atoms: N_4  and  C_5
REMARK    4  A    between atoms: C_15  and  O_16
REMARK    5  A    between atoms: C_17  and  N_18
REMARK    6  A    between atoms: N_18  and  S_19
REMARK    7  A    between atoms: S_19  and  C_22
REMARK                            x       y       z     vdW  Elec       q    Type
REMARK                         _______ _______ _______ _____ _____    ______ ____
ROOT
ATOM      1  C   UNL     1       4.823   3.763  18.500  0.00  0.00    +0.000 A 
ATOM      2  C   UNL     1       5.191   4.665  19.501  0.00  0.00    +0.000 A 
ATOM      3  C   UNL     1       6.296   5.497  19.302  0.00  0.00    +0.000 A 
ATOM      4  C   UNL     1       7.028   5.404  18.116  0.00  0.00    +0.000 A 
ATOM      5  C   UNL     1       6.657   4.494  17.120  0.00  0.00    +0.000 A 
ATOM      6  C   UNL     1       5.555   3.664  17.313  0.00  0.00    +0.000 A 
ENDROOT
BRANCH   1   8
ATOM      7  O   UNL     1       3.339   2.402  20.157  0.00  0.00    +0.000 OA
ATOM      8  S   UNL     1       3.418   2.696  18.742  0.00  0.00    +0.000 S 
ATOM      9  O   UNL     1       3.483   1.636  17.757  0.00  0.00    +0.000 OA
BRANCH   8  10
ATOM     10  N   UNL     1       2.108   3.694  18.404  0.00  0.00    +0.000 N 
ATOM     11  H   UNL     1       1.233   3.179  18.339  0.00  0.00    +0.000 HD
BRANCH  10  12
ATOM     12  C   UNL     1       2.055   5.004  18.968  0.00  0.00    +0.000 A 
ATOM     13  C   UNL     1       1.786   5.196  20.322  0.00  0.00    +0.000 A 
ATOM     14  C   UNL     1       1.716   6.494  20.836  0.00  0.00    +0.000 A 
ATOM     15  C   UNL     1       1.921   7.593  19.998  0.00  0.00    +0.000 A 
ATOM     16  C   UNL     1       2.196   7.387  18.649  0.00  0.00    +0.000 A 
ATOM     17 CL   UNL     1       2.524   8.728  17.620  0.00  0.00    +0.000 Cl
ATOM     18  C   UNL     1       2.238   6.099  18.122  0.00  0.00    +0.000 A 
ENDBRANCH  10  12
ENDBRANCH   8  10
ENDBRANCH   1   8
BRANCH   4  19
ATOM     19  O   UNL     1       8.127   6.193  17.920  0.00  0.00    +0.000 OA
ATOM     20  H   UNL     1       8.871   5.838  18.434  0.00  0.00    +0.000 HD
ENDBRANCH   4  19
BRANCH   5  21
ATOM     21  N   UNL     1       7.411   4.349  15.927  0.00  0.00    +0.000 N 
ATOM     22  H   UNL     1       8.345   3.954  15.977  0.00  0.00    +0.000 HD
BRANCH  21  23
ATOM     23  S   UNL     1       7.060   5.254  14.564  0.00  0.00    +0.000 S 
ATOM     24  O   UNL     1       6.002   6.173  14.952  0.00  0.00    +0.000 OA
ATOM     25  O   UNL     1       8.295   5.753  13.999  0.00  0.00    +0.000 OA
BRANCH  23  26
ATOM     26  C   UNL     1       6.353   4.109  13.396  0.00  0.00    +0.000 A 
ATOM     27  C   UNL     1       4.964   4.006  13.256  0.00  0.00    +0.000 A 
ATOM     28  C   UNL     1       4.431   3.173  12.270  0.00  0.00    +0.000 A 
ATOM     29  C   UNL     1       5.283   2.472  11.419  0.00  0.00    +0.000 A 
ATOM     30  F   UNL     1       4.768   1.682  10.471  0.00  0.00    +0.000 F 
ATOM     31  C   UNL     1       6.664   2.585  11.541  0.00  0.00    +0.000 A 
ATOM     32  C   UNL     1       7.200   3.410  12.531  0.00  0.00    +0.000 A 
ENDBRANCH  23  26
ENDBRANCH  21  23
ENDBRANCH   5  21
TORSDOF 7
ENDMDL
MODEL 9
REMARK VINA RESULT:      -7.7      5.786      8.946
REMARK  Name = 
REMARK  7 active torsions:
REMARK  status: ('A' for Active; 'I' for Inactive)
REMARK    1  A    between atoms: S_2  and  N_4
REMARK    2  A    between atoms: S_2  and  C_12
REMARK    3  A    between atoms: N_4  and  C_5
REMARK    4  A    between atoms: C_15  and  O_16
REMARK    5  A    between atoms: C_17  and  N_18
REMARK    6  A    between atoms: N_18  and  S_19
REMARK    7  A    between atoms: S_19  and  C_22
REMARK                            x       y       z     vdW  Elec       q    Type
REMARK                         _______ _______ _______ _____ _____    ______ ____
ROOT
ATOM      1  C   UNL     1       5.185   5.927  17.906  0.00  0.00    +0.000 A 
ATOM      2  C   UNL     1       4.506   6.843  17.098  0.00  0.00    +0.000 A 
ATOM      3  C   UNL     1       3.293   7.379  17.539  0.00  0.00    +0.000 A 
ATOM      4  C   UNL     1       2.767   6.981  18.770  0.00  0.00    +0.000 A 
ATOM      5  C   UNL     1       3.450   6.059  19.571  0.00  0.00    +0.000 A 
ATOM      6  C   UNL     1       4.660   5.524  19.138  0.00  0.00    +0.000 A 
ENDROOT
BRANCH   1   8
ATOM      7  O   UNL     1       7.336   4.575  18.493  0.00  0.00    +0.000 OA
ATOM      8  S   UNL     1       6.731   5.235  17.356  0.00  0.00    +0.000 S 
ATOM      9  O   UNL     1       7.441   6.254  16.613  0.00  0.00    +0.000 OA
BRANCH   8  10
ATOM     10  N   UNL     1       6.257   4.007  16.309  0.00  0.00    +0.000 N 
ATOM     11  H   UNL     1       5.390   3.561  16.601  0.00  0.00    +0.000 HD
BRANCH  10  12
ATOM     12  C   UNL     1       6.480   4.149  14.907  0.00  0.00    +0.000 A 
ATOM     13  C   UNL     1       7.583   4.848  14.420  0.00  0.00    +0.000 A 
ATOM     14  C   UNL     1       7.758   4.990  13.040  0.00  0.00    +0.000 A 
ATOM     15  C   UNL     1       6.834   4.431  12.155  0.00  0.00    +0.000 A 
ATOM     16  C   UNL     1       5.740   3.730  12.654  0.00  0.00    +0.000 A 
ATOM     17 CL   UNL     1       4.633   2.972  11.573  0.00  0.00    +0.000 Cl
ATOM     18  C   UNL     1       5.542   3.609  14.027  0.00  0.00    +0.000 A 
ENDBRANCH  10  12
ENDBRANCH   8  10
ENDBRANCH   1   8
BRANCH   4  19
ATOM     19  O   UNL     1       1.569   7.478  19.201  0.00  0.00    +0.000 OA
ATOM     20  H   UNL     1       1.639   7.708  20.142  0.00  0.00    +0.000 HD
ENDBRANCH   4  19
BRANCH   5  21
ATOM     21  N   UNL     1       2.914   5.605  20.804  0.00  0.00    +0.000 N 
ATOM     22  H   UNL     1       3.367   5.879  21.671  0.00  0.00    +0.000 HD
BRANCH  21  23
ATOM     23  S   UNL     1       1.927   4.256  20.877  0.00  0.00    +0.000 S 
ATOM     24  O   UNL     1       2.099   3.703  22.211  0.00  0.00    +0.000 OA
ATOM     25  O   UNL     1       0.611   4.608  20.391  0.00  0.00    +0.000 OA
BRANCH  23  26
ATOM     26  C   UNL     1       2.632   3.085  19.735  0.00  0.00    +0.000 A 
ATOM     27  C   UNL     1       2.149   2.993  18.424  0.00  0.00    +0.000 A 
ATOM     28  C   UNL     1       2.778   2.137  17.516  0.00  0.00    +0.000 A 
ATOM     29  C   UNL     1       3.892   1.401  17.914  0.00  0.00    +0.000 A 
ATOM     30  F   UNL     1       4.495   0.589  17.039  0.00  0.00    +0.000 F 
ATOM     31  C   UNL     1       4.388   1.502  19.210  0.00  0.00    +0.000 A 
ATOM     32  C   UNL     1       3.758   2.350  20.121  0.00  0.00    +0.000 A 
ENDBRANCH  23  26
ENDBRANCH  21  23
ENDBRANCH   5  21
TORSDOF 7
ENDMDL
