MODEL 1
REMARK VINA RESULT:      -9.2      0.000      0.000
REMARK  Name = 
REMARK  9 active torsions:
REMARK  status: ('A' for Active; 'I' for Inactive)
REMARK    1  A    between atoms: C_1  and  O_2
REMARK    2  A    between atoms: O_2  and  C_3
REMARK    3  A    between atoms: C_8  and  C_9
REMARK    4  A    between atoms: N_11  and  C_12
REMARK    5  A    between atoms: C_12  and  C_13
REMARK    6  A    between atoms: C_20  and  C_21
REMARK    7  A    between atoms: N_23  and  C_24
REMARK    8  A    between atoms: C_27  and  S_28
REMARK    9  A    between atoms: S_28  and  N_29
REMARK                            x       y       z     vdW  Elec       q    Type
REMARK                         _______ _______ _______ _____ _____    ______ ____
ROOT
ATOM      1  C   UNL     1       3.895   5.224  18.139  0.00  0.00    +0.000 A 
ATOM      2  N   UNL     1       4.986   4.565  17.700  0.00  0.00    +0.000 NA
ATOM      3  N   UNL     1       5.634   5.449  16.921  0.00  0.00    +0.000 N 
ATOM      4  C   UNL     1       4.954   6.619  16.743  0.00  0.00    +0.000 A 
ATOM      5  C   UNL     1       3.871   6.554  17.601  0.00  0.00    +0.000 A 
ENDROOT
BRANCH   1  11
ATOM      6  C   UNL     1       1.944   3.671  18.604  0.00  0.00    +0.000 A 
ATOM      7  C   UNL     1       1.007   3.162  19.516  0.00  0.00    +0.000 A 
ATOM      8  C   UNL     1       1.113   3.446  20.879  0.00  0.00    +0.000 A 
ATOM      9  C   UNL     1       2.150   4.246  21.342  0.00  0.00    +0.000 A 
ATOM     10  C   UNL     1       3.045   4.816  20.435  0.00  0.00    +0.000 A 
ATOM     11  C   UNL     1       2.943   4.561  19.055  0.00  0.00    +0.000 A 
BRANCH   6  13
ATOM     12  C   UNL     1       2.731   2.124  16.952  0.00  0.00    +0.000 C 
ATOM     13  O   UNL     1       1.992   3.290  17.286  0.00  0.00    +0.000 OA
ENDBRANCH   6  13
ENDBRANCH   1  11
BRANCH   5  14
ATOM     14  C   UNL     1       2.953   7.628  17.945  0.00  0.00    +0.000 C 
ATOM     15  O   UNL     1       2.747   8.534  17.146  0.00  0.00    +0.000 OA
ATOM     16  N   UNL     1       2.400   7.533  19.217  0.00  0.00    +0.000 N 
ATOM     17  H   UNL     1       2.748   6.792  19.810  0.00  0.00    +0.000 HD
BRANCH  16  18
ATOM     18  C   UNL     1       1.587   8.523  19.818  0.00  0.00    +0.000 A 
ATOM     19  C   UNL     1       1.014   9.571  19.089  0.00  0.00    +0.000 A 
ATOM     20  C   UNL     1       0.282  10.573  19.717  0.00  0.00    +0.000 A 
ATOM     21  C   UNL     1       0.091  10.518  21.092  0.00  0.00    +0.000 A 
ATOM     22  C   UNL     1       0.636   9.473  21.845  0.00  0.00    +0.000 A 
ATOM     23  C   UNL     1       1.375   8.469  21.203  0.00  0.00    +0.000 A 
BRANCH  21  24
ATOM     24  S   UNL     1      -0.868  11.779  21.865  0.00  0.00    +0.000 S 
ATOM     25  O   UNL     1      -0.000  12.886  22.215  0.00  0.00    +0.000 OA
ATOM     26  O   UNL     1      -2.106  11.959  21.151  0.00  0.00    +0.000 OA
BRANCH  24  27
ATOM     27  N   UNL     1      -1.261  11.023  23.310  0.00  0.00    +0.000 NA
ATOM     28  H   UNL     1      -1.128  10.016  23.230  0.00  0.00    +0.000 HD
ATOM     29  H   UNL     1      -0.764  11.463  24.083  0.00  0.00    +0.000 HD
ENDBRANCH  24  27
ENDBRANCH  21  24
ENDBRANCH  16  18
ENDBRANCH   5  14
BRANCH   3  30
ATOM     30  C   UNL     1       6.920   5.079  16.338  0.00  0.00    +0.000 C 
BRANCH  30  31
ATOM     31  C   UNL     1       6.804   4.722  14.873  0.00  0.00    +0.000 A 
ATOM     32  C   UNL     1       5.824   3.823  14.424  0.00  0.00    +0.000 A 
ATOM     33  C   UNL     1       5.736   3.478  13.074  0.00  0.00    +0.000 A 
ATOM     34  C   UNL     1       6.611   4.043  12.152  0.00  0.00    +0.000 A 
ATOM     35  C   UNL     1       7.567   4.965  12.575  0.00  0.00    +0.000 A 
ATOM     36  C   UNL     1       7.663   5.304  13.928  0.00  0.00    +0.000 A 
ENDBRANCH  30  31
ENDBRANCH   3  30
TORSDOF 8
ENDMDL
MODEL 2
REMARK VINA RESULT:      -9.1      2.013      2.899
REMARK  Name = 
REMARK  9 active torsions:
REMARK  status: ('A' for Active; 'I' for Inactive)
REMARK    1  A    between atoms: C_1  and  O_2
REMARK    2  A    between atoms: O_2  and  C_3
REMARK    3  A    between atoms: C_8  and  C_9
REMARK    4  A    between atoms: N_11  and  C_12
REMARK    5  A    between atoms: C_12  and  C_13
REMARK    6  A    between atoms: C_20  and  C_21
REMARK    7  A    between atoms: N_23  and  C_24
REMARK    8  A    between atoms: C_27  and  S_28
REMARK    9  A    between atoms: S_28  and  N_29
REMARK                            x       y       z     vdW  Elec       q    Type
REMARK                         _______ _______ _______ _____ _____    ______ ____
ROOT
ATOM      1  C   UNL     1       4.717   4.438  16.484  0.00  0.00    +0.000 A 
ATOM      2  N   UNL     1       5.390   3.771  15.525  0.00  0.00    +0.000 NA
ATOM      3  N   UNL     1       5.920   4.728  14.743  0.00  0.00    +0.000 N 
ATOM      4  C   UNL     1       5.527   5.990  15.086  0.00  0.00    +0.000 A 
ATOM      5  C   UNL     1       4.832   5.853  16.273  0.00  0.00    +0.000 A 
ENDROOT
BRANCH   1  11
ATOM      6  C   UNL     1       4.637   3.341  18.769  0.00  0.00    +0.000 A 
ATOM      7  C   UNL     1       3.944   2.545  19.694  0.00  0.00    +0.000 A 
ATOM      8  C   UNL     1       2.612   2.191  19.471  0.00  0.00    +0.000 A 
ATOM      9  C   UNL     1       1.963   2.619  18.319  0.00  0.00    +0.000 A 
ATOM     10  C   UNL     1       2.665   3.349  17.359  0.00  0.00    +0.000 A 
ATOM     11  C   UNL     1       4.015   3.699  17.553  0.00  0.00    +0.000 A 
BRANCH   6  13
ATOM     12  C   UNL     1       5.967   5.137  19.631  0.00  0.00    +0.000 C 
ATOM     13  O   UNL     1       5.883   3.861  19.013  0.00  0.00    +0.000 OA
ENDBRANCH   6  13
ENDBRANCH   1  11
BRANCH   5  14
ATOM     14  C   UNL     1       4.382   6.915  17.159  0.00  0.00    +0.000 C 
ATOM     15  O   UNL     1       5.193   7.714  17.613  0.00  0.00    +0.000 OA
ATOM     16  N   UNL     1       3.021   6.896  17.445  0.00  0.00    +0.000 N 
ATOM     17  H   UNL     1       2.494   6.110  17.091  0.00  0.00    +0.000 HD
BRANCH  16  18
ATOM     18  C   UNL     1       2.383   7.743  18.380  0.00  0.00    +0.000 A 
ATOM     19  C   UNL     1       2.208   7.387  19.722  0.00  0.00    +0.000 A 
ATOM     20  C   UNL     1       1.509   8.207  20.603  0.00  0.00    +0.000 A 
ATOM     21  C   UNL     1       0.999   9.416  20.149  0.00  0.00    +0.000 A 
ATOM     22  C   UNL     1       1.174   9.808  18.817  0.00  0.00    +0.000 A 
ATOM     23  C   UNL     1       1.878   8.974  17.937  0.00  0.00    +0.000 A 
BRANCH  21  24
ATOM     24  S   UNL     1       0.146  10.457  21.288  0.00  0.00    +0.000 S 
ATOM     25  O   UNL     1      -0.549   9.629  22.255  0.00  0.00    +0.000 OA
ATOM     26  O   UNL     1       0.991  11.557  21.674  0.00  0.00    +0.000 OA
BRANCH  24  27
ATOM     27  N   UNL     1      -1.040  11.099  20.290  0.00  0.00    +0.000 NA
ATOM     28  H   UNL     1      -0.645  11.338  19.380  0.00  0.00    +0.000 HD
ATOM     29  H   UNL     1      -1.847  10.477  20.258  0.00  0.00    +0.000 HD
ENDBRANCH  24  27
ENDBRANCH  21  24
ENDBRANCH  16  18
ENDBRANCH   5  14
BRANCH   3  30
ATOM     30  C   UNL     1       6.790   4.346  13.635  0.00  0.00    +0.000 C 
BRANCH  30  31
ATOM     31  C   UNL     1       6.073   3.493  12.612  0.00  0.00    +0.000 A 
ATOM     32  C   UNL     1       6.680   2.346  12.076  0.00  0.00    +0.000 A 
ATOM     33  C   UNL     1       6.024   1.575  11.113  0.00  0.00    +0.000 A 
ATOM     34  C   UNL     1       4.746   1.928  10.690  0.00  0.00    +0.000 A 
ATOM     35  C   UNL     1       4.116   3.044  11.238  0.00  0.00    +0.000 A 
ATOM     36  C   UNL     1       4.774   3.822  12.195  0.00  0.00    +0.000 A 
ENDBRANCH  30  31
ENDBRANCH   3  30
TORSDOF 8
ENDMDL
MODEL 3
REMARK VINA RESULT:      -9.1      2.031      2.296
REMARK  Name = 
REMARK  9 active torsions:
REMARK  status: ('A' for Active; 'I' for Inactive)
REMARK    1  A    between atoms: C_1  and  O_2
REMARK    2  A    between atoms: O_2  and  C_3
REMARK    3  A    between atoms: C_8  and  C_9
REMARK    4  A    between atoms: N_11  and  C_12
REMARK    5  A    between atoms: C_12  and  C_13
REMARK    6  A    between atoms: C_20  and  C_21
REMARK    7  A    between atoms: N_23  and  C_24
REMARK    8  A    between atoms: C_27  and  S_28
REMARK    9  A    between atoms: S_28  and  N_29
REMARK                            x       y       z     vdW  Elec       q    Type
REMARK                         _______ _______ _______ _____ _____    ______ ____
ROOT
ATOM      1  C   UNL     1       3.900   4.966  17.620  0.00  0.00    +0.000 A 
ATOM      2  N   UNL     1       4.987   4.434  17.027  0.00  0.00    +0.000 NA
ATOM      3  N   UNL     1       5.722   5.490  16.637  0.00  0.00    +0.000 N 
ATOM      4  C   UNL     1       5.107   6.690  16.851  0.00  0.00    +0.000 A 
ATOM      5  C   UNL     1       3.970   6.399  17.582  0.00  0.00    +0.000 A 
ENDROOT
BRANCH   1  11
ATOM      6  C   UNL     1       3.153   3.104  19.173  0.00  0.00    +0.000 A 
ATOM      7  C   UNL     1       2.140   2.234  19.601  0.00  0.00    +0.000 A 
ATOM      8  C   UNL     1       0.827   2.396  19.154  0.00  0.00    +0.000 A 
ATOM      9  C   UNL     1       0.516   3.421  18.270  0.00  0.00    +0.000 A 
ATOM     10  C   UNL     1       1.530   4.247  17.782  0.00  0.00    +0.000 A 
ATOM     11  C   UNL     1       2.864   4.088  18.201  0.00  0.00    +0.000 A 
BRANCH   6  13
ATOM     12  C   UNL     1       4.817   1.981  20.481  0.00  0.00    +0.000 C 
ATOM     13  O   UNL     1       4.419   3.102  19.705  0.00  0.00    +0.000 OA
ENDBRANCH   6  13
ENDBRANCH   1  11
BRANCH   5  14
ATOM     14  C   UNL     1       3.079   7.342  18.240  0.00  0.00    +0.000 C 
ATOM     15  O   UNL     1       2.652   7.096  19.362  0.00  0.00    +0.000 OA
ATOM     16  N   UNL     1       2.756   8.462  17.482  0.00  0.00    +0.000 N 
ATOM     17  H   UNL     1       3.091   8.476  16.528  0.00  0.00    +0.000 HD
BRANCH  16  18
ATOM     18  C   UNL     1       1.810   9.444  17.857  0.00  0.00    +0.000 A 
ATOM     19  C   UNL     1       2.183  10.704  18.338  0.00  0.00    +0.000 A 
ATOM     20  C   UNL     1       1.233  11.623  18.771  0.00  0.00    +0.000 A 
ATOM     21  C   UNL     1      -0.115  11.295  18.699  0.00  0.00    +0.000 A 
ATOM     22  C   UNL     1      -0.520  10.050  18.206  0.00  0.00    +0.000 A 
ATOM     23  C   UNL     1       0.446   9.130  17.774  0.00  0.00    +0.000 A 
BRANCH  21  24
ATOM     24  S   UNL     1      -1.306  12.486  19.222  0.00  0.00    +0.000 S 
ATOM     25  O   UNL     1      -1.905  12.041  20.464  0.00  0.00    +0.000 OA
ATOM     26  O   UNL     1      -0.779  13.815  19.046  0.00  0.00    +0.000 OA
BRANCH  24  27
ATOM     27  N   UNL     1      -2.480  12.284  18.041  0.00  0.00    +0.000 NA
ATOM     28  H   UNL     1      -2.209  12.768  17.186  0.00  0.00    +0.000 HD
ATOM     29  H   UNL     1      -2.695  11.295  17.925  0.00  0.00    +0.000 HD
ENDBRANCH  24  27
ENDBRANCH  21  24
ENDBRANCH  16  18
ENDBRANCH   5  14
BRANCH   3  30
ATOM     30  C   UNL     1       7.026   5.266  16.020  0.00  0.00    +0.000 C 
BRANCH  30  31
ATOM     31  C   UNL     1       6.909   4.816  14.581  0.00  0.00    +0.000 A 
ATOM     32  C   UNL     1       5.941   3.875  14.195  0.00  0.00    +0.000 A 
ATOM     33  C   UNL     1       5.852   3.445  12.869  0.00  0.00    +0.000 A 
ATOM     34  C   UNL     1       6.714   3.965  11.909  0.00  0.00    +0.000 A 
ATOM     35  C   UNL     1       7.657   4.926  12.269  0.00  0.00    +0.000 A 
ATOM     36  C   UNL     1       7.754   5.351  13.597  0.00  0.00    +0.000 A 
ENDBRANCH  30  31
ENDBRANCH   3  30
TORSDOF 8
ENDMDL
MODEL 4
REMARK VINA RESULT:      -9.1      1.965      2.675
REMARK  Name = 
REMARK  9 active torsions:
REMARK  status: ('A' for Active; 'I' for Inactive)
REMARK    1  A    between atoms: C_1  and  O_2
REMARK    2  A    between atoms: O_2  and  C_3
REMARK    3  A    between atoms: C_8  and  C_9
REMARK    4  A    between atoms: N_11  and  C_12
REMARK    5  A    between atoms: C_12  and  C_13
REMARK    6  A    between atoms: C_20  and  C_21
REMARK    7  A    between atoms: N_23  and  C_24
REMARK    8  A    between atoms: C_27  and  S_28
REMARK    9  A    between atoms: S_28  and  N_29
REMARK                            x       y       z     vdW  Elec       q    Type
REMARK                         _______ _______ _______ _____ _____    ______ ____
ROOT
ATOM      1  C   UNL     1       4.705   4.489  16.574  0.00  0.00    +0.000 A 
ATOM      2  N   UNL     1       5.410   3.819  15.641  0.00  0.00    +0.000 NA
ATOM      3  N   UNL     1       5.928   4.772  14.848  0.00  0.00    +0.000 N 
ATOM      4  C   UNL     1       5.500   6.031  15.157  0.00  0.00    +0.000 A 
ATOM      5  C   UNL     1       4.788   5.902  16.336  0.00  0.00    +0.000 A 
ENDROOT
BRANCH   1  11
ATOM      6  C   UNL     1       4.637   3.367  18.849  0.00  0.00    +0.000 A 
ATOM      7  C   UNL     1       3.942   2.578  19.776  0.00  0.00    +0.000 A 
ATOM      8  C   UNL     1       2.598   2.258  19.573  0.00  0.00    +0.000 A 
ATOM      9  C   UNL     1       1.940   2.715  18.438  0.00  0.00    +0.000 A 
ATOM     10  C   UNL     1       2.643   3.440  17.473  0.00  0.00    +0.000 A 
ATOM     11  C   UNL     1       4.003   3.754  17.647  0.00  0.00    +0.000 A 
BRANCH   6  13
ATOM     12  C   UNL     1       6.027   5.163  19.614  0.00  0.00    +0.000 C 
ATOM     13  O   UNL     1       5.901   3.854  19.076  0.00  0.00    +0.000 OA
ENDBRANCH   6  13
ENDBRANCH   1  11
BRANCH   5  14
ATOM     14  C   UNL     1       4.299   6.970  17.193  0.00  0.00    +0.000 C 
ATOM     15  O   UNL     1       5.086   7.776  17.672  0.00  0.00    +0.000 OA
ATOM     16  N   UNL     1       2.927   6.948  17.422  0.00  0.00    +0.000 N 
ATOM     17  H   UNL     1       2.418   6.156  17.054  0.00  0.00    +0.000 HD
BRANCH  16  18
ATOM     18  C   UNL     1       2.247   7.801  18.321  0.00  0.00    +0.000 A 
ATOM     19  C   UNL     1       1.713   9.035  17.931  0.00  0.00    +0.000 A 
ATOM     20  C   UNL     1       1.116   9.889  18.853  0.00  0.00    +0.000 A 
ATOM     21  C   UNL     1       1.021   9.497  20.182  0.00  0.00    +0.000 A 
ATOM     22  C   UNL     1       1.528   8.262  20.599  0.00  0.00    +0.000 A 
ATOM     23  C   UNL     1       2.131   7.410  19.662  0.00  0.00    +0.000 A 
BRANCH  21  24
ATOM     24  S   UNL     1       0.230  10.578  21.329  0.00  0.00    +0.000 S 
ATOM     25  O   UNL     1      -0.381   9.787  22.379  0.00  0.00    +0.000 OA
ATOM     26  O   UNL     1       1.080  11.708  21.603  0.00  0.00    +0.000 OA
BRANCH  24  27
ATOM     27  N   UNL     1      -1.033  11.154  20.387  0.00  0.00    +0.000 NA
ATOM     28  H   UNL     1      -1.917  10.751  20.696  0.00  0.00    +0.000 HD
ATOM     29  H   UNL     1      -1.012  12.172  20.357  0.00  0.00    +0.000 HD
ENDBRANCH  24  27
ENDBRANCH  21  24
ENDBRANCH  16  18
ENDBRANCH   5  14
BRANCH   3  30
ATOM     30  C   UNL     1       6.825   4.389  13.762  0.00  0.00    +0.000 C 
BRANCH  30  31
ATOM     31  C   UNL     1       6.128   3.559  12.708  0.00  0.00    +0.000 A 
ATOM     32  C   UNL     1       4.819   3.863  12.298  0.00  0.00    +0.000 A 
ATOM     33  C   UNL     1       4.171   3.079  11.342  0.00  0.00    +0.000 A 
ATOM     34  C   UNL     1       4.827   1.995  10.767  0.00  0.00    +0.000 A 
ATOM     35  C   UNL     1       6.139   1.701  11.137  0.00  0.00    +0.000 A 
ATOM     36  C   UNL     1       6.787   2.478  12.101  0.00  0.00    +0.000 A 
ENDBRANCH  30  31
ENDBRANCH   3  30
TORSDOF 8
ENDMDL
MODEL 5
REMARK VINA RESULT:      -9.1      0.790      1.259
REMARK  Name = 
REMARK  9 active torsions:
REMARK  status: ('A' for Active; 'I' for Inactive)
REMARK    1  A    between atoms: C_1  and  O_2
REMARK    2  A    between atoms: O_2  and  C_3
REMARK    3  A    between atoms: C_8  and  C_9
REMARK    4  A    between atoms: N_11  and  C_12
REMARK    5  A    between atoms: C_12  and  C_13
REMARK    6  A    between atoms: C_20  and  C_21
REMARK    7  A    between atoms: N_23  and  C_24
REMARK    8  A    between atoms: C_27  and  S_28
REMARK    9  A    between atoms: S_28  and  N_29
REMARK                            x       y       z     vdW  Elec       q    Type
REMARK                         _______ _______ _______ _____ _____    ______ ____
ROOT
ATOM      1  C   UNL     1       3.657   5.247  18.411  0.00  0.00    +0.000 A 
ATOM      2  N   UNL     1       4.818   4.736  17.955  0.00  0.00    +0.000 NA
ATOM      3  N   UNL     1       5.369   5.724  17.227  0.00  0.00    +0.000 N 
ATOM      4  C   UNL     1       4.564   6.818  17.096  0.00  0.00    +0.000 A 
ATOM      5  C   UNL     1       3.489   6.591  17.936  0.00  0.00    +0.000 A 
ENDROOT
BRANCH   1  11
ATOM      6  C   UNL     1       1.839   3.516  18.773  0.00  0.00    +0.000 A 
ATOM      7  C   UNL     1       0.963   2.862  19.652  0.00  0.00    +0.000 A 
ATOM      8  C   UNL     1       1.079   3.037  21.032  0.00  0.00    +0.000 A 
ATOM      9  C   UNL     1       2.063   3.872  21.546  0.00  0.00    +0.000 A 
ATOM     10  C   UNL     1       2.892   4.583  20.677  0.00  0.00    +0.000 A 
ATOM     11  C   UNL     1       2.778   4.439  19.281  0.00  0.00    +0.000 A 
BRANCH   6  13
ATOM     12  C   UNL     1       2.687   2.167  16.983  0.00  0.00    +0.000 C 
ATOM     13  O   UNL     1       1.885   3.252  17.426  0.00  0.00    +0.000 OA
ENDBRANCH   6  13
ENDBRANCH   1  11
BRANCH   5  14
ATOM     14  C   UNL     1       2.453   7.538  18.319  0.00  0.00    +0.000 C 
ATOM     15  O   UNL     1       1.821   8.132  17.455  0.00  0.00    +0.000 OA
ATOM     16  N   UNL     1       2.301   7.708  19.691  0.00  0.00    +0.000 N 
ATOM     17  H   UNL     1       2.970   7.236  20.284  0.00  0.00    +0.000 HD
BRANCH  16  18
ATOM     18  C   UNL     1       1.454   8.666  20.295  0.00  0.00    +0.000 A 
ATOM     19  C   UNL     1       1.043   9.830  19.635  0.00  0.00    +0.000 A 
ATOM     20  C   UNL     1       0.271  10.792  20.278  0.00  0.00    +0.000 A 
ATOM     21  C   UNL     1      -0.124  10.582  21.593  0.00  0.00    +0.000 A 
ATOM     22  C   UNL     1       0.256   9.419  22.273  0.00  0.00    +0.000 A 
ATOM     23  C   UNL     1       1.036   8.457  21.616  0.00  0.00    +0.000 A 
BRANCH  21  24
ATOM     24  S   UNL     1      -1.129  11.797  22.381  0.00  0.00    +0.000 S 
ATOM     25  O   UNL     1      -1.957  11.150  23.380  0.00  0.00    +0.000 OA
ATOM     26  O   UNL     1      -0.346  12.972  22.664  0.00  0.00    +0.000 OA
BRANCH  24  27
ATOM     27  N   UNL     1      -2.158  12.207  21.121  0.00  0.00    +0.000 NA
ATOM     28  H   UNL     1      -1.658  12.749  20.417  0.00  0.00    +0.000 HD
ATOM     29  H   UNL     1      -2.630  11.375  20.767  0.00  0.00    +0.000 HD
ENDBRANCH  24  27
ENDBRANCH  21  24
ENDBRANCH  16  18
ENDBRANCH   5  14
BRANCH   3  30
ATOM     30  C   UNL     1       6.693   5.528  16.643  0.00  0.00    +0.000 C 
BRANCH  30  31
ATOM     31  C   UNL     1       6.623   4.989  15.232  0.00  0.00    +0.000 A 
ATOM     32  C   UNL     1       7.585   5.348  14.274  0.00  0.00    +0.000 A 
ATOM     33  C   UNL     1       7.503   4.867  12.966  0.00  0.00    +0.000 A 
ATOM     34  C   UNL     1       6.473   4.005  12.603  0.00  0.00    +0.000 A 
ATOM     35  C   UNL     1       5.530   3.612  13.551  0.00  0.00    +0.000 A 
ATOM     36  C   UNL     1       5.604   4.099  14.859  0.00  0.00    +0.000 A 
ENDBRANCH  30  31
ENDBRANCH   3  30
TORSDOF 8
ENDMDL
MODEL 6
REMARK VINA RESULT:      -9.0      2.038      2.496
REMARK  Name = 
REMARK  9 active torsions:
REMARK  status: ('A' for Active; 'I' for Inactive)
REMARK    1  A    between atoms: C_1  and  O_2
REMARK    2  A    between atoms: O_2  and  C_3
REMARK    3  A    between atoms: C_8  and  C_9
REMARK    4  A    between atoms: N_11  and  C_12
REMARK    5  A    between atoms: C_12  and  C_13
REMARK    6  A    between atoms: C_20  and  C_21
REMARK    7  A    between atoms: N_23  and  C_24
REMARK    8  A    between atoms: C_27  and  S_28
REMARK    9  A    between atoms: S_28  and  N_29
REMARK                            x       y       z     vdW  Elec       q    Type
REMARK                         _______ _______ _______ _____ _____    ______ ____
ROOT
ATOM      1  C   UNL     1       3.892   4.915  17.677  0.00  0.00    +0.000 A 
ATOM      2  N   UNL     1       4.979   4.367  17.100  0.00  0.00    +0.000 NA
ATOM      3  N   UNL     1       5.732   5.413  16.715  0.00  0.00    +0.000 N 
ATOM      4  C   UNL     1       5.129   6.621  16.916  0.00  0.00    +0.000 A 
ATOM      5  C   UNL     1       3.979   6.347  17.634  0.00  0.00    +0.000 A 
ENDROOT
BRANCH   1  11
ATOM      6  C   UNL     1       3.096   3.094  19.254  0.00  0.00    +0.000 A 
ATOM      7  C   UNL     1       2.070   2.235  19.674  0.00  0.00    +0.000 A 
ATOM      8  C   UNL     1       0.772   2.385  19.183  0.00  0.00    +0.000 A 
ATOM      9  C   UNL     1       0.488   3.386  18.263  0.00  0.00    +0.000 A 
ATOM     10  C   UNL     1       1.517   4.200  17.785  0.00  0.00    +0.000 A 
ATOM     11  C   UNL     1       2.838   4.052  18.249  0.00  0.00    +0.000 A 
BRANCH   6  13
ATOM     12  C   UNL     1       4.796   1.927  20.476  0.00  0.00    +0.000 C 
ATOM     13  O   UNL     1       4.345   3.107  19.825  0.00  0.00    +0.000 OA
ENDBRANCH   6  13
ENDBRANCH   1  11
BRANCH   5  14
ATOM     14  C   UNL     1       3.091   7.303  18.277  0.00  0.00    +0.000 C 
ATOM     15  O   UNL     1       2.666   7.078  19.403  0.00  0.00    +0.000 OA
ATOM     16  N   UNL     1       2.772   8.411  17.500  0.00  0.00    +0.000 N 
ATOM     17  H   UNL     1       3.105   8.408  16.546  0.00  0.00    +0.000 HD
BRANCH  16  18
ATOM     18  C   UNL     1       1.828   9.402  17.860  0.00  0.00    +0.000 A 
ATOM     19  C   UNL     1       2.206  10.664  18.331  0.00  0.00    +0.000 A 
ATOM     20  C   UNL     1       1.258  11.593  18.749  0.00  0.00    +0.000 A 
ATOM     21  C   UNL     1      -0.091  11.272  18.672  0.00  0.00    +0.000 A 
ATOM     22  C   UNL     1      -0.500  10.025  18.188  0.00  0.00    +0.000 A 
ATOM     23  C   UNL     1       0.464   9.095  17.771  0.00  0.00    +0.000 A 
BRANCH  21  24
ATOM     24  S   UNL     1      -1.278  12.475  19.175  0.00  0.00    +0.000 S 
ATOM     25  O   UNL     1      -2.595  12.048  18.744  0.00  0.00    +0.000 OA
ATOM     26  O   UNL     1      -1.003  12.900  20.523  0.00  0.00    +0.000 OA
BRANCH  24  27
ATOM     27  N   UNL     1      -0.857  13.757  18.179  0.00  0.00    +0.000 NA
ATOM     28  H   UNL     1      -1.224  13.611  17.239  0.00  0.00    +0.000 HD
ATOM     29  H   UNL     1      -1.124  14.640  18.612  0.00  0.00    +0.000 HD
ENDBRANCH  24  27
ENDBRANCH  21  24
ENDBRANCH  16  18
ENDBRANCH   5  14
BRANCH   3  30
ATOM     30  C   UNL     1       7.040   5.170  16.115  0.00  0.00    +0.000 C 
BRANCH  30  31
ATOM     31  C   UNL     1       6.940   4.800  14.652  0.00  0.00    +0.000 A 
ATOM     32  C   UNL     1       7.761   5.415  13.693  0.00  0.00    +0.000 A 
ATOM     33  C   UNL     1       7.648   5.087  12.341  0.00  0.00    +0.000 A 
ATOM     34  C   UNL     1       6.730   4.126  11.931  0.00  0.00    +0.000 A 
ATOM     35  C   UNL     1       5.932   3.480  12.874  0.00  0.00    +0.000 A 
ATOM     36  C   UNL     1       6.036   3.813  14.227  0.00  0.00    +0.000 A 
ENDBRANCH  30  31
ENDBRANCH   3  30
TORSDOF 8
ENDMDL
MODEL 7
REMARK VINA RESULT:      -8.9      0.858      1.487
REMARK  Name = 
REMARK  9 active torsions:
REMARK  status: ('A' for Active; 'I' for Inactive)
REMARK    1  A    between atoms: C_1  and  O_2
REMARK    2  A    between atoms: O_2  and  C_3
REMARK    3  A    between atoms: C_8  and  C_9
REMARK    4  A    between atoms: N_11  and  C_12
REMARK    5  A    between atoms: C_12  and  C_13
REMARK    6  A    between atoms: C_20  and  C_21
REMARK    7  A    between atoms: N_23  and  C_24
REMARK    8  A    between atoms: C_27  and  S_28
REMARK    9  A    between atoms: S_28  and  N_29
REMARK                            x       y       z     vdW  Elec       q    Type
REMARK                         _______ _______ _______ _____ _____    ______ ____
ROOT
ATOM      1  C   UNL     1       3.589   5.257  18.515  0.00  0.00    +0.000 A 
ATOM      2  N   UNL     1       4.753   4.773  18.039  0.00  0.00    +0.000 NA
ATOM      3  N   UNL     1       5.281   5.782  17.323  0.00  0.00    +0.000 N 
ATOM      4  C   UNL     1       4.457   6.865  17.219  0.00  0.00    +0.000 A 
ATOM      5  C   UNL     1       3.395   6.607  18.066  0.00  0.00    +0.000 A 
ENDROOT
BRANCH   1  11
ATOM      6  C   UNL     1       1.775   3.519  18.865  0.00  0.00    +0.000 A 
ATOM      7  C   UNL     1       0.922   2.836  19.745  0.00  0.00    +0.000 A 
ATOM      8  C   UNL     1       1.078   2.959  21.126  0.00  0.00    +0.000 A 
ATOM      9  C   UNL     1       2.081   3.771  21.642  0.00  0.00    +0.000 A 
ATOM     10  C   UNL     1       2.888   4.511  20.776  0.00  0.00    +0.000 A 
ATOM     11  C   UNL     1       2.733   4.420  19.380  0.00  0.00    +0.000 A 
BRANCH   6  13
ATOM     12  C   UNL     1       2.610   2.272  16.997  0.00  0.00    +0.000 C 
ATOM     13  O   UNL     1       1.781   3.306  17.509  0.00  0.00    +0.000 OA
ENDBRANCH   6  13
ENDBRANCH   1  11
BRANCH   5  14
ATOM     14  C   UNL     1       2.348   7.529  18.476  0.00  0.00    +0.000 C 
ATOM     15  O   UNL     1       1.652   8.077  17.629  0.00  0.00    +0.000 OA
ATOM     16  N   UNL     1       2.259   7.734  19.848  0.00  0.00    +0.000 N 
ATOM     17  H   UNL     1       2.974   7.302  20.419  0.00  0.00    +0.000 HD
BRANCH  16  18
ATOM     18  C   UNL     1       1.411   8.681  20.468  0.00  0.00    +0.000 A 
ATOM     19  C   UNL     1       0.623   8.371  21.582  0.00  0.00    +0.000 A 
ATOM     20  C   UNL     1      -0.259   9.299  22.126  0.00  0.00    +0.000 A 
ATOM     21  C   UNL     1      -0.339  10.570  21.570  0.00  0.00    +0.000 A 
ATOM     22  C   UNL     1       0.451  10.916  20.468  0.00  0.00    +0.000 A 
ATOM     23  C   UNL     1       1.335   9.972  19.926  0.00  0.00    +0.000 A 
BRANCH  21  24
ATOM     24  S   UNL     1      -1.437  11.744  22.294  0.00  0.00    +0.000 S 
ATOM     25  O   UNL     1      -2.189  12.398  21.241  0.00  0.00    +0.000 OA
ATOM     26  O   UNL     1      -2.066  11.173  23.457  0.00  0.00    +0.000 OA
BRANCH  24  27
ATOM     27  N   UNL     1      -0.342  12.881  22.859  0.00  0.00    +0.000 NA
ATOM     28  H   UNL     1      -0.633  13.231  23.771  0.00  0.00    +0.000 HD
ATOM     29  H   UNL     1       0.604  12.505  22.825  0.00  0.00    +0.000 HD
ENDBRANCH  24  27
ENDBRANCH  21  24
ENDBRANCH  16  18
ENDBRANCH   5  14
BRANCH   3  30
ATOM     30  C   UNL     1       6.602   5.618  16.723  0.00  0.00    +0.000 C 
BRANCH  30  31
ATOM     31  C   UNL     1       6.530   5.041  15.327  0.00  0.00    +0.000 A 
ATOM     32  C   UNL     1       7.548   5.284  14.391  0.00  0.00    +0.000 A 
ATOM     33  C   UNL     1       7.465   4.769  13.097  0.00  0.00    +0.000 A 
ATOM     34  C   UNL     1       6.377   3.985  12.726  0.00  0.00    +0.000 A 
ATOM     35  C   UNL     1       5.375   3.705  13.654  0.00  0.00    +0.000 A 
ATOM     36  C   UNL     1       5.450   4.227  14.948  0.00  0.00    +0.000 A 
ENDBRANCH  30  31
ENDBRANCH   3  30
TORSDOF 8
ENDMDL
MODEL 8
REMARK VINA RESULT:      -8.7      1.912      2.279
REMARK  Name = 
REMARK  9 active torsions:
REMARK  status: ('A' for Active; 'I' for Inactive)
REMARK    1  A    between atoms: C_1  and  O_2
REMARK    2  A    between atoms: O_2  and  C_3
REMARK    3  A    between atoms: C_8  and  C_9
REMARK    4  A    between atoms: N_11  and  C_12
REMARK    5  A    between atoms: C_12  and  C_13
REMARK    6  A    between atoms: C_20  and  C_21
REMARK    7  A    between atoms: N_23  and  C_24
REMARK    8  A    between atoms: C_27  and  S_28
REMARK    9  A    between atoms: S_28  and  N_29
REMARK                            x       y       z     vdW  Elec       q    Type
REMARK                         _______ _______ _______ _____ _____    ______ ____
ROOT
ATOM      1  C   UNL     1       3.875   4.969  17.629  0.00  0.00    +0.000 A 
ATOM      2  N   UNL     1       4.954   4.460  17.002  0.00  0.00    +0.000 NA
ATOM      3  N   UNL     1       5.674   5.532  16.627  0.00  0.00    +0.000 N 
ATOM      4  C   UNL     1       5.055   6.721  16.883  0.00  0.00    +0.000 A 
ATOM      5  C   UNL     1       3.933   6.403  17.628  0.00  0.00    +0.000 A 
ENDROOT
BRANCH   1  11
ATOM      6  C   UNL     1       3.165   3.086  19.173  0.00  0.00    +0.000 A 
ATOM      7  C   UNL     1       2.169   2.194  19.597  0.00  0.00    +0.000 A 
ATOM      8  C   UNL     1       0.853   2.332  19.152  0.00  0.00    +0.000 A 
ATOM      9  C   UNL     1       0.522   3.355  18.272  0.00  0.00    +0.000 A 
ATOM     10  C   UNL     1       1.519   4.203  17.788  0.00  0.00    +0.000 A 
ATOM     11  C   UNL     1       2.856   4.068  18.206  0.00  0.00    +0.000 A 
BRANCH   6  13
ATOM     12  C   UNL     1       4.866   1.971  20.440  0.00  0.00    +0.000 C 
ATOM     13  O   UNL     1       4.430   3.106  19.706  0.00  0.00    +0.000 OA
ENDBRANCH   6  13
ENDBRANCH   1  11
BRANCH   5  14
ATOM     14  C   UNL     1       3.048   7.321  18.326  0.00  0.00    +0.000 C 
ATOM     15  O   UNL     1       2.723   7.091  19.485  0.00  0.00    +0.000 OA
ATOM     16  N   UNL     1       2.611   8.399  17.565  0.00  0.00    +0.000 N 
ATOM     17  H   UNL     1       2.870   8.399  16.587  0.00  0.00    +0.000 HD
BRANCH  16  18
ATOM     18  C   UNL     1       1.647   9.344  17.985  0.00  0.00    +0.000 A 
ATOM     19  C   UNL     1       0.277   9.174  17.760  0.00  0.00    +0.000 A 
ATOM     20  C   UNL     1      -0.643  10.154  18.117  0.00  0.00    +0.000 A 
ATOM     21  C   UNL     1      -0.196  11.315  18.735  0.00  0.00    +0.000 A 
ATOM     22  C   UNL     1       1.167  11.506  18.991  0.00  0.00    +0.000 A 
ATOM     23  C   UNL     1       2.085  10.512  18.625  0.00  0.00    +0.000 A 
BRANCH  21  24
ATOM     24  S   UNL     1      -1.380  12.532  19.211  0.00  0.00    +0.000 S 
ATOM     25  O   UNL     1      -0.846  13.848  18.924  0.00  0.00    +0.000 OA
ATOM     26  O   UNL     1      -2.697  12.122  18.797  0.00  0.00    +0.000 OA
BRANCH  24  27
ATOM     27  N   UNL     1      -1.336  12.367  20.880  0.00  0.00    +0.000 NA
ATOM     28  H   UNL     1      -0.390  12.523  21.226  0.00  0.00    +0.000 HD
ATOM     29  H   UNL     1      -2.053  12.951  21.309  0.00  0.00    +0.000 HD
ENDBRANCH  24  27
ENDBRANCH  21  24
ENDBRANCH  16  18
ENDBRANCH   5  14
BRANCH   3  30
ATOM     30  C   UNL     1       6.967   5.334  15.979  0.00  0.00    +0.000 C 
BRANCH  30  31
ATOM     31  C   UNL     1       6.827   4.817  14.565  0.00  0.00    +0.000 A 
ATOM     32  C   UNL     1       7.701   5.242  13.551  0.00  0.00    +0.000 A 
ATOM     33  C   UNL     1       7.553   4.780  12.242  0.00  0.00    +0.000 A 
ATOM     34  C   UNL     1       6.544   3.873  11.932  0.00  0.00    +0.000 A 
ATOM     35  C   UNL     1       5.690   3.415  12.934  0.00  0.00    +0.000 A 
ATOM     36  C   UNL     1       5.831   3.882  14.243  0.00  0.00    +0.000 A 
ENDBRANCH  30  31
ENDBRANCH   3  30
TORSDOF 8
ENDMDL
MODEL 9
REMARK VINA RESULT:      -8.7      4.078     10.237
REMARK  Name = 
REMARK  9 active torsions:
REMARK  status: ('A' for Active; 'I' for Inactive)
REMARK    1  A    between atoms: C_1  and  O_2
REMARK    2  A    between atoms: O_2  and  C_3
REMARK    3  A    between atoms: C_8  and  C_9
REMARK    4  A    between atoms: N_11  and  C_12
REMARK    5  A    between atoms: C_12  and  C_13
REMARK    6  A    between atoms: C_20  and  C_21
REMARK    7  A    between atoms: N_23  and  C_24
REMARK    8  A    between atoms: C_27  and  S_28
REMARK    9  A    between atoms: S_28  and  N_29
REMARK                            x       y       z     vdW  Elec       q    Type
REMARK                         _______ _______ _______ _____ _____    ______ ____
ROOT
ATOM      1  C   UNL     1       0.107  11.800  18.696  0.00  0.00    +0.000 A 
ATOM      2  N   UNL     1      -1.059  12.373  18.339  0.00  0.00    +0.000 NA
ATOM      3  N   UNL     1      -1.867  11.346  18.021  0.00  0.00    +0.000 N 
ATOM      4  C   UNL     1      -1.242  10.133  18.048  0.00  0.00    +0.000 A 
ATOM      5  C   UNL     1       0.011  10.373  18.583  0.00  0.00    +0.000 A 
ENDROOT
BRANCH   1  11
ATOM      6  C   UNL     1       1.463  12.972  20.492  0.00  0.00    +0.000 A 
ATOM      7  C   UNL     1       2.497  13.857  20.827  0.00  0.00    +0.000 A 
ATOM      8  C   UNL     1       3.376  14.328  19.849  0.00  0.00    +0.000 A 
ATOM      9  C   UNL     1       3.223  13.927  18.528  0.00  0.00    +0.000 A 
ATOM     10  C   UNL     1       2.153  13.104  18.172  0.00  0.00    +0.000 A 
ATOM     11  C   UNL     1       1.243  12.635  19.138  0.00  0.00    +0.000 A 
BRANCH   6  13
ATOM     12  C   UNL     1      -0.327  13.106  22.080  0.00  0.00    +0.000 C 
ATOM     13  O   UNL     1       0.679  12.344  21.429  0.00  0.00    +0.000 OA
ENDBRANCH   6  13
ENDBRANCH   1  11
BRANCH   5  14
ATOM     14  C   UNL     1       0.990   9.387  19.012  0.00  0.00    +0.000 C 
ATOM     15  O   UNL     1       1.351   9.357  20.183  0.00  0.00    +0.000 OA
ATOM     16  N   UNL     1       1.466   8.561  18.000  0.00  0.00    +0.000 N 
ATOM     17  H   UNL     1       1.163   8.776  17.059  0.00  0.00    +0.000 HD
BRANCH  16  18
ATOM     18  C   UNL     1       2.513   7.622  18.151  0.00  0.00    +0.000 A 
ATOM     19  C   UNL     1       2.483   6.612  19.119  0.00  0.00    +0.000 A 
ATOM     20  C   UNL     1       3.559   5.748  19.297  0.00  0.00    +0.000 A 
ATOM     21  C   UNL     1       4.675   5.873  18.479  0.00  0.00    +0.000 A 
ATOM     22  C   UNL     1       4.726   6.861  17.490  0.00  0.00    +0.000 A 
ATOM     23  C   UNL     1       3.636   7.728  17.321  0.00  0.00    +0.000 A 
BRANCH  21  24
ATOM     24  S   UNL     1       6.015   4.748  18.696  0.00  0.00    +0.000 S 
ATOM     25  O   UNL     1       6.545   4.388  17.396  0.00  0.00    +0.000 OA
ATOM     26  O   UNL     1       6.853   5.188  19.782  0.00  0.00    +0.000 OA
BRANCH  24  27
ATOM     27  N   UNL     1       5.193   3.396  19.253  0.00  0.00    +0.000 NA
ATOM     28  H   UNL     1       5.608   3.062  20.123  0.00  0.00    +0.000 HD
ATOM     29  H   UNL     1       4.193   3.587  19.300  0.00  0.00    +0.000 HD
ENDBRANCH  24  27
ENDBRANCH  21  24
ENDBRANCH  16  18
ENDBRANCH   5  14
BRANCH   3  30
ATOM     30  C   UNL     1      -3.255  11.615  17.659  0.00  0.00    +0.000 C 
BRANCH  30  31
ATOM     31  C   UNL     1      -4.118  11.903  18.867  0.00  0.00    +0.000 A 
ATOM     32  C   UNL     1      -3.584  12.539  20.000  0.00  0.00    +0.000 A 
ATOM     33  C   UNL     1      -4.379  12.781  21.122  0.00  0.00    +0.000 A 
ATOM     34  C   UNL     1      -5.720  12.411  21.120  0.00  0.00    +0.000 A 
ATOM     35  C   UNL     1      -6.273  11.811  19.991  0.00  0.00    +0.000 A 
ATOM     36  C   UNL     1      -5.479  11.559  18.869  0.00  0.00    +0.000 A 
ENDBRANCH  30  31
ENDBRANCH   3  30
TORSDOF 8
ENDMDL
