MODEL 1
REMARK VINA RESULT:      -8.3      0.000      0.000
REMARK  Name = 
REMARK  6 active torsions:
REMARK  status: ('A' for Active; 'I' for Inactive)
REMARK    1  A    between atoms: C_1  and  C_2
REMARK    2  A    between atoms: C_3  and  N_4
REMARK    3  A    between atoms: C_5  and  C_7
REMARK    4  A    between atoms: C_7  and  C_8
REMARK    5  A    between atoms: N_20  and  C_21
REMARK    6  A    between atoms: N_27  and  C_28
REMARK                            x       y       z     vdW  Elec       q    Type
REMARK                         _______ _______ _______ _____ _____    ______ ____
ROOT
ATOM      1  N   UNL     1       1.662  10.468  18.989  0.00  0.00    +0.000 N 
ATOM      2  C   UNL     1       1.473   9.431  18.086  0.00  0.00    +0.000 C 
ATOM      3  O   UNL     1       0.443   9.235  17.452  0.00  0.00    +0.000 OA
ATOM      4  H   UNL     1       2.380  10.333  19.697  0.00  0.00    +0.000 HD
ENDROOT
BRANCH   1   7
ATOM      5  C   UNL     1       1.768  13.638  18.429  0.00  0.00    +0.000 C 
ATOM      6  C   UNL     1       0.683  12.774  18.998  0.00  0.00    +0.000 A 
ATOM      7  C   UNL     1       0.762  11.461  19.288  0.00  0.00    +0.000 A 
ATOM      8  C   UNL     1      -0.390  11.199  20.214  0.00  0.00    +0.000 A 
ATOM      9  O   UNL     1      -0.601  10.107  20.721  0.00  0.00    +0.000 OA
ATOM     10  N   UNL     1      -1.088  12.405  20.330  0.00  0.00    +0.000 N 
ATOM     11  N   UNL     1      -0.525  13.342  19.443  0.00  0.00    +0.000 N 
ATOM     12  C   UNL     1      -0.660  14.766  19.737  0.00  0.00    +0.000 C 
BRANCH  10  13
ATOM     13  C   UNL     1      -2.342  12.547  20.952  0.00  0.00    +0.000 A 
ATOM     14  C   UNL     1      -2.392  12.602  22.350  0.00  0.00    +0.000 A 
ATOM     15  C   UNL     1      -3.607  12.800  23.009  0.00  0.00    +0.000 A 
ATOM     16  C   UNL     1      -4.788  12.895  22.276  0.00  0.00    +0.000 A 
ATOM     17  C   UNL     1      -4.751  12.811  20.883  0.00  0.00    +0.000 A 
ATOM     18  C   UNL     1      -3.529  12.658  20.220  0.00  0.00    +0.000 A 
ENDBRANCH  10  13
ENDBRANCH   1   7
BRANCH   2  19
ATOM     19  C   UNL     1       2.658   8.488  17.958  0.00  0.00    +0.000 C 
BRANCH  19  20
ATOM     20  C   UNL     1       2.409   7.144  18.601  0.00  0.00    +0.000 A 
ATOM     21  C   UNL     1       2.072   7.050  19.956  0.00  0.00    +0.000 A 
ATOM     22  C   UNL     1       1.791   5.808  20.530  0.00  0.00    +0.000 A 
ATOM     23  C   UNL     1       1.829   4.636  19.761  0.00  0.00    +0.000 A 
ATOM     24  C   UNL     1       2.222   4.711  18.415  0.00  0.00    +0.000 A 
ATOM     25  C   UNL     1       2.517   5.962  17.852  0.00  0.00    +0.000 A 
ATOM     26  C   UNL     1       2.237   3.492  17.525  0.00  0.00    +0.000 C 
ATOM     27  C   UNL     1       2.210   2.174  18.295  0.00  0.00    +0.000 C 
ATOM     28  C   UNL     1       1.157   2.220  19.395  0.00  0.00    +0.000 C 
ATOM     29  C   UNL     1       1.489   3.316  20.408  0.00  0.00    +0.000 C 
ENDBRANCH  19  20
ENDBRANCH   2  19
TORSDOF 4
ENDMDL
MODEL 2
REMARK VINA RESULT:      -8.0      1.542      2.050
REMARK  Name = 
REMARK  6 active torsions:
REMARK  status: ('A' for Active; 'I' for Inactive)
REMARK    1  A    between atoms: C_1  and  C_2
REMARK    2  A    between atoms: C_3  and  N_4
REMARK    3  A    between atoms: C_5  and  C_7
REMARK    4  A    between atoms: C_7  and  C_8
REMARK    5  A    between atoms: N_20  and  C_21
REMARK    6  A    between atoms: N_27  and  C_28
REMARK                            x       y       z     vdW  Elec       q    Type
REMARK                         _______ _______ _______ _____ _____    ______ ____
ROOT
ATOM      1  N   UNL     1       1.053   9.200  19.018  0.00  0.00    +0.000 N 
ATOM      2  C   UNL     1       2.040   9.446  18.073  0.00  0.00    +0.000 C 
ATOM      3  O   UNL     1       2.130  10.469  17.406  0.00  0.00    +0.000 OA
ATOM      4  H   UNL     1       0.864   8.225  19.238  0.00  0.00    +0.000 HD
ENDROOT
BRANCH   1   7
ATOM      5  C   UNL     1      -1.599  10.150  17.457  0.00  0.00    +0.000 C 
ATOM      6  C   UNL     1      -1.126  10.425  18.852  0.00  0.00    +0.000 A 
ATOM      7  C   UNL     1       0.053  10.062  19.394  0.00  0.00    +0.000 A 
ATOM      8  C   UNL     1       0.208  10.936  20.605  0.00  0.00    +0.000 A 
ATOM      9  O   UNL     1       1.199  10.911  21.321  0.00  0.00    +0.000 OA
ATOM     10  N   UNL     1      -0.957  11.704  20.693  0.00  0.00    +0.000 N 
ATOM     11  N   UNL     1      -1.861  11.269  19.705  0.00  0.00    +0.000 N 
ATOM     12  C   UNL     1      -2.868  12.202  19.206  0.00  0.00    +0.000 C 
BRANCH  10  13
ATOM     13  C   UNL     1      -1.300  12.514  21.789  0.00  0.00    +0.000 A 
ATOM     14  C   UNL     1      -0.720  13.784  21.891  0.00  0.00    +0.000 A 
ATOM     15  C   UNL     1      -1.075  14.646  22.930  0.00  0.00    +0.000 A 
ATOM     16  C   UNL     1      -1.975  14.224  23.906  0.00  0.00    +0.000 A 
ATOM     17  C   UNL     1      -2.536  12.948  23.829  0.00  0.00    +0.000 A 
ATOM     18  C   UNL     1      -2.216  12.102  22.763  0.00  0.00    +0.000 A 
ENDBRANCH  10  13
ENDBRANCH   1   7
BRANCH   2  19
ATOM     19  C   UNL     1       3.020   8.301  17.879  0.00  0.00    +0.000 C 
BRANCH  19  20
ATOM     20  C   UNL     1       2.596   7.039  18.594  0.00  0.00    +0.000 A 
ATOM     21  C   UNL     1       2.299   7.057  19.961  0.00  0.00    +0.000 A 
ATOM     22  C   UNL     1       1.856   5.899  20.603  0.00  0.00    +0.000 A 
ATOM     23  C   UNL     1       1.690   4.702  19.892  0.00  0.00    +0.000 A 
ATOM     24  C   UNL     1       2.039   4.657  18.533  0.00  0.00    +0.000 A 
ATOM     25  C   UNL     1       2.498   5.823  17.901  0.00  0.00    +0.000 A 
ATOM     26  C   UNL     1       1.838   3.412  17.704  0.00  0.00    +0.000 C 
ATOM     27  C   UNL     1       1.642   2.149  18.539  0.00  0.00    +0.000 C 
ATOM     28  C   UNL     1       0.650   2.402  19.666  0.00  0.00    +0.000 C 
ATOM     29  C   UNL     1       1.180   3.478  20.613  0.00  0.00    +0.000 C 
ENDBRANCH  19  20
ENDBRANCH   2  19
TORSDOF 4
ENDMDL
MODEL 3
REMARK VINA RESULT:      -8.0      1.431      2.425
REMARK  Name = 
REMARK  6 active torsions:
REMARK  status: ('A' for Active; 'I' for Inactive)
REMARK    1  A    between atoms: C_1  and  C_2
REMARK    2  A    between atoms: C_3  and  N_4
REMARK    3  A    between atoms: C_5  and  C_7
REMARK    4  A    between atoms: C_7  and  C_8
REMARK    5  A    between atoms: N_20  and  C_21
REMARK    6  A    between atoms: N_27  and  C_28
REMARK                            x       y       z     vdW  Elec       q    Type
REMARK                         _______ _______ _______ _____ _____    ______ ____
ROOT
ATOM      1  N   UNL     1       0.983  10.160  21.392  0.00  0.00    +0.000 N 
ATOM      2  C   UNL     1       0.661   8.811  21.326  0.00  0.00    +0.000 C 
ATOM      3  O   UNL     1      -0.473   8.369  21.187  0.00  0.00    +0.000 OA
ATOM      4  H   UNL     1       1.858  10.399  21.853  0.00  0.00    +0.000 HD
ENDROOT
BRANCH   1   7
ATOM      5  C   UNL     1       0.865  12.548  19.234  0.00  0.00    +0.000 C 
ATOM      6  C   UNL     1      -0.069  12.178  20.346  0.00  0.00    +0.000 A 
ATOM      7  C   UNL     1       0.110  11.212  21.268  0.00  0.00    +0.000 A 
ATOM      8  C   UNL     1      -0.853  11.544  22.370  0.00  0.00    +0.000 A 
ATOM      9  O   UNL     1      -0.930  10.896  23.404  0.00  0.00    +0.000 OA
ATOM     10  N   UNL     1      -1.568  12.669  21.947  0.00  0.00    +0.000 N 
ATOM     11  N   UNL     1      -1.205  12.964  20.619  0.00  0.00    +0.000 N 
ATOM     12  C   UNL     1      -1.343  14.335  20.135  0.00  0.00    +0.000 C 
BRANCH  10  13
ATOM     13  C   UNL     1      -2.700  13.190  22.600  0.00  0.00    +0.000 A 
ATOM     14  C   UNL     1      -3.965  12.742  22.204  0.00  0.00    +0.000 A 
ATOM     15  C   UNL     1      -5.114  13.188  22.861  0.00  0.00    +0.000 A 
ATOM     16  C   UNL     1      -5.008  14.124  23.887  0.00  0.00    +0.000 A 
ATOM     17  C   UNL     1      -3.752  14.599  24.269  0.00  0.00    +0.000 A 
ATOM     18  C   UNL     1      -2.598  14.118  23.641  0.00  0.00    +0.000 A 
ENDBRANCH  10  13
ENDBRANCH   1   7
BRANCH   2  19
ATOM     19  C   UNL     1       1.848   7.876  21.489  0.00  0.00    +0.000 C 
BRANCH  19  20
ATOM     20  C   UNL     1       1.913   6.819  20.410  0.00  0.00    +0.000 A 
ATOM     21  C   UNL     1       2.404   7.127  19.137  0.00  0.00    +0.000 A 
ATOM     22  C   UNL     1       2.511   6.133  18.162  0.00  0.00    +0.000 A 
ATOM     23  C   UNL     1       2.141   4.810  18.441  0.00  0.00    +0.000 A 
ATOM     24  C   UNL     1       1.594   4.500  19.696  0.00  0.00    +0.000 A 
ATOM     25  C   UNL     1       1.476   5.511  20.664  0.00  0.00    +0.000 A 
ATOM     26  C   UNL     1       1.222   3.087  20.073  0.00  0.00    +0.000 C 
ATOM     27  C   UNL     1       1.094   2.151  18.873  0.00  0.00    +0.000 C 
ATOM     28  C   UNL     1       2.273   2.332  17.926  0.00  0.00    +0.000 C 
ATOM     29  C   UNL     1       2.300   3.756  17.372  0.00  0.00    +0.000 C 
ENDBRANCH  19  20
ENDBRANCH   2  19
TORSDOF 4
ENDMDL
MODEL 4
REMARK VINA RESULT:      -8.0      1.678      2.601
REMARK  Name = 
REMARK  6 active torsions:
REMARK  status: ('A' for Active; 'I' for Inactive)
REMARK    1  A    between atoms: C_1  and  C_2
REMARK    2  A    between atoms: C_3  and  N_4
REMARK    3  A    between atoms: C_5  and  C_7
REMARK    4  A    between atoms: C_7  and  C_8
REMARK    5  A    between atoms: N_20  and  C_21
REMARK    6  A    between atoms: N_27  and  C_28
REMARK                            x       y       z     vdW  Elec       q    Type
REMARK                         _______ _______ _______ _____ _____    ______ ____
ROOT
ATOM      1  N   UNL     1       1.130   9.815  17.888  0.00  0.00    +0.000 N 
ATOM      2  C   UNL     1       1.897   8.825  18.487  0.00  0.00    +0.000 C 
ATOM      3  O   UNL     1       1.712   8.382  19.614  0.00  0.00    +0.000 OA
ATOM      4  H   UNL     1       1.568  10.341  17.136  0.00  0.00    +0.000 HD
ENDROOT
BRANCH   1   7
ATOM      5  C   UNL     1      -1.933   9.876  16.893  0.00  0.00    +0.000 C 
ATOM      6  C   UNL     1      -1.290  10.412  18.137  0.00  0.00    +0.000 A 
ATOM      7  C   UNL     1       0.025  10.426  18.427  0.00  0.00    +0.000 A 
ATOM      8  C   UNL     1       0.167  11.435  19.530  0.00  0.00    +0.000 A 
ATOM      9  O   UNL     1       1.247  11.744  20.015  0.00  0.00    +0.000 OA
ATOM     10  N   UNL     1      -1.123  11.882  19.829  0.00  0.00    +0.000 N 
ATOM     11  N   UNL     1      -2.048  11.125  19.085  0.00  0.00    +0.000 N 
ATOM     12  C   UNL     1      -3.350  11.708  18.769  0.00  0.00    +0.000 C 
BRANCH  10  13
ATOM     13  C   UNL     1      -1.456  12.689  20.931  0.00  0.00    +0.000 A 
ATOM     14  C   UNL     1      -1.410  14.080  20.780  0.00  0.00    +0.000 A 
ATOM     15  C   UNL     1      -1.786  14.921  21.828  0.00  0.00    +0.000 A 
ATOM     16  C   UNL     1      -2.164  14.377  23.054  0.00  0.00    +0.000 A 
ATOM     17  C   UNL     1      -2.184  12.992  23.224  0.00  0.00    +0.000 A 
ATOM     18  C   UNL     1      -1.851  12.148  22.159  0.00  0.00    +0.000 A 
ENDBRANCH  10  13
ENDBRANCH   1   7
BRANCH   2  19
ATOM     19  C   UNL     1       3.056   8.332  17.637  0.00  0.00    +0.000 C 
BRANCH  19  20
ATOM     20  C   UNL     1       3.207   6.829  17.667  0.00  0.00    +0.000 A 
ATOM     21  C   UNL     1       4.389   6.220  17.230  0.00  0.00    +0.000 A 
ATOM     22  C   UNL     1       4.541   4.834  17.311  0.00  0.00    +0.000 A 
ATOM     23  C   UNL     1       3.523   4.029  17.839  0.00  0.00    +0.000 A 
ATOM     24  C   UNL     1       2.310   4.622  18.227  0.00  0.00    +0.000 A 
ATOM     25  C   UNL     1       2.162   6.014  18.127  0.00  0.00    +0.000 A 
ATOM     26  C   UNL     1       1.195   3.815  18.846  0.00  0.00    +0.000 C 
ATOM     27  C   UNL     1       1.333   2.311  18.619  0.00  0.00    +0.000 C 
ATOM     28  C   UNL     1       2.759   1.857  18.898  0.00  0.00    +0.000 C 
ATOM     29  C   UNL     1       3.735   2.538  17.940  0.00  0.00    +0.000 C 
ENDBRANCH  19  20
ENDBRANCH   2  19
TORSDOF 4
ENDMDL
MODEL 5
REMARK VINA RESULT:      -8.0      2.655      3.965
REMARK  Name = 
REMARK  6 active torsions:
REMARK  status: ('A' for Active; 'I' for Inactive)
REMARK    1  A    between atoms: C_1  and  C_2
REMARK    2  A    between atoms: C_3  and  N_4
REMARK    3  A    between atoms: C_5  and  C_7
REMARK    4  A    between atoms: C_7  and  C_8
REMARK    5  A    between atoms: N_20  and  C_21
REMARK    6  A    between atoms: N_27  and  C_28
REMARK                            x       y       z     vdW  Elec       q    Type
REMARK                         _______ _______ _______ _____ _____    ______ ____
ROOT
ATOM      1  N   UNL     1       2.173   7.443  20.478  0.00  0.00    +0.000 N 
ATOM      2  C   UNL     1       1.625   6.175  20.622  0.00  0.00    +0.000 C 
ATOM      3  O   UNL     1       0.425   5.931  20.655  0.00  0.00    +0.000 OA
ATOM      4  H   UNL     1       3.124   7.572  20.814  0.00  0.00    +0.000 HD
ENDROOT
BRANCH   1   7
ATOM      5  C   UNL     1       1.468   9.088  17.799  0.00  0.00    +0.000 C 
ATOM      6  C   UNL     1       1.054   9.301  19.224  0.00  0.00    +0.000 A 
ATOM      7  C   UNL     1       1.478   8.614  20.302  0.00  0.00    +0.000 A 
ATOM      8  C   UNL     1       1.127   9.481  21.476  0.00  0.00    +0.000 A 
ATOM      9  O   UNL     1       1.412   9.188  22.629  0.00  0.00    +0.000 OA
ATOM     10  N   UNL     1       0.457  10.595  20.962  0.00  0.00    +0.000 N 
ATOM     11  N   UNL     1       0.258  10.406  19.581  0.00  0.00    +0.000 N 
ATOM     12  C   UNL     1       0.111  11.576  18.720  0.00  0.00    +0.000 C 
BRANCH  10  13
ATOM     13  C   UNL     1      -0.209  11.559  21.740  0.00  0.00    +0.000 A 
ATOM     14  C   UNL     1       0.244  12.882  21.699  0.00  0.00    +0.000 A 
ATOM     15  C   UNL     1      -0.421  13.883  22.409  0.00  0.00    +0.000 A 
ATOM     16  C   UNL     1      -1.516  13.558  23.207  0.00  0.00    +0.000 A 
ATOM     17  C   UNL     1      -1.957  12.235  23.278  0.00  0.00    +0.000 A 
ATOM     18  C   UNL     1      -1.319  11.240  22.531  0.00  0.00    +0.000 A 
ENDBRANCH  10  13
ENDBRANCH   1   7
BRANCH   2  19
ATOM     19  C   UNL     1       2.651   5.066  20.789  0.00  0.00    +0.000 C 
BRANCH  19  20
ATOM     20  C   UNL     1       3.387   4.752  19.507  0.00  0.00    +0.000 A 
ATOM     21  C   UNL     1       2.705   4.245  18.396  0.00  0.00    +0.000 A 
ATOM     22  C   UNL     1       3.383   4.008  17.198  0.00  0.00    +0.000 A 
ATOM     23  C   UNL     1       4.753   4.283  17.082  0.00  0.00    +0.000 A 
ATOM     24  C   UNL     1       5.460   4.737  18.207  0.00  0.00    +0.000 A 
ATOM     25  C   UNL     1       4.772   4.958  19.410  0.00  0.00    +0.000 A 
ATOM     26  C   UNL     1       6.925   5.095  18.131  0.00  0.00    +0.000 C 
ATOM     27  C   UNL     1       7.627   4.530  16.898  0.00  0.00    +0.000 C 
ATOM     28  C   UNL     1       6.787   4.767  15.650  0.00  0.00    +0.000 C 
ATOM     29  C   UNL     1       5.446   4.043  15.762  0.00  0.00    +0.000 C 
ENDBRANCH  19  20
ENDBRANCH   2  19
TORSDOF 4
ENDMDL
MODEL 6
REMARK VINA RESULT:      -7.9      1.044      1.311
REMARK  Name = 
REMARK  6 active torsions:
REMARK  status: ('A' for Active; 'I' for Inactive)
REMARK    1  A    between atoms: C_1  and  C_2
REMARK    2  A    between atoms: C_3  and  N_4
REMARK    3  A    between atoms: C_5  and  C_7
REMARK    4  A    between atoms: C_7  and  C_8
REMARK    5  A    between atoms: N_20  and  C_21
REMARK    6  A    between atoms: N_27  and  C_28
REMARK                            x       y       z     vdW  Elec       q    Type
REMARK                         _______ _______ _______ _____ _____    ______ ____
ROOT
ATOM      1  N   UNL     1       1.532  10.786  19.467  0.00  0.00    +0.000 N 
ATOM      2  C   UNL     1       1.278   9.811  18.511  0.00  0.00    +0.000 C 
ATOM      3  O   UNL     1       0.208   9.661  17.933  0.00  0.00    +0.000 OA
ATOM      4  H   UNL     1       2.293  10.602  20.116  0.00  0.00    +0.000 HD
ENDROOT
BRANCH   1   7
ATOM      5  C   UNL     1       0.786  13.639  18.173  0.00  0.00    +0.000 C 
ATOM      6  C   UNL     1       0.219  12.916  19.357  0.00  0.00    +0.000 A 
ATOM      7  C   UNL     1       0.661  11.759  19.888  0.00  0.00    +0.000 A 
ATOM      8  C   UNL     1       0.063  11.712  21.264  0.00  0.00    +0.000 A 
ATOM      9  O   UNL     1       0.293  10.811  22.058  0.00  0.00    +0.000 OA
ATOM     10  N   UNL     1      -0.744  12.846  21.386  0.00  0.00    +0.000 N 
ATOM     11  N   UNL     1      -0.786  13.508  20.144  0.00  0.00    +0.000 N 
ATOM     12  C   UNL     1      -1.061  14.942  20.115  0.00  0.00    +0.000 C 
BRANCH  10  13
ATOM     13  C   UNL     1      -1.634  13.085  22.448  0.00  0.00    +0.000 A 
ATOM     14  C   UNL     1      -1.278  14.026  23.421  0.00  0.00    +0.000 A 
ATOM     15  C   UNL     1      -2.155  14.338  24.461  0.00  0.00    +0.000 A 
ATOM     16  C   UNL     1      -3.374  13.672  24.566  0.00  0.00    +0.000 A 
ATOM     17  C   UNL     1      -3.725  12.710  23.618  0.00  0.00    +0.000 A 
ATOM     18  C   UNL     1      -2.867  12.430  22.549  0.00  0.00    +0.000 A 
ENDBRANCH  10  13
ENDBRANCH   1   7
BRANCH   2  19
ATOM     19  C   UNL     1       2.445   8.875  18.245  0.00  0.00    +0.000 C 
BRANCH  19  20
ATOM     20  C   UNL     1       2.229   7.493  18.816  0.00  0.00    +0.000 A 
ATOM     21  C   UNL     1       1.941   7.317  20.174  0.00  0.00    +0.000 A 
ATOM     22  C   UNL     1       1.690   6.041  20.684  0.00  0.00    +0.000 A 
ATOM     23  C   UNL     1       1.710   4.917  19.847  0.00  0.00    +0.000 A 
ATOM     24  C   UNL     1       2.055   5.073  18.495  0.00  0.00    +0.000 A 
ATOM     25  C   UNL     1       2.320   6.358  17.996  0.00  0.00    +0.000 A 
ATOM     26  C   UNL     1       2.047   3.909  17.535  0.00  0.00    +0.000 C 
ATOM     27  C   UNL     1       2.057   2.548  18.227  0.00  0.00    +0.000 C 
ATOM     28  C   UNL     1       1.044   2.520  19.364  0.00  0.00    +0.000 C 
ATOM     29  C   UNL     1       1.403   3.557  20.427  0.00  0.00    +0.000 C 
ENDBRANCH  19  20
ENDBRANCH   2  19
TORSDOF 4
ENDMDL
MODEL 7
REMARK VINA RESULT:      -7.9      1.800      2.612
REMARK  Name = 
REMARK  6 active torsions:
REMARK  status: ('A' for Active; 'I' for Inactive)
REMARK    1  A    between atoms: C_1  and  C_2
REMARK    2  A    between atoms: C_3  and  N_4
REMARK    3  A    between atoms: C_5  and  C_7
REMARK    4  A    between atoms: C_7  and  C_8
REMARK    5  A    between atoms: N_20  and  C_21
REMARK    6  A    between atoms: N_27  and  C_28
REMARK                            x       y       z     vdW  Elec       q    Type
REMARK                         _______ _______ _______ _____ _____    ______ ____
ROOT
ATOM      1  N   UNL     1       0.329   9.758  20.110  0.00  0.00    +0.000 N 
ATOM      2  C   UNL     1       0.415   8.704  21.010  0.00  0.00    +0.000 C 
ATOM      3  O   UNL     1      -0.500   8.320  21.727  0.00  0.00    +0.000 OA
ATOM      4  H   UNL     1       1.202  10.207  19.846  0.00  0.00    +0.000 HD
ENDROOT
BRANCH   1   7
ATOM      5  C   UNL     1      -1.531   9.887  17.484  0.00  0.00    +0.000 C 
ATOM      6  C   UNL     1      -1.673  10.542  18.825  0.00  0.00    +0.000 A 
ATOM      7  C   UNL     1      -0.789  10.508  19.840  0.00  0.00    +0.000 A 
ATOM      8  C   UNL     1      -1.185  11.645  20.737  0.00  0.00    +0.000 A 
ATOM      9  O   UNL     1      -0.564  11.944  21.747  0.00  0.00    +0.000 OA
ATOM     10  N   UNL     1      -2.333  12.213  20.176  0.00  0.00    +0.000 N 
ATOM     11  N   UNL     1      -2.739  11.425  19.081  0.00  0.00    +0.000 N 
ATOM     12  C   UNL     1      -3.517  12.045  18.012  0.00  0.00    +0.000 C 
BRANCH  10  13
ATOM     13  C   UNL     1      -3.136  13.182  20.803  0.00  0.00    +0.000 A 
ATOM     14  C   UNL     1      -4.274  12.759  21.499  0.00  0.00    +0.000 A 
ATOM     15  C   UNL     1      -5.069  13.678  22.185  0.00  0.00    +0.000 A 
ATOM     16  C   UNL     1      -4.760  15.036  22.138  0.00  0.00    +0.000 A 
ATOM     17  C   UNL     1      -3.643  15.470  21.422  0.00  0.00    +0.000 A 
ATOM     18  C   UNL     1      -2.821  14.545  20.772  0.00  0.00    +0.000 A 
ENDBRANCH  10  13
ENDBRANCH   1   7
BRANCH   2  19
ATOM     19  C   UNL     1       1.788   8.056  21.084  0.00  0.00    +0.000 C 
BRANCH  19  20
ATOM     20  C   UNL     1       1.946   6.906  20.116  0.00  0.00    +0.000 A 
ATOM     21  C   UNL     1       2.548   7.100  18.869  0.00  0.00    +0.000 A 
ATOM     22  C   UNL     1       2.739   6.022  18.001  0.00  0.00    +0.000 A 
ATOM     23  C   UNL     1       2.343   4.728  18.366  0.00  0.00    +0.000 A 
ATOM     24  C   UNL     1       1.685   4.531  19.590  0.00  0.00    +0.000 A 
ATOM     25  C   UNL     1       1.485   5.624  20.448  0.00  0.00    +0.000 A 
ATOM     26  C   UNL     1       1.278   3.155  20.059  0.00  0.00    +0.000 C 
ATOM     27  C   UNL     1       1.255   2.113  18.943  0.00  0.00    +0.000 C 
ATOM     28  C   UNL     1       2.513   2.215  18.092  0.00  0.00    +0.000 C 
ATOM     29  C   UNL     1       2.594   3.582  17.415  0.00  0.00    +0.000 C 
ENDBRANCH  19  20
ENDBRANCH   2  19
TORSDOF 4
ENDMDL
MODEL 8
REMARK VINA RESULT:      -7.8      1.725      3.462
REMARK  Name = 
REMARK  6 active torsions:
REMARK  status: ('A' for Active; 'I' for Inactive)
REMARK    1  A    between atoms: C_1  and  C_2
REMARK    2  A    between atoms: C_3  and  N_4
REMARK    3  A    between atoms: C_5  and  C_7
REMARK    4  A    between atoms: C_7  and  C_8
REMARK    5  A    between atoms: N_20  and  C_21
REMARK    6  A    between atoms: N_27  and  C_28
REMARK                            x       y       z     vdW  Elec       q    Type
REMARK                         _______ _______ _______ _____ _____    ______ ____
ROOT
ATOM      1  N   UNL     1       1.937  10.751  18.877  0.00  0.00    +0.000 N 
ATOM      2  C   UNL     1       1.424   9.700  18.130  0.00  0.00    +0.000 C 
ATOM      3  O   UNL     1       0.251   9.587  17.794  0.00  0.00    +0.000 OA
ATOM      4  H   UNL     1       2.799  10.573  19.387  0.00  0.00    +0.000 HD
ENDROOT
BRANCH   1   7
ATOM      5  C   UNL     1      -0.599  10.978  20.849  0.00  0.00    +0.000 C 
ATOM      6  C   UNL     1       0.254  12.035  20.216  0.00  0.00    +0.000 A 
ATOM      7  C   UNL     1       1.243  11.849  19.320  0.00  0.00    +0.000 A 
ATOM      8  C   UNL     1       1.455  13.197  18.693  0.00  0.00    +0.000 A 
ATOM      9  O   UNL     1       2.258  13.392  17.791  0.00  0.00    +0.000 OA
ATOM     10  N   UNL     1       0.589  14.080  19.344  0.00  0.00    +0.000 N 
ATOM     11  N   UNL     1      -0.037  13.399  20.407  0.00  0.00    +0.000 N 
ATOM     12  C   UNL     1      -1.339  13.864  20.877  0.00  0.00    +0.000 C 
BRANCH  10  13
ATOM     13  C   UNL     1       0.607  15.477  19.192  0.00  0.00    +0.000 A 
ATOM     14  C   UNL     1       1.617  16.207  19.830  0.00  0.00    +0.000 A 
ATOM     15  C   UNL     1       1.709  17.589  19.661  0.00  0.00    +0.000 A 
ATOM     16  C   UNL     1       0.760  18.260  18.893  0.00  0.00    +0.000 A 
ATOM     17  C   UNL     1      -0.268  17.545  18.277  0.00  0.00    +0.000 A 
ATOM     18  C   UNL     1      -0.335  16.154  18.409  0.00  0.00    +0.000 A 
ENDBRANCH  10  13
ENDBRANCH   1   7
BRANCH   2  19
ATOM     19  C   UNL     1       2.442   8.628  17.776  0.00  0.00    +0.000 C 
BRANCH  19  20
ATOM     20  C   UNL     1       2.252   7.355  18.568  0.00  0.00    +0.000 A 
ATOM     21  C   UNL     1       2.047   7.398  19.951  0.00  0.00    +0.000 A 
ATOM     22  C   UNL     1       1.820   6.221  20.667  0.00  0.00    +0.000 A 
ATOM     23  C   UNL     1       1.781   4.979  20.017  0.00  0.00    +0.000 A 
ATOM     24  C   UNL     1       2.043   4.918  18.639  0.00  0.00    +0.000 A 
ATOM     25  C   UNL     1       2.286   6.106  17.931  0.00  0.00    +0.000 A 
ATOM     26  C   UNL     1       1.970   3.619  17.875  0.00  0.00    +0.000 C 
ATOM     27  C   UNL     1       2.014   2.382  18.770  0.00  0.00    +0.000 C 
ATOM     28  C   UNL     1       1.072   2.547  19.955  0.00  0.00    +0.000 C 
ATOM     29  C   UNL     1       1.502   3.732  20.820  0.00  0.00    +0.000 C 
ENDBRANCH  19  20
ENDBRANCH   2  19
TORSDOF 4
ENDMDL
MODEL 9
REMARK VINA RESULT:      -7.8      1.713      2.500
REMARK  Name = 
REMARK  6 active torsions:
REMARK  status: ('A' for Active; 'I' for Inactive)
REMARK    1  A    between atoms: C_1  and  C_2
REMARK    2  A    between atoms: C_3  and  N_4
REMARK    3  A    between atoms: C_5  and  C_7
REMARK    4  A    between atoms: C_7  and  C_8
REMARK    5  A    between atoms: N_20  and  C_21
REMARK    6  A    between atoms: N_27  and  C_28
REMARK                            x       y       z     vdW  Elec       q    Type
REMARK                         _______ _______ _______ _____ _____    ______ ____
ROOT
ATOM      1  N   UNL     1       1.302   9.028  19.284  0.00  0.00    +0.000 N 
ATOM      2  C   UNL     1       2.158   9.075  18.192  0.00  0.00    +0.000 C 
ATOM      3  O   UNL     1       2.106   9.911  17.298  0.00  0.00    +0.000 OA
ATOM      4  H   UNL     1       1.202   8.128  19.748  0.00  0.00    +0.000 HD
ENDROOT
BRANCH   1   7
ATOM      5  C   UNL     1      -1.264   9.928  17.559  0.00  0.00    +0.000 C 
ATOM      6  C   UNL     1      -0.850  10.268  18.959  0.00  0.00    +0.000 A 
ATOM      7  C   UNL     1       0.298   9.919  19.571  0.00  0.00    +0.000 A 
ATOM      8  C   UNL     1       0.410  10.851  20.742  0.00  0.00    +0.000 A 
ATOM      9  O   UNL     1       1.368  10.851  21.503  0.00  0.00    +0.000 OA
ATOM     10  N   UNL     1      -0.746  11.636  20.739  0.00  0.00    +0.000 N 
ATOM     11  N   UNL     1      -1.612  11.162  19.734  0.00  0.00    +0.000 N 
ATOM     12  C   UNL     1      -2.582  12.080  19.144  0.00  0.00    +0.000 C 
BRANCH  10  13
ATOM     13  C   UNL     1      -1.128  12.504  21.776  0.00  0.00    +0.000 A 
ATOM     14  C   UNL     1      -2.138  12.094  22.655  0.00  0.00    +0.000 A 
ATOM     15  C   UNL     1      -2.510  12.897  23.734  0.00  0.00    +0.000 A 
ATOM     16  C   UNL     1      -1.910  14.142  23.913  0.00  0.00    +0.000 A 
ATOM     17  C   UNL     1      -0.923  14.573  23.025  0.00  0.00    +0.000 A 
ATOM     18  C   UNL     1      -0.518  13.748  21.970  0.00  0.00    +0.000 A 
ENDBRANCH  10  13
ENDBRANCH   1   7
BRANCH   2  19
ATOM     19  C   UNL     1       3.181   7.952  18.149  0.00  0.00    +0.000 C 
BRANCH  19  20
ATOM     20  C   UNL     1       2.577   6.598  18.442  0.00  0.00    +0.000 A 
ATOM     21  C   UNL     1       1.954   5.860  17.430  0.00  0.00    +0.000 A 
ATOM     22  C   UNL     1       1.445   4.586  17.696  0.00  0.00    +0.000 A 
ATOM     23  C   UNL     1       1.558   4.020  18.973  0.00  0.00    +0.000 A 
ATOM     24  C   UNL     1       2.129   4.774  20.011  0.00  0.00    +0.000 A 
ATOM     25  C   UNL     1       2.623   6.059  19.736  0.00  0.00    +0.000 A 
ATOM     26  C   UNL     1       2.321   4.202  21.394  0.00  0.00    +0.000 C 
ATOM     27  C   UNL     1       1.484   2.953  21.658  0.00  0.00    +0.000 C 
ATOM     28  C   UNL     1       1.581   1.987  20.485  0.00  0.00    +0.000 C 
ATOM     29  C   UNL     1       1.024   2.629  19.215  0.00  0.00    +0.000 C 
ENDBRANCH  19  20
ENDBRANCH   2  19
TORSDOF 4
ENDMDL
