MODEL 1
REMARK VINA RESULT:      -7.8      0.000      0.000
REMARK  Name = 
REMARK  7 active torsions:
REMARK  status: ('A' for Active; 'I' for Inactive)
REMARK    1  A    between atoms: C_1  and  N_2
REMARK    2  A    between atoms: C_6  and  C_7
REMARK    3  A    between atoms: C_7  and  C_8
REMARK    4  A    between atoms: C_7  and  C_9
REMARK    5  A    between atoms: C_7  and  C_10
REMARK    6  A    between atoms: C_11  and  N_12
REMARK    7  A    between atoms: C_19  and  C_20
REMARK                            x       y       z     vdW  Elec       q    Type
REMARK                         _______ _______ _______ _____ _____    ______ ____
ROOT
ATOM      1  C   UNL     1       3.677   4.662  17.787  0.00  0.00    +0.000 C 
ATOM      2  C   UNL     1       3.798   5.995  18.116  0.00  0.00    +0.000 C 
ATOM      3  C   UNL     1       5.043   6.780  17.696  0.00  0.00    +0.000 C 
ATOM      4  C   UNL     1       6.319   5.934  17.613  0.00  0.00    +0.000 C 
ATOM      5  C   UNL     1       6.039   4.604  17.009  0.00  0.00    +0.000 C 
ATOM      6  C   UNL     1       4.820   4.070  17.064  0.00  0.00    +0.000 C 
ENDROOT
BRANCH   2   7
ATOM      7  N   UNL     1       2.833   6.766  18.738  0.00  0.00    +0.000 N 
ATOM      8  C   UNL     1       1.986   7.791  18.125  0.00  0.00    +0.000 C 
ATOM      9  C   UNL     1       1.495   8.562  19.318  0.00  0.00    +0.000 A 
ATOM     10  C   UNL     1       1.693   7.785  20.459  0.00  0.00    +0.000 A 
ATOM     11  C   UNL     1       1.358   8.193  21.734  0.00  0.00    +0.000 A 
ATOM     12  C   UNL     1       0.781   9.452  21.873  0.00  0.00    +0.000 A 
ATOM     13  C   UNL     1       0.601  10.272  20.749  0.00  0.00    +0.000 A 
ATOM     14  C   UNL     1       0.969   9.856  19.451  0.00  0.00    +0.000 A 
ATOM     15  C   UNL     1       2.485   6.604  20.085  0.00  0.00    +0.000 C 
ATOM     16  O   UNL     1       2.855   5.769  20.888  0.00  0.00    +0.000 OA
BRANCH  14  17
ATOM     17  C   UNL     1       0.864  10.826  18.302  0.00  0.00    +0.000 C 
ATOM     18  F   UNL     1       2.024  11.025  17.634  0.00  0.00    +0.000 F 
ATOM     19  F   UNL     1      -0.027  10.387  17.361  0.00  0.00    +0.000 F 
ATOM     20  F   UNL     1       0.402  12.056  18.670  0.00  0.00    +0.000 F 
ENDBRANCH  14  17
ENDBRANCH   2   7
BRANCH   1  21
ATOM     21  C   UNL     1       2.459   3.697  18.000  0.00  0.00    +0.000 C 
ATOM     22  C   UNL     1       2.644   2.440  17.077  0.00  0.00    +0.000 C 
ATOM     23  C   UNL     1       1.092   4.249  17.485  0.00  0.00    +0.000 C 
BRANCH  21  29
ATOM     24  C   UNL     1       4.499   2.261  20.199  0.00  0.00    +0.000 C 
ATOM     25  N   UNL     1       3.116   2.624  20.321  0.00  0.00    +0.000 N 
ATOM     26  C   UNL     1       2.391   2.379  21.454  0.00  0.00    +0.000 A 
ATOM     27  N   UNL     1       1.172   2.798  21.313  0.00  0.00    +0.000 NA
ATOM     28  N   UNL     1       1.065   3.331  20.059  0.00  0.00    +0.000 NA
ATOM     29  C   UNL     1       2.233   3.226  19.441  0.00  0.00    +0.000 A 
ENDBRANCH  21  29
ENDBRANCH   1  21
TORSDOF 4
ENDMDL
MODEL 2
REMARK VINA RESULT:      -7.1      6.542      9.391
REMARK  Name = 
REMARK  7 active torsions:
REMARK  status: ('A' for Active; 'I' for Inactive)
REMARK    1  A    between atoms: C_1  and  N_2
REMARK    2  A    between atoms: C_6  and  C_7
REMARK    3  A    between atoms: C_7  and  C_8
REMARK    4  A    between atoms: C_7  and  C_9
REMARK    5  A    between atoms: C_7  and  C_10
REMARK    6  A    between atoms: C_11  and  N_12
REMARK    7  A    between atoms: C_19  and  C_20
REMARK                            x       y       z     vdW  Elec       q    Type
REMARK                         _______ _______ _______ _____ _____    ______ ____
ROOT
ATOM      1  C   UNL     1      -0.745  11.196  20.561  0.00  0.00    +0.000 C 
ATOM      2  C   UNL     1      -0.825  11.202  21.937  0.00  0.00    +0.000 C 
ATOM      3  C   UNL     1      -0.045  10.171  22.756  0.00  0.00    +0.000 C 
ATOM      4  C   UNL     1       0.152   8.826  22.045  0.00  0.00    +0.000 C 
ATOM      5  C   UNL     1       0.467   9.025  20.606  0.00  0.00    +0.000 C 
ATOM      6  C   UNL     1       0.086  10.130  19.967  0.00  0.00    +0.000 C 
ENDROOT
BRANCH   2   7
ATOM      7  N   UNL     1      -1.493  12.138  22.704  0.00  0.00    +0.000 N 
ATOM      8  C   UNL     1      -2.789  11.978  23.369  0.00  0.00    +0.000 C 
ATOM      9  C   UNL     1      -3.190  13.400  23.643  0.00  0.00    +0.000 A 
ATOM     10  C   UNL     1      -2.057  14.207  23.541  0.00  0.00    +0.000 A 
ATOM     11  C   UNL     1      -2.069  15.574  23.727  0.00  0.00    +0.000 A 
ATOM     12  C   UNL     1      -3.288  16.167  24.045  0.00  0.00    +0.000 A 
ATOM     13  C   UNL     1      -4.452  15.387  24.121  0.00  0.00    +0.000 A 
ATOM     14  C   UNL     1      -4.435  13.992  23.904  0.00  0.00    +0.000 A 
ATOM     15  C   UNL     1      -0.954  13.394  23.009  0.00  0.00    +0.000 C 
ATOM     16  O   UNL     1       0.148  13.846  22.766  0.00  0.00    +0.000 OA
BRANCH  14  17
ATOM     17  C   UNL     1      -5.734  13.228  23.879  0.00  0.00    +0.000 C 
ATOM     18  F   UNL     1      -6.011  12.640  22.693  0.00  0.00    +0.000 F 
ATOM     19  F   UNL     1      -5.732  12.213  24.797  0.00  0.00    +0.000 F 
ATOM     20  F   UNL     1      -6.819  13.990  24.207  0.00  0.00    +0.000 F 
ENDBRANCH  14  17
ENDBRANCH   2   7
BRANCH   1  21
ATOM     21  C   UNL     1      -1.348  12.215  19.530  0.00  0.00    +0.000 C 
ATOM     22  C   UNL     1      -2.860  12.451  19.881  0.00  0.00    +0.000 C 
ATOM     23  C   UNL     1      -1.459  11.674  18.069  0.00  0.00    +0.000 C 
BRANCH  21  29
ATOM     24  C   UNL     1       1.729  13.043  18.579  0.00  0.00    +0.000 C 
ATOM     25  N   UNL     1       0.653  13.868  19.051  0.00  0.00    +0.000 N 
ATOM     26  C   UNL     1       0.780  15.221  19.206  0.00  0.00    +0.000 A 
ATOM     27  N   UNL     1      -0.327  15.733  19.644  0.00  0.00    +0.000 NA
ATOM     28  N   UNL     1      -1.220  14.710  19.797  0.00  0.00    +0.000 NA
ATOM     29  C   UNL     1      -0.638  13.571  19.449  0.00  0.00    +0.000 A 
ENDBRANCH  21  29
ENDBRANCH   1  21
TORSDOF 4
ENDMDL
MODEL 3
REMARK VINA RESULT:      -7.1      6.096      8.575
REMARK  Name = 
REMARK  7 active torsions:
REMARK  status: ('A' for Active; 'I' for Inactive)
REMARK    1  A    between atoms: C_1  and  N_2
REMARK    2  A    between atoms: C_6  and  C_7
REMARK    3  A    between atoms: C_7  and  C_8
REMARK    4  A    between atoms: C_7  and  C_9
REMARK    5  A    between atoms: C_7  and  C_10
REMARK    6  A    between atoms: C_11  and  N_12
REMARK    7  A    between atoms: C_19  and  C_20
REMARK                            x       y       z     vdW  Elec       q    Type
REMARK                         _______ _______ _______ _____ _____    ______ ____
ROOT
ATOM      1  C   UNL     1      -0.932  10.738  18.764  0.00  0.00    +0.000 C 
ATOM      2  C   UNL     1      -1.929  11.615  19.130  0.00  0.00    +0.000 C 
ATOM      3  C   UNL     1      -3.241  11.658  18.344  0.00  0.00    +0.000 C 
ATOM      4  C   UNL     1      -3.093  11.305  16.859  0.00  0.00    +0.000 C 
ATOM      5  C   UNL     1      -2.150  10.170  16.672  0.00  0.00    +0.000 C 
ATOM      6  C   UNL     1      -1.206   9.909  17.574  0.00  0.00    +0.000 C 
ENDROOT
BRANCH   2   7
ATOM      7  N   UNL     1      -1.913  12.442  20.239  0.00  0.00    +0.000 N 
ATOM      8  C   UNL     1      -2.248  12.083  21.619  0.00  0.00    +0.000 C 
ATOM      9  C   UNL     1      -2.484  13.423  22.254  0.00  0.00    +0.000 A 
ATOM     10  C   UNL     1      -1.919  14.405  21.441  0.00  0.00    +0.000 A 
ATOM     11  C   UNL     1      -1.958  15.755  21.726  0.00  0.00    +0.000 A 
ATOM     12  C   UNL     1      -2.595  16.143  22.901  0.00  0.00    +0.000 A 
ATOM     13  C   UNL     1      -3.204  15.183  23.722  0.00  0.00    +0.000 A 
ATOM     14  C   UNL     1      -3.180  13.806  23.411  0.00  0.00    +0.000 A 
ATOM     15  C   UNL     1      -1.489  13.776  20.184  0.00  0.00    +0.000 C 
ATOM     16  O   UNL     1      -1.003  14.400  19.260  0.00  0.00    +0.000 OA
BRANCH  14  17
ATOM     17  C   UNL     1      -3.956  12.837  24.267  0.00  0.00    +0.000 C 
ATOM     18  F   UNL     1      -5.255  12.702  23.916  0.00  0.00    +0.000 F 
ATOM     19  F   UNL     1      -3.427  11.577  24.195  0.00  0.00    +0.000 F 
ATOM     20  F   UNL     1      -3.934  13.148  25.596  0.00  0.00    +0.000 F 
ENDBRANCH  14  17
ENDBRANCH   2   7
BRANCH   1  21
ATOM     21  C   UNL     1       0.431  10.433  19.482  0.00  0.00    +0.000 C 
ATOM     22  C   UNL     1       1.338   9.601  18.507  0.00  0.00    +0.000 C 
ATOM     23  C   UNL     1       0.324   9.458  20.697  0.00  0.00    +0.000 C 
BRANCH  21  29
ATOM     24  C   UNL     1       2.038  12.821  17.817  0.00  0.00    +0.000 C 
ATOM     25  N   UNL     1       1.875  12.628  19.230  0.00  0.00    +0.000 N 
ATOM     26  C   UNL     1       2.433  13.468  20.154  0.00  0.00    +0.000 A 
ATOM     27  N   UNL     1       2.141  13.079  21.355  0.00  0.00    +0.000 NA
ATOM     28  N   UNL     1       1.376  11.951  21.247  0.00  0.00    +0.000 NA
ATOM     29  C   UNL     1       1.213  11.659  19.964  0.00  0.00    +0.000 A 
ENDBRANCH  21  29
ENDBRANCH   1  21
TORSDOF 4
ENDMDL
MODEL 4
REMARK VINA RESULT:      -7.1      5.336      9.565
REMARK  Name = 
REMARK  7 active torsions:
REMARK  status: ('A' for Active; 'I' for Inactive)
REMARK    1  A    between atoms: C_1  and  N_2
REMARK    2  A    between atoms: C_6  and  C_7
REMARK    3  A    between atoms: C_7  and  C_8
REMARK    4  A    between atoms: C_7  and  C_9
REMARK    5  A    between atoms: C_7  and  C_10
REMARK    6  A    between atoms: C_11  and  N_12
REMARK    7  A    between atoms: C_19  and  C_20
REMARK                            x       y       z     vdW  Elec       q    Type
REMARK                         _______ _______ _______ _____ _____    ______ ____
ROOT
ATOM      1  C   UNL     1      -2.357  14.319  21.330  0.00  0.00    +0.000 C 
ATOM      2  C   UNL     1      -2.359  13.029  20.845  0.00  0.00    +0.000 C 
ATOM      3  C   UNL     1      -3.561  12.510  20.052  0.00  0.00    +0.000 C 
ATOM      4  C   UNL     1      -4.900  13.135  20.462  0.00  0.00    +0.000 C 
ATOM      5  C   UNL     1      -4.752  14.592  20.718  0.00  0.00    +0.000 C 
ATOM      6  C   UNL     1      -3.576  15.110  21.068  0.00  0.00    +0.000 C 
ENDROOT
BRANCH   2   7
ATOM      7  N   UNL     1      -1.309  12.134  20.922  0.00  0.00    +0.000 N 
ATOM      8  C   UNL     1      -0.323  11.831  19.882  0.00  0.00    +0.000 C 
ATOM      9  C   UNL     1       0.249  10.523  20.349  0.00  0.00    +0.000 A 
ATOM     10  C   UNL     1      -0.067  10.357  21.697  0.00  0.00    +0.000 A 
ATOM     11  C   UNL     1       0.302   9.256  22.443  0.00  0.00    +0.000 A 
ATOM     12  C   UNL     1       1.040   8.266  21.802  0.00  0.00    +0.000 A 
ATOM     13  C   UNL     1       1.344   8.386  20.438  0.00  0.00    +0.000 A 
ATOM     14  C   UNL     1       0.942   9.505  19.676  0.00  0.00    +0.000 A 
ATOM     15  C   UNL     1      -1.004  11.420  22.088  0.00  0.00    +0.000 C 
ATOM     16  O   UNL     1      -1.494  11.500  23.199  0.00  0.00    +0.000 OA
BRANCH  14  17
ATOM     17  C   UNL     1       1.193   9.520  18.189  0.00  0.00    +0.000 C 
ATOM     18  F   UNL     1       1.766   8.393  17.710  0.00  0.00    +0.000 F 
ATOM     19  F   UNL     1       0.025   9.660  17.490  0.00  0.00    +0.000 F 
ATOM     20  F   UNL     1       1.969  10.565  17.780  0.00  0.00    +0.000 F 
ENDBRANCH  14  17
ENDBRANCH   2   7
BRANCH   1  21
ATOM     21  C   UNL     1      -1.205  15.102  22.055  0.00  0.00    +0.000 C 
ATOM     22  C   UNL     1      -1.225  14.729  23.580  0.00  0.00    +0.000 C 
ATOM     23  C   UNL     1      -1.410  16.649  22.121  0.00  0.00    +0.000 C 
BRANCH  21  29
ATOM     24  C   UNL     1       0.128  15.707  19.069  0.00  0.00    +0.000 C 
ATOM     25  N   UNL     1       0.715  15.128  20.244  0.00  0.00    +0.000 N 
ATOM     26  C   UNL     1       2.010  14.688  20.276  0.00  0.00    +0.000 A 
ATOM     27  N   UNL     1       2.297  14.208  21.445  0.00  0.00    +0.000 NA
ATOM     28  N   UNL     1       1.175  14.316  22.220  0.00  0.00    +0.000 NA
ATOM     29  C   UNL     1       0.205  14.864  21.503  0.00  0.00    +0.000 A 
ENDBRANCH  21  29
ENDBRANCH   1  21
TORSDOF 4
ENDMDL
MODEL 5
REMARK VINA RESULT:      -7.0      6.979      9.898
REMARK  Name = 
REMARK  7 active torsions:
REMARK  status: ('A' for Active; 'I' for Inactive)
REMARK    1  A    between atoms: C_1  and  N_2
REMARK    2  A    between atoms: C_6  and  C_7
REMARK    3  A    between atoms: C_7  and  C_8
REMARK    4  A    between atoms: C_7  and  C_9
REMARK    5  A    between atoms: C_7  and  C_10
REMARK    6  A    between atoms: C_11  and  N_12
REMARK    7  A    between atoms: C_19  and  C_20
REMARK                            x       y       z     vdW  Elec       q    Type
REMARK                         _______ _______ _______ _____ _____    ______ ____
ROOT
ATOM      1  C   UNL     1      -1.131  11.462  20.896  0.00  0.00    +0.000 C 
ATOM      2  C   UNL     1      -1.290  11.443  22.265  0.00  0.00    +0.000 C 
ATOM      3  C   UNL     1      -0.598  10.366  23.103  0.00  0.00    +0.000 C 
ATOM      4  C   UNL     1      -0.410   9.030  22.375  0.00  0.00    +0.000 C 
ATOM      5  C   UNL     1      -0.006   9.246  20.961  0.00  0.00    +0.000 C 
ATOM      6  C   UNL     1      -0.308  10.377  20.327  0.00  0.00    +0.000 C 
ENDROOT
BRANCH   2   7
ATOM      7  N   UNL     1      -1.967  12.388  23.014  0.00  0.00    +0.000 N 
ATOM      8  C   UNL     1      -3.353  12.323  23.481  0.00  0.00    +0.000 C 
ATOM      9  C   UNL     1      -3.648  13.756  23.822  0.00  0.00    +0.000 A 
ATOM     10  C   UNL     1      -2.438  14.440  23.945  0.00  0.00    +0.000 A 
ATOM     11  C   UNL     1      -2.342  15.782  24.248  0.00  0.00    +0.000 A 
ATOM     12  C   UNL     1      -3.529  16.481  24.449  0.00  0.00    +0.000 A 
ATOM     13  C   UNL     1      -4.763  15.830  24.297  0.00  0.00    +0.000 A 
ATOM     14  C   UNL     1      -4.853  14.461  23.964  0.00  0.00    +0.000 A 
ATOM     15  C   UNL     1      -1.355  13.551  23.499  0.00  0.00    +0.000 C 
ATOM     16  O   UNL     1      -0.190  13.896  23.448  0.00  0.00    +0.000 OA
BRANCH  14  17
ATOM     17  C   UNL     1      -6.204  13.849  23.696  0.00  0.00    +0.000 C 
ATOM     18  F   UNL     1      -6.494  12.780  24.473  0.00  0.00    +0.000 F 
ATOM     19  F   UNL     1      -7.211  14.747  23.923  0.00  0.00    +0.000 F 
ATOM     20  F   UNL     1      -6.375  13.456  22.400  0.00  0.00    +0.000 F 
ENDBRANCH  14  17
ENDBRANCH   2   7
BRANCH   1  21
ATOM     21  C   UNL     1      -1.635  12.524  19.856  0.00  0.00    +0.000 C 
ATOM     22  C   UNL     1      -3.205  12.504  19.837  0.00  0.00    +0.000 C 
ATOM     23  C   UNL     1      -1.312  12.182  18.367  0.00  0.00    +0.000 C 
BRANCH  21  29
ATOM     24  C   UNL     1       1.409  13.863  19.898  0.00  0.00    +0.000 C 
ATOM     25  N   UNL     1       0.127  14.473  20.109  0.00  0.00    +0.000 N 
ATOM     26  C   UNL     1      -0.013  15.801  20.407  0.00  0.00    +0.000 A 
ATOM     27  N   UNL     1      -1.265  16.104  20.552  0.00  0.00    +0.000 NA
ATOM     28  N   UNL     1      -1.989  14.961  20.356  0.00  0.00    +0.000 NA
ATOM     29  C   UNL     1      -1.158  13.961  20.095  0.00  0.00    +0.000 A 
ENDBRANCH  21  29
ENDBRANCH   1  21
TORSDOF 4
ENDMDL
MODEL 6
REMARK VINA RESULT:      -7.0      6.936      9.651
REMARK  Name = 
REMARK  7 active torsions:
REMARK  status: ('A' for Active; 'I' for Inactive)
REMARK    1  A    between atoms: C_1  and  N_2
REMARK    2  A    between atoms: C_6  and  C_7
REMARK    3  A    between atoms: C_7  and  C_8
REMARK    4  A    between atoms: C_7  and  C_9
REMARK    5  A    between atoms: C_7  and  C_10
REMARK    6  A    between atoms: C_11  and  N_12
REMARK    7  A    between atoms: C_19  and  C_20
REMARK                            x       y       z     vdW  Elec       q    Type
REMARK                         _______ _______ _______ _____ _____    ______ ____
ROOT
ATOM      1  C   UNL     1      -1.168  11.434  20.842  0.00  0.00    +0.000 C 
ATOM      2  C   UNL     1      -1.283  11.424  22.215  0.00  0.00    +0.000 C 
ATOM      3  C   UNL     1      -0.536  10.374  23.041  0.00  0.00    +0.000 C 
ATOM      4  C   UNL     1      -0.335   9.036  22.319  0.00  0.00    +0.000 C 
ATOM      5  C   UNL     1       0.018   9.249  20.890  0.00  0.00    +0.000 C 
ATOM      6  C   UNL     1      -0.334  10.366  20.256  0.00  0.00    +0.000 C 
ENDROOT
BRANCH   2   7
ATOM      7  N   UNL     1      -1.961  12.357  22.978  0.00  0.00    +0.000 N 
ATOM      8  C   UNL     1      -3.342  12.276  23.459  0.00  0.00    +0.000 C 
ATOM      9  C   UNL     1      -3.648  13.704  23.811  0.00  0.00    +0.000 A 
ATOM     10  C   UNL     1      -2.443  14.399  23.926  0.00  0.00    +0.000 A 
ATOM     11  C   UNL     1      -2.357  15.741  24.235  0.00  0.00    +0.000 A 
ATOM     12  C   UNL     1      -3.550  16.426  24.453  0.00  0.00    +0.000 A 
ATOM     13  C   UNL     1      -4.778  15.764  24.311  0.00  0.00    +0.000 A 
ATOM     14  C   UNL     1      -4.858  14.396  23.970  0.00  0.00    +0.000 A 
ATOM     15  C   UNL     1      -1.356  13.524  23.462  0.00  0.00    +0.000 C 
ATOM     16  O   UNL     1      -0.196  13.881  23.400  0.00  0.00    +0.000 OA
BRANCH  14  17
ATOM     17  C   UNL     1      -6.206  13.771  23.714  0.00  0.00    +0.000 C 
ATOM     18  F   UNL     1      -6.454  12.664  24.450  0.00  0.00    +0.000 F 
ATOM     19  F   UNL     1      -7.220  14.640  24.009  0.00  0.00    +0.000 F 
ATOM     20  F   UNL     1      -6.408  13.433  22.407  0.00  0.00    +0.000 F 
ENDBRANCH  14  17
ENDBRANCH   2   7
BRANCH   1  21
ATOM     21  C   UNL     1      -1.733  12.472  19.809  0.00  0.00    +0.000 C 
ATOM     22  C   UNL     1      -0.908  12.358  18.478  0.00  0.00    +0.000 C 
ATOM     23  C   UNL     1      -1.489  13.967  20.187  0.00  0.00    +0.000 C 
BRANCH  21  29
ATOM     24  C   UNL     1      -3.358  10.465  17.714  0.00  0.00    +0.000 C 
ATOM     25  N   UNL     1      -3.858  11.483  18.594  0.00  0.00    +0.000 N 
ATOM     26  C   UNL     1      -5.186  11.802  18.668  0.00  0.00    +0.000 A 
ATOM     27  N   UNL     1      -5.378  12.750  19.530  0.00  0.00    +0.000 NA
ATOM     28  N   UNL     1      -4.158  13.087  20.047  0.00  0.00    +0.000 NA
ATOM     29  C   UNL     1      -3.224  12.334  19.483  0.00  0.00    +0.000 A 
ENDBRANCH  21  29
ENDBRANCH   1  21
TORSDOF 4
ENDMDL
MODEL 7
REMARK VINA RESULT:      -6.9      0.662      1.175
REMARK  Name = 
REMARK  7 active torsions:
REMARK  status: ('A' for Active; 'I' for Inactive)
REMARK    1  A    between atoms: C_1  and  N_2
REMARK    2  A    between atoms: C_6  and  C_7
REMARK    3  A    between atoms: C_7  and  C_8
REMARK    4  A    between atoms: C_7  and  C_9
REMARK    5  A    between atoms: C_7  and  C_10
REMARK    6  A    between atoms: C_11  and  N_12
REMARK    7  A    between atoms: C_19  and  C_20
REMARK                            x       y       z     vdW  Elec       q    Type
REMARK                         _______ _______ _______ _____ _____    ______ ____
ROOT
ATOM      1  C   UNL     1       3.928   4.776  17.466  0.00  0.00    +0.000 C 
ATOM      2  C   UNL     1       3.924   6.126  17.741  0.00  0.00    +0.000 C 
ATOM      3  C   UNL     1       5.004   7.034  17.147  0.00  0.00    +0.000 C 
ATOM      4  C   UNL     1       6.354   6.342  16.929  0.00  0.00    +0.000 C 
ATOM      5  C   UNL     1       6.168   4.964  16.401  0.00  0.00    +0.000 C 
ATOM      6  C   UNL     1       5.040   4.293  16.623  0.00  0.00    +0.000 C 
ENDROOT
BRANCH   2   7
ATOM      7  N   UNL     1       2.954   6.803  18.457  0.00  0.00    +0.000 N 
ATOM      8  C   UNL     1       1.992   7.781  17.943  0.00  0.00    +0.000 C 
ATOM      9  C   UNL     1       1.536   8.476  19.195  0.00  0.00    +0.000 A 
ATOM     10  C   UNL     1       1.874   7.681  20.291  0.00  0.00    +0.000 A 
ATOM     11  C   UNL     1       1.605   8.024  21.600  0.00  0.00    +0.000 A 
ATOM     12  C   UNL     1       0.950   9.232  21.824  0.00  0.00    +0.000 A 
ATOM     13  C   UNL     1       0.628  10.069  20.746  0.00  0.00    +0.000 A 
ATOM     14  C   UNL     1       0.929   9.722  19.411  0.00  0.00    +0.000 A 
ATOM     15  C   UNL     1       2.719   6.575  19.819  0.00  0.00    +0.000 C 
ATOM     16  O   UNL     1       3.207   5.747  20.564  0.00  0.00    +0.000 OA
BRANCH  14  17
ATOM     17  C   UNL     1       0.668  10.716  18.308  0.00  0.00    +0.000 C 
ATOM     18  F   UNL     1       1.756  11.016  17.561  0.00  0.00    +0.000 F 
ATOM     19  F   UNL     1      -0.261  10.243  17.422  0.00  0.00    +0.000 F 
ATOM     20  F   UNL     1       0.154  11.899  18.753  0.00  0.00    +0.000 F 
ENDBRANCH  14  17
ENDBRANCH   2   7
BRANCH   1  21
ATOM     21  C   UNL     1       2.871   3.683  17.856  0.00  0.00    +0.000 C 
ATOM     22  C   UNL     1       2.941   2.518  16.806  0.00  0.00    +0.000 C 
ATOM     23  C   UNL     1       1.384   4.133  17.708  0.00  0.00    +0.000 C 
BRANCH  21  29
ATOM     24  C   UNL     1       0.657   3.190  20.287  0.00  0.00    +0.000 C 
ATOM     25  N   UNL     1       2.064   2.913  20.248  0.00  0.00    +0.000 N 
ATOM     26  C   UNL     1       2.738   2.385  21.315  0.00  0.00    +0.000 A 
ATOM     27  N   UNL     1       3.993   2.232  21.030  0.00  0.00    +0.000 NA
ATOM     28  N   UNL     1       4.178   2.670  19.748  0.00  0.00    +0.000 NA
ATOM     29  C   UNL     1       3.019   3.094  19.263  0.00  0.00    +0.000 A 
ENDBRANCH  21  29
ENDBRANCH   1  21
TORSDOF 4
ENDMDL
MODEL 8
REMARK VINA RESULT:      -6.9      2.525      4.367
REMARK  Name = 
REMARK  7 active torsions:
REMARK  status: ('A' for Active; 'I' for Inactive)
REMARK    1  A    between atoms: C_1  and  N_2
REMARK    2  A    between atoms: C_6  and  C_7
REMARK    3  A    between atoms: C_7  and  C_8
REMARK    4  A    between atoms: C_7  and  C_9
REMARK    5  A    between atoms: C_7  and  C_10
REMARK    6  A    between atoms: C_11  and  N_12
REMARK    7  A    between atoms: C_19  and  C_20
REMARK                            x       y       z     vdW  Elec       q    Type
REMARK                         _______ _______ _______ _____ _____    ______ ____
ROOT
ATOM      1  C   UNL     1       3.452   4.031  18.887  0.00  0.00    +0.000 C 
ATOM      2  C   UNL     1       2.313   4.746  19.189  0.00  0.00    +0.000 C 
ATOM      3  C   UNL     1       1.008   4.013  19.508  0.00  0.00    +0.000 C 
ATOM      4  C   UNL     1       0.852   2.669  18.786  0.00  0.00    +0.000 C 
ATOM      5  C   UNL     1       2.138   1.923  18.764  0.00  0.00    +0.000 C 
ATOM      6  C   UNL     1       3.303   2.562  18.855  0.00  0.00    +0.000 C 
ENDROOT
BRANCH   2   7
ATOM      7  N   UNL     1       2.233   6.119  19.330  0.00  0.00    +0.000 N 
ATOM      8  C   UNL     1       1.952   6.870  20.556  0.00  0.00    +0.000 C 
ATOM      9  C   UNL     1       1.556   8.219  20.027  0.00  0.00    +0.000 A 
ATOM     10  C   UNL     1       1.993   8.322  18.706  0.00  0.00    +0.000 A 
ATOM     11  C   UNL     1       1.791   9.434  17.915  0.00  0.00    +0.000 A 
ATOM     12  C   UNL     1       1.117  10.511  18.484  0.00  0.00    +0.000 A 
ATOM     13  C   UNL     1       0.634  10.425  19.797  0.00  0.00    +0.000 A 
ATOM     14  C   UNL     1       0.825   9.274  20.593  0.00  0.00    +0.000 A 
ATOM     15  C   UNL     1       2.491   7.006  18.278  0.00  0.00    +0.000 C 
ATOM     16  O   UNL     1       2.892   6.781  17.152  0.00  0.00    +0.000 OA
BRANCH  14  17
ATOM     17  C   UNL     1       0.178   9.194  21.952  0.00  0.00    +0.000 C 
ATOM     18  F   UNL     1       1.048   9.015  22.972  0.00  0.00    +0.000 F 
ATOM     19  F   UNL     1      -0.498  10.346  22.249  0.00  0.00    +0.000 F 
ATOM     20  F   UNL     1      -0.759   8.207  22.051  0.00  0.00    +0.000 F 
ENDBRANCH  14  17
ENDBRANCH   2   7
BRANCH   1  21
ATOM     21  C   UNL     1       4.913   4.552  18.648  0.00  0.00    +0.000 C 
ATOM     22  C   UNL     1       5.918   3.570  19.349  0.00  0.00    +0.000 C 
ATOM     23  C   UNL     1       5.252   5.894  19.370  0.00  0.00    +0.000 C 
BRANCH  21  29
ATOM     24  C   UNL     1       7.295   6.379  17.218  0.00  0.00    +0.000 C 
ATOM     25  N   UNL     1       6.324   5.501  16.629  0.00  0.00    +0.000 N 
ATOM     26  C   UNL     1       6.232   5.308  15.278  0.00  0.00    +0.000 A 
ATOM     27  N   UNL     1       5.278   4.476  15.002  0.00  0.00    +0.000 NA
ATOM     28  N   UNL     1       4.706   4.100  16.185  0.00  0.00    +0.000 NA
ATOM     29  C   UNL     1       5.324   4.720  17.181  0.00  0.00    +0.000 A 
ENDBRANCH  21  29
ENDBRANCH   1  21
TORSDOF 4
ENDMDL
MODEL 9
REMARK VINA RESULT:      -6.9      6.517      9.023
REMARK  Name = 
REMARK  7 active torsions:
REMARK  status: ('A' for Active; 'I' for Inactive)
REMARK    1  A    between atoms: C_1  and  N_2
REMARK    2  A    between atoms: C_6  and  C_7
REMARK    3  A    between atoms: C_7  and  C_8
REMARK    4  A    between atoms: C_7  and  C_9
REMARK    5  A    between atoms: C_7  and  C_10
REMARK    6  A    between atoms: C_11  and  N_12
REMARK    7  A    between atoms: C_19  and  C_20
REMARK                            x       y       z     vdW  Elec       q    Type
REMARK                         _______ _______ _______ _____ _____    ______ ____
ROOT
ATOM      1  C   UNL     1      -1.112  10.943  19.368  0.00  0.00    +0.000 C 
ATOM      2  C   UNL     1      -2.212  11.769  19.436  0.00  0.00    +0.000 C 
ATOM      3  C   UNL     1      -3.319  11.663  18.384  0.00  0.00    +0.000 C 
ATOM      4  C   UNL     1      -2.827  11.221  17.001  0.00  0.00    +0.000 C 
ATOM      5  C   UNL     1      -1.805  10.147  17.116  0.00  0.00    +0.000 C 
ATOM      6  C   UNL     1      -1.070  10.017  18.219  0.00  0.00    +0.000 C 
ENDROOT
BRANCH   2   7
ATOM      7  N   UNL     1      -2.487  12.669  20.450  0.00  0.00    +0.000 N 
ATOM      8  C   UNL     1      -3.262  12.423  21.668  0.00  0.00    +0.000 C 
ATOM      9  C   UNL     1      -3.593  13.815  22.128  0.00  0.00    +0.000 A 
ATOM     10  C   UNL     1      -2.733  14.708  21.489  0.00  0.00    +0.000 A 
ATOM     11  C   UNL     1      -2.765  16.074  21.679  0.00  0.00    +0.000 A 
ATOM     12  C   UNL     1      -3.710  16.575  22.570  0.00  0.00    +0.000 A 
ATOM     13  C   UNL     1      -4.612  15.706  23.202  0.00  0.00    +0.000 A 
ATOM     14  C   UNL     1      -4.587  14.312  22.984  0.00  0.00    +0.000 A 
ATOM     15  C   UNL     1      -1.975  13.972  20.466  0.00  0.00    +0.000 C 
ATOM     16  O   UNL     1      -1.182  14.505  19.715  0.00  0.00    +0.000 OA
BRANCH  14  17
ATOM     17  C   UNL     1      -5.658  13.445  23.596  0.00  0.00    +0.000 C 
ATOM     18  F   UNL     1      -5.207  12.587  24.540  0.00  0.00    +0.000 F 
ATOM     19  F   UNL     1      -6.614  14.201  24.218  0.00  0.00    +0.000 F 
ATOM     20  F   UNL     1      -6.345  12.701  22.680  0.00  0.00    +0.000 F 
ENDBRANCH  14  17
ENDBRANCH   2   7
BRANCH   1  21
ATOM     21  C   UNL     1       0.073  10.787  20.385  0.00  0.00    +0.000 C 
ATOM     22  C   UNL     1       0.917   9.524  19.986  0.00  0.00    +0.000 C 
ATOM     23  C   UNL     1      -0.360  10.412  21.838  0.00  0.00    +0.000 C 
BRANCH  21  29
ATOM     24  C   UNL     1       2.197  12.144  18.216  0.00  0.00    +0.000 C 
ATOM     25  N   UNL     1       1.886  12.522  19.565  0.00  0.00    +0.000 N 
ATOM     26  C   UNL     1       2.501  13.569  20.193  0.00  0.00    +0.000 A 
ATOM     27  N   UNL     1       2.049  13.703  21.401  0.00  0.00    +0.000 NA
ATOM     28  N   UNL     1       1.114  12.725  21.600  0.00  0.00    +0.000 NA
ATOM     29  C   UNL     1       1.010  11.994  20.498  0.00  0.00    +0.000 A 
ENDBRANCH  21  29
ENDBRANCH   1  21
TORSDOF 4
ENDMDL
