MODEL 1
REMARK VINA RESULT:      -9.6      0.000      0.000
REMARK  Name = 
REMARK  2 active torsions:
REMARK  status: ('A' for Active; 'I' for Inactive)
REMARK    1  A    between atoms: C_8  and  C_9
REMARK    2  A    between atoms: C_11  and  C_12
REMARK                            x       y       z     vdW  Elec       q    Type
REMARK                         _______ _______ _______ _____ _____    ______ ____
ROOT
ATOM      1  C   UNL     1       2.146   7.921  18.957  0.00  0.00    +0.000 C 
ATOM      2  C   UNL     1       1.645   8.965  18.272  0.00  0.00    +0.000 C 
ATOM      3  C   UNL     1       0.907  10.087  18.995  0.00  0.00    +0.000 C 
ATOM      4  N   UNL     1       0.742   9.795  20.425  0.00  0.00    +0.000 N 
ATOM      5  N   UNL     1       0.077  10.576  21.302  0.00  0.00    +0.000 NA
ATOM      6  C   UNL     1       0.202   9.853  22.421  0.00  0.00    +0.000 A 
ATOM      7  N   UNL     1       0.956   8.712  22.314  0.00  0.00    +0.000 NA
ATOM      8  C   UNL     1       1.284   8.699  21.048  0.00  0.00    +0.000 A 
ATOM      9  N   UNL     1       2.004   7.819  20.324  0.00  0.00    +0.000 N 
ATOM     10  H   UNL     1       2.416   7.012  20.785  0.00  0.00    +0.000 HD
ENDROOT
BRANCH   1  18
ATOM     11  O   UNL     1       7.516   5.582  14.837  0.00  0.00    +0.000 OA
ATOM     12  C   UNL     1       6.527   5.336  15.521  0.00  0.00    +0.000 C 
ATOM     13  C   UNL     1       6.062   3.918  15.848  0.00  0.00    +0.000 C 
ATOM     14  O   UNL     1       4.719   3.699  16.255  0.00  0.00    +0.000 OA
ATOM     15  C   UNL     1       4.156   4.755  16.919  0.00  0.00    +0.000 A 
ATOM     16  C   UNL     1       2.984   4.492  17.626  0.00  0.00    +0.000 A 
ATOM     17  C   UNL     1       2.327   5.525  18.301  0.00  0.00    +0.000 A 
ATOM     18  C   UNL     1       2.836   6.828  18.261  0.00  0.00    +0.000 A 
ATOM     19  C   UNL     1       4.008   7.092  17.536  0.00  0.00    +0.000 A 
ATOM     20  C   UNL     1       4.661   6.057  16.870  0.00  0.00    +0.000 A 
ATOM     21  N   UNL     1       5.807   6.332  16.124  0.00  0.00    +0.000 N 
ATOM     22  H   UNL     1       6.136   7.280  15.992  0.00  0.00    +0.000 HD
ENDBRANCH   1  18
BRANCH   3  23
ATOM     23  C   UNL     1      -0.434  10.406  18.349  0.00  0.00    +0.000 A 
ATOM     24  C   UNL     1      -1.093  11.623  18.593  0.00  0.00    +0.000 A 
ATOM     25  C   UNL     1      -2.287  11.925  17.937  0.00  0.00    +0.000 A 
ATOM     26  C   UNL     1      -2.839  11.019  17.036  0.00  0.00    +0.000 A 
ATOM     27  C   UNL     1      -2.206   9.801  16.796  0.00  0.00    +0.000 A 
ATOM     28  C   UNL     1      -1.012   9.494  17.450  0.00  0.00    +0.000 A 
ENDBRANCH   3  23
TORSDOF 2
ENDMDL
MODEL 2
REMARK VINA RESULT:      -9.5      3.846      8.100
REMARK  Name = 
REMARK  2 active torsions:
REMARK  status: ('A' for Active; 'I' for Inactive)
REMARK    1  A    between atoms: C_8  and  C_9
REMARK    2  A    between atoms: C_11  and  C_12
REMARK                            x       y       z     vdW  Elec       q    Type
REMARK                         _______ _______ _______ _____ _____    ______ ____
ROOT
ATOM      1  C   UNL     1       2.135   6.713  19.586  0.00  0.00    +0.000 C 
ATOM      2  C   UNL     1       2.827   6.277  18.517  0.00  0.00    +0.000 C 
ATOM      3  C   UNL     1       3.337   4.842  18.454  0.00  0.00    +0.000 C 
ATOM      4  N   UNL     1       3.076   4.118  19.705  0.00  0.00    +0.000 N 
ATOM      5  N   UNL     1       3.467   2.851  19.962  0.00  0.00    +0.000 NA
ATOM      6  C   UNL     1       3.014   2.702  21.211  0.00  0.00    +0.000 A 
ATOM      7  N   UNL     1       2.309   3.761  21.723  0.00  0.00    +0.000 NA
ATOM      8  C   UNL     1       2.362   4.639  20.754  0.00  0.00    +0.000 A 
ATOM      9  N   UNL     1       1.872   5.891  20.661  0.00  0.00    +0.000 N 
ATOM     10  H   UNL     1       1.335   6.276  21.432  0.00  0.00    +0.000 HD
ENDROOT
BRANCH   1  18
ATOM     11  O   UNL     1      -0.992  12.035  23.216  0.00  0.00    +0.000 OA
ATOM     12  C   UNL     1      -0.408  11.646  22.209  0.00  0.00    +0.000 C 
ATOM     13  C   UNL     1       0.028  12.575  21.077  0.00  0.00    +0.000 C 
ATOM     14  O   UNL     1       0.292  12.033  19.791  0.00  0.00    +0.000 OA
ATOM     15  C   UNL     1       0.751  10.744  19.809  0.00  0.00    +0.000 A 
ATOM     16  C   UNL     1       1.336  10.275  18.635  0.00  0.00    +0.000 A 
ATOM     17  C   UNL     1       1.798   8.958  18.560  0.00  0.00    +0.000 A 
ATOM     18  C   UNL     1       1.663   8.101  19.659  0.00  0.00    +0.000 A 
ATOM     19  C   UNL     1       1.060   8.572  20.835  0.00  0.00    +0.000 A 
ATOM     20  C   UNL     1       0.608   9.889  20.905  0.00  0.00    +0.000 A 
ATOM     21  N   UNL     1      -0.021  10.341  22.064  0.00  0.00    +0.000 N 
ATOM     22  H   UNL     1      -0.225   9.714  22.833  0.00  0.00    +0.000 HD
ENDBRANCH   1  18
BRANCH   3  23
ATOM     23  C   UNL     1       4.812   4.769  18.083  0.00  0.00    +0.000 A 
ATOM     24  C   UNL     1       5.230   4.275  16.836  0.00  0.00    +0.000 A 
ATOM     25  C   UNL     1       6.582   4.281  16.489  0.00  0.00    +0.000 A 
ATOM     26  C   UNL     1       7.531   4.774  17.381  0.00  0.00    +0.000 A 
ATOM     27  C   UNL     1       7.133   5.251  18.629  0.00  0.00    +0.000 A 
ATOM     28  C   UNL     1       5.783   5.246  18.980  0.00  0.00    +0.000 A 
ENDBRANCH   3  23
TORSDOF 2
ENDMDL
MODEL 3
REMARK VINA RESULT:      -9.3      3.601      8.103
REMARK  Name = 
REMARK  2 active torsions:
REMARK  status: ('A' for Active; 'I' for Inactive)
REMARK    1  A    between atoms: C_8  and  C_9
REMARK    2  A    between atoms: C_11  and  C_12
REMARK                            x       y       z     vdW  Elec       q    Type
REMARK                         _______ _______ _______ _____ _____    ______ ____
ROOT
ATOM      1  C   UNL     1       2.493   6.140  19.030  0.00  0.00    +0.000 C 
ATOM      2  C   UNL     1       2.988   5.824  17.818  0.00  0.00    +0.000 C 
ATOM      3  C   UNL     1       3.568   4.439  17.553  0.00  0.00    +0.000 C 
ATOM      4  N   UNL     1       3.607   3.623  18.774  0.00  0.00    +0.000 N 
ATOM      5  N   UNL     1       4.123   2.379  18.856  0.00  0.00    +0.000 NA
ATOM      6  C   UNL     1       3.935   2.120  20.156  0.00  0.00    +0.000 A 
ATOM      7  N   UNL     1       3.278   3.088  20.870  0.00  0.00    +0.000 NA
ATOM      8  C   UNL     1       3.081   4.024  19.976  0.00  0.00    +0.000 A 
ATOM      9  N   UNL     1       2.501   5.237  20.071  0.00  0.00    +0.000 N 
ATOM     10  H   UNL     1       2.102   5.532  20.958  0.00  0.00    +0.000 HD
ENDROOT
BRANCH   1  18
ATOM     11  O   UNL     1      -0.645  10.820  23.448  0.00  0.00    +0.000 OA
ATOM     12  C   UNL     1      -0.115  10.582  22.368  0.00  0.00    +0.000 C 
ATOM     13  C   UNL     1       0.190  11.658  21.325  0.00  0.00    +0.000 C 
ATOM     14  O   UNL     1       0.391  11.281  19.971  0.00  0.00    +0.000 OA
ATOM     15  C   UNL     1       0.917  10.029  19.809  0.00  0.00    +0.000 A 
ATOM     16  C   UNL     1       1.442   9.731  18.553  0.00  0.00    +0.000 A 
ATOM     17  C   UNL     1       1.966   8.461  18.296  0.00  0.00    +0.000 A 
ATOM     18  C   UNL     1       1.955   7.479  19.294  0.00  0.00    +0.000 A 
ATOM     19  C   UNL     1       1.413   7.777  20.553  0.00  0.00    +0.000 A 
ATOM     20  C   UNL     1       0.898   9.048  20.805  0.00  0.00    +0.000 A 
ATOM     21  N   UNL     1       0.330   9.328  22.047  0.00  0.00    +0.000 N 
ATOM     22  H   UNL     1       0.214   8.607  22.749  0.00  0.00    +0.000 HD
ENDBRANCH   1  18
BRANCH   3  23
ATOM     23  C   UNL     1       4.943   4.504  16.901  0.00  0.00    +0.000 A 
ATOM     24  C   UNL     1       5.161   4.018  15.601  0.00  0.00    +0.000 A 
ATOM     25  C   UNL     1       6.412   4.151  14.996  0.00  0.00    +0.000 A 
ATOM     26  C   UNL     1       7.459   4.763  15.681  0.00  0.00    +0.000 A 
ATOM     27  C   UNL     1       7.262   5.234  16.977  0.00  0.00    +0.000 A 
ATOM     28  C   UNL     1       6.013   5.104  17.586  0.00  0.00    +0.000 A 
ENDBRANCH   3  23
TORSDOF 2
ENDMDL
MODEL 4
REMARK VINA RESULT:      -9.3      3.763      7.764
REMARK  Name = 
REMARK  2 active torsions:
REMARK  status: ('A' for Active; 'I' for Inactive)
REMARK    1  A    between atoms: C_8  and  C_9
REMARK    2  A    between atoms: C_11  and  C_12
REMARK                            x       y       z     vdW  Elec       q    Type
REMARK                         _______ _______ _______ _____ _____    ______ ____
ROOT
ATOM      1  C   UNL     1       2.015   6.726  20.142  0.00  0.00    +0.000 C 
ATOM      2  C   UNL     1       2.639   6.455  18.982  0.00  0.00    +0.000 C 
ATOM      3  C   UNL     1       3.119   5.041  18.669  0.00  0.00    +0.000 C 
ATOM      4  N   UNL     1       2.913   4.134  19.805  0.00  0.00    +0.000 N 
ATOM      5  N   UNL     1       3.294   2.840  19.840  0.00  0.00    +0.000 NA
ATOM      6  C   UNL     1       2.906   2.502  21.076  0.00  0.00    +0.000 A 
ATOM      7  N   UNL     1       2.251   3.476  21.784  0.00  0.00    +0.000 NA
ATOM      8  C   UNL     1       2.267   4.493  20.961  0.00  0.00    +0.000 A 
ATOM      9  N   UNL     1       1.796   5.749  21.091  0.00  0.00    +0.000 N 
ATOM     10  H   UNL     1       1.309   6.015  21.941  0.00  0.00    +0.000 HD
ENDROOT
BRANCH   1  18
ATOM     11  O   UNL     1       0.096  13.285  18.007  0.00  0.00    +0.000 OA
ATOM     12  C   UNL     1       0.240  12.472  18.914  0.00  0.00    +0.000 C 
ATOM     13  C   UNL     1      -0.189  12.736  20.357  0.00  0.00    +0.000 C 
ATOM     14  O   UNL     1       0.380  11.967  21.406  0.00  0.00    +0.000 OA
ATOM     15  C   UNL     1       0.742  10.699  21.041  0.00  0.00    +0.000 A 
ATOM     16  C   UNL     1       0.990   9.799  22.075  0.00  0.00    +0.000 A 
ATOM     17  C   UNL     1       1.399   8.494  21.785  0.00  0.00    +0.000 A 
ATOM     18  C   UNL     1       1.574   8.090  20.456  0.00  0.00    +0.000 A 
ATOM     19  C   UNL     1       1.338   9.003  19.417  0.00  0.00    +0.000 A 
ATOM     20  C   UNL     1       0.924  10.301  19.713  0.00  0.00    +0.000 A 
ATOM     21  N   UNL     1       0.724  11.213  18.678  0.00  0.00    +0.000 N 
ATOM     22  H   UNL     1       0.943  10.979  17.718  0.00  0.00    +0.000 HD
ENDBRANCH   1  18
BRANCH   3  23
ATOM     23  C   UNL     1       4.570   5.012  18.208  0.00  0.00    +0.000 A 
ATOM     24  C   UNL     1       5.615   5.421  19.053  0.00  0.00    +0.000 A 
ATOM     25  C   UNL     1       6.943   5.321  18.636  0.00  0.00    +0.000 A 
ATOM     26  C   UNL     1       7.244   4.818  17.373  0.00  0.00    +0.000 A 
ATOM     27  C   UNL     1       6.217   4.425  16.517  0.00  0.00    +0.000 A 
ATOM     28  C   UNL     1       4.888   4.523  16.930  0.00  0.00    +0.000 A 
ENDBRANCH   3  23
TORSDOF 2
ENDMDL
MODEL 5
REMARK VINA RESULT:      -9.2      3.720      7.702
REMARK  Name = 
REMARK  2 active torsions:
REMARK  status: ('A' for Active; 'I' for Inactive)
REMARK    1  A    between atoms: C_8  and  C_9
REMARK    2  A    between atoms: C_11  and  C_12
REMARK                            x       y       z     vdW  Elec       q    Type
REMARK                         _______ _______ _______ _____ _____    ______ ____
ROOT
ATOM      1  C   UNL     1       2.124   6.743  19.686  0.00  0.00    +0.000 C 
ATOM      2  C   UNL     1       2.602   6.555  18.442  0.00  0.00    +0.000 C 
ATOM      3  C   UNL     1       3.107   5.186  18.001  0.00  0.00    +0.000 C 
ATOM      4  N   UNL     1       3.101   4.222  19.110  0.00  0.00    +0.000 N 
ATOM      5  N   UNL     1       3.548   2.951  19.033  0.00  0.00    +0.000 NA
ATOM      6  C   UNL     1       3.346   2.541  20.290  0.00  0.00    +0.000 A 
ATOM      7  N   UNL     1       2.741   3.447  21.124  0.00  0.00    +0.000 NA
ATOM      8  C   UNL     1       2.596   4.496  20.356  0.00  0.00    +0.000 A 
ATOM      9  N   UNL     1       2.083   5.717  20.606  0.00  0.00    +0.000 N 
ATOM     10  H   UNL     1       1.700   5.919  21.525  0.00  0.00    +0.000 HD
ENDROOT
BRANCH   1  18
ATOM     11  O   UNL     1       0.144  13.450  18.148  0.00  0.00    +0.000 OA
ATOM     12  C   UNL     1       0.286  12.556  18.977  0.00  0.00    +0.000 C 
ATOM     13  C   UNL     1      -0.167  12.677  20.431  0.00  0.00    +0.000 C 
ATOM     14  O   UNL     1       0.398  11.820  21.413  0.00  0.00    +0.000 OA
ATOM     15  C   UNL     1       0.783  10.597  20.935  0.00  0.00    +0.000 A 
ATOM     16  C   UNL     1       1.029   9.607  21.883  0.00  0.00    +0.000 A 
ATOM     17  C   UNL     1       1.460   8.340  21.478  0.00  0.00    +0.000 A 
ATOM     18  C   UNL     1       1.660   8.065  20.120  0.00  0.00    +0.000 A 
ATOM     19  C   UNL     1       1.426   9.070  19.168  0.00  0.00    +0.000 A 
ATOM     20  C   UNL     1       0.990  10.328  19.578  0.00  0.00    +0.000 A 
ATOM     21  N   UNL     1       0.791  11.332  18.631  0.00  0.00    +0.000 N 
ATOM     22  H   UNL     1       1.028  11.192  17.657  0.00  0.00    +0.000 HD
ENDBRANCH   1  18
BRANCH   3  23
ATOM     23  C   UNL     1       4.484   5.258  17.355  0.00  0.00    +0.000 A 
ATOM     24  C   UNL     1       4.802   4.491  16.221  0.00  0.00    +0.000 A 
ATOM     25  C   UNL     1       6.046   4.624  15.603  0.00  0.00    +0.000 A 
ATOM     26  C   UNL     1       6.987   5.517  16.109  0.00  0.00    +0.000 A 
ATOM     27  C   UNL     1       6.692   6.271  17.243  0.00  0.00    +0.000 A 
ATOM     28  C   UNL     1       5.450   6.141  17.865  0.00  0.00    +0.000 A 
ENDBRANCH   3  23
TORSDOF 2
ENDMDL
MODEL 6
REMARK VINA RESULT:      -9.1      0.512      1.072
REMARK  Name = 
REMARK  2 active torsions:
REMARK  status: ('A' for Active; 'I' for Inactive)
REMARK    1  A    between atoms: C_8  and  C_9
REMARK    2  A    between atoms: C_11  and  C_12
REMARK                            x       y       z     vdW  Elec       q    Type
REMARK                         _______ _______ _______ _____ _____    ______ ____
ROOT
ATOM      1  C   UNL     1       1.928   8.105  19.277  0.00  0.00    +0.000 C 
ATOM      2  C   UNL     1       1.441   9.110  18.526  0.00  0.00    +0.000 C 
ATOM      3  C   UNL     1       0.674  10.261  19.169  0.00  0.00    +0.000 C 
ATOM      4  N   UNL     1       0.466  10.038  20.606  0.00  0.00    +0.000 N 
ATOM      5  N   UNL     1      -0.230  10.857  21.422  0.00  0.00    +0.000 NA
ATOM      6  C   UNL     1      -0.135  10.191  22.579  0.00  0.00    +0.000 A 
ATOM      7  N   UNL     1       0.628   9.052  22.553  0.00  0.00    +0.000 NA
ATOM      8  C   UNL     1       0.996   8.980  21.299  0.00  0.00    +0.000 A 
ATOM      9  N   UNL     1       1.744   8.070  20.643  0.00  0.00    +0.000 N 
ATOM     10  H   UNL     1       2.146   7.290  21.155  0.00  0.00    +0.000 HD
ENDROOT
BRANCH   1  18
ATOM     11  O   UNL     1       6.727   5.637  14.571  0.00  0.00    +0.000 OA
ATOM     12  C   UNL     1       5.943   5.420  15.490  0.00  0.00    +0.000 C 
ATOM     13  C   UNL     1       5.795   4.057  16.166  0.00  0.00    +0.000 C 
ATOM     14  O   UNL     1       4.610   3.763  16.893  0.00  0.00    +0.000 OA
ATOM     15  C   UNL     1       4.014   4.856  17.460  0.00  0.00    +0.000 A 
ATOM     16  C   UNL     1       3.060   4.605  18.444  0.00  0.00    +0.000 A 
ATOM     17  C   UNL     1       2.381   5.667  19.047  0.00  0.00    +0.000 A 
ATOM     18  C   UNL     1       2.645   6.985  18.658  0.00  0.00    +0.000 A 
ATOM     19  C   UNL     1       3.596   7.234  17.656  0.00  0.00    +0.000 A 
ATOM     20  C   UNL     1       4.275   6.171  17.063  0.00  0.00    +0.000 A 
ATOM     21  N   UNL     1       5.194   6.422  16.045  0.00  0.00    +0.000 N 
ATOM     22  H   UNL     1       5.327   7.354  15.672  0.00  0.00    +0.000 HD
ENDBRANCH   1  18
BRANCH   3  23
ATOM     23  C   UNL     1      -0.648  10.537  18.467  0.00  0.00    +0.000 A 
ATOM     24  C   UNL     1      -1.138   9.683  17.464  0.00  0.00    +0.000 A 
ATOM     25  C   UNL     1      -2.385   9.916  16.883  0.00  0.00    +0.000 A 
ATOM     26  C   UNL     1      -3.154  11.004  17.289  0.00  0.00    +0.000 A 
ATOM     27  C   UNL     1      -2.674  11.869  18.270  0.00  0.00    +0.000 A 
ATOM     28  C   UNL     1      -1.428  11.640  18.854  0.00  0.00    +0.000 A 
ENDBRANCH   3  23
TORSDOF 2
ENDMDL
MODEL 7
REMARK VINA RESULT:      -9.1      2.996      4.684
REMARK  Name = 
REMARK  2 active torsions:
REMARK  status: ('A' for Active; 'I' for Inactive)
REMARK    1  A    between atoms: C_8  and  C_9
REMARK    2  A    between atoms: C_11  and  C_12
REMARK                            x       y       z     vdW  Elec       q    Type
REMARK                         _______ _______ _______ _____ _____    ______ ____
ROOT
ATOM      1  C   UNL     1       4.145   5.004  17.780  0.00  0.00    +0.000 C 
ATOM      2  C   UNL     1       4.012   6.009  18.666  0.00  0.00    +0.000 C 
ATOM      3  C   UNL     1       2.967   5.935  19.774  0.00  0.00    +0.000 C 
ATOM      4  N   UNL     1       2.120   4.743  19.643  0.00  0.00    +0.000 N 
ATOM      5  N   UNL     1       1.074   4.445  20.443  0.00  0.00    +0.000 NA
ATOM      6  C   UNL     1       0.651   3.306  19.883  0.00  0.00    +0.000 A 
ATOM      7  N   UNL     1       1.402   2.840  18.834  0.00  0.00    +0.000 NA
ATOM      8  C   UNL     1       2.321   3.763  18.704  0.00  0.00    +0.000 A 
ATOM      9  N   UNL     1       3.342   3.885  17.832  0.00  0.00    +0.000 N 
ATOM     10  H   UNL     1       3.499   3.156  17.142  0.00  0.00    +0.000 HD
ENDROOT
BRANCH   1  18
ATOM     11  O   UNL     1       6.678   2.706  11.490  0.00  0.00    +0.000 OA
ATOM     12  C   UNL     1       6.735   3.501  12.422  0.00  0.00    +0.000 C 
ATOM     13  C   UNL     1       7.677   4.705  12.445  0.00  0.00    +0.000 C 
ATOM     14  O   UNL     1       8.003   5.313  13.687  0.00  0.00    +0.000 OA
ATOM     15  C   UNL     1       7.020   5.217  14.634  0.00  0.00    +0.000 A 
ATOM     16  C   UNL     1       7.134   6.061  15.736  0.00  0.00    +0.000 A 
ATOM     17  C   UNL     1       6.190   6.000  16.765  0.00  0.00    +0.000 A 
ATOM     18  C   UNL     1       5.134   5.083  16.699  0.00  0.00    +0.000 A 
ATOM     19  C   UNL     1       5.031   4.224  15.595  0.00  0.00    +0.000 A 
ATOM     20  C   UNL     1       5.972   4.295  14.569  0.00  0.00    +0.000 A 
ATOM     21  N   UNL     1       5.884   3.416  13.491  0.00  0.00    +0.000 N 
ATOM     22  H   UNL     1       5.194   2.674  13.468  0.00  0.00    +0.000 HD
ENDBRANCH   1  18
BRANCH   3  23
ATOM     23  C   UNL     1       2.118   7.197  19.851  0.00  0.00    +0.000 A 
ATOM     24  C   UNL     1       1.446   7.557  21.032  0.00  0.00    +0.000 A 
ATOM     25  C   UNL     1       0.731   8.752  21.103  0.00  0.00    +0.000 A 
ATOM     26  C   UNL     1       0.671   9.599  19.999  0.00  0.00    +0.000 A 
ATOM     27  C   UNL     1       1.317   9.247  18.816  0.00  0.00    +0.000 A 
ATOM     28  C   UNL     1       2.034   8.053  18.740  0.00  0.00    +0.000 A 
ENDBRANCH   3  23
TORSDOF 2
ENDMDL
MODEL 8
REMARK VINA RESULT:      -9.0      1.783      2.442
REMARK  Name = 
REMARK  2 active torsions:
REMARK  status: ('A' for Active; 'I' for Inactive)
REMARK    1  A    between atoms: C_8  and  C_9
REMARK    2  A    between atoms: C_11  and  C_12
REMARK                            x       y       z     vdW  Elec       q    Type
REMARK                         _______ _______ _______ _____ _____    ______ ____
ROOT
ATOM      1  C   UNL     1       1.416   8.775  19.715  0.00  0.00    +0.000 C 
ATOM      2  C   UNL     1       0.791   9.702  18.966  0.00  0.00    +0.000 C 
ATOM      3  C   UNL     1      -0.138  10.725  19.612  0.00  0.00    +0.000 C 
ATOM      4  N   UNL     1      -0.317  10.467  21.047  0.00  0.00    +0.000 N 
ATOM      5  N   UNL     1      -1.128  11.171  21.864  0.00  0.00    +0.000 NA
ATOM      6  C   UNL     1      -0.941  10.520  23.018  0.00  0.00    +0.000 A 
ATOM      7  N   UNL     1      -0.019   9.505  22.989  0.00  0.00    +0.000 NA
ATOM      8  C   UNL     1       0.360   9.493  21.737  0.00  0.00    +0.000 A 
ATOM      9  N   UNL     1       1.235   8.706  21.080  0.00  0.00    +0.000 N 
ATOM     10  H   UNL     1       1.744   7.991  21.590  0.00  0.00    +0.000 HD
ENDROOT
BRANCH   1  18
ATOM     11  O   UNL     1       4.719   2.425  19.904  0.00  0.00    +0.000 OA
ATOM     12  C   UNL     1       4.435   3.448  19.289  0.00  0.00    +0.000 C 
ATOM     13  C   UNL     1       4.794   3.673  17.820  0.00  0.00    +0.000 C 
ATOM     14  O   UNL     1       4.830   4.997  17.306  0.00  0.00    +0.000 OA
ATOM     15  C   UNL     1       3.968   5.862  17.922  0.00  0.00    +0.000 A 
ATOM     16  C   UNL     1       3.715   7.063  17.262  0.00  0.00    +0.000 A 
ATOM     17  C   UNL     1       2.873   8.016  17.842  0.00  0.00    +0.000 A 
ATOM     18  C   UNL     1       2.292   7.775  19.093  0.00  0.00    +0.000 A 
ATOM     19  C   UNL     1       2.562   6.571  19.762  0.00  0.00    +0.000 A 
ATOM     20  C   UNL     1       3.397   5.622  19.175  0.00  0.00    +0.000 A 
ATOM     21  N   UNL     1       3.687   4.443  19.859  0.00  0.00    +0.000 N 
ATOM     22  H   UNL     1       3.366   4.289  20.807  0.00  0.00    +0.000 HD
ENDBRANCH   1  18
BRANCH   3  23
ATOM     23  C   UNL     1      -1.484  10.810  18.905  0.00  0.00    +0.000 A 
ATOM     24  C   UNL     1      -2.403  11.832  19.198  0.00  0.00    +0.000 A 
ATOM     25  C   UNL     1      -3.601  11.932  18.490  0.00  0.00    +0.000 A 
ATOM     26  C   UNL     1      -3.900  11.012  17.488  0.00  0.00    +0.000 A 
ATOM     27  C   UNL     1      -3.007   9.983  17.198  0.00  0.00    +0.000 A 
ATOM     28  C   UNL     1      -1.807   9.879  17.903  0.00  0.00    +0.000 A 
ENDBRANCH   3  23
TORSDOF 2
ENDMDL
MODEL 9
REMARK VINA RESULT:      -8.8      3.558      8.081
REMARK  Name = 
REMARK  2 active torsions:
REMARK  status: ('A' for Active; 'I' for Inactive)
REMARK    1  A    between atoms: C_8  and  C_9
REMARK    2  A    between atoms: C_11  and  C_12
REMARK                            x       y       z     vdW  Elec       q    Type
REMARK                         _______ _______ _______ _____ _____    ______ ____
ROOT
ATOM      1  C   UNL     1       2.676   7.608  18.561  0.00  0.00    +0.000 C 
ATOM      2  C   UNL     1       2.754   6.463  19.264  0.00  0.00    +0.000 C 
ATOM      3  C   UNL     1       3.755   5.380  18.877  0.00  0.00    +0.000 C 
ATOM      4  N   UNL     1       4.468   5.717  17.638  0.00  0.00    +0.000 N 
ATOM      5  N   UNL     1       5.369   4.922  17.023  0.00  0.00    +0.000 NA
ATOM      6  C   UNL     1       5.678   5.674  15.961  0.00  0.00    +0.000 A 
ATOM      7  N   UNL     1       5.083   6.909  15.909  0.00  0.00    +0.000 NA
ATOM      8  C   UNL     1       4.328   6.912  16.978  0.00  0.00    +0.000 A 
ATOM      9  N   UNL     1       3.482   7.840  17.467  0.00  0.00    +0.000 N 
ATOM     10  H   UNL     1       3.384   8.729  16.986  0.00  0.00    +0.000 HD
ENDROOT
BRANCH   1  18
ATOM     11  O   UNL     1      -1.145  11.117  23.496  0.00  0.00    +0.000 OA
ATOM     12  C   UNL     1      -0.798  10.989  22.327  0.00  0.00    +0.000 C 
ATOM     13  C   UNL     1      -1.188  11.969  21.221  0.00  0.00    +0.000 C 
ATOM     14  O   UNL     1      -1.130  11.551  19.865  0.00  0.00    +0.000 OA
ATOM     15  C   UNL     1      -0.176  10.604  19.609  0.00  0.00    +0.000 A 
ATOM     16  C   UNL     1       0.155  10.399  18.272  0.00  0.00    +0.000 A 
ATOM     17  C   UNL     1       1.095   9.424  17.925  0.00  0.00    +0.000 A 
ATOM     18  C   UNL     1       1.697   8.642  18.917  0.00  0.00    +0.000 A 
ATOM     19  C   UNL     1       1.350   8.841  20.262  0.00  0.00    +0.000 A 
ATOM     20  C   UNL     1       0.417   9.819  20.601  0.00  0.00    +0.000 A 
ATOM     21  N   UNL     1       0.052   9.989  21.936  0.00  0.00    +0.000 N 
ATOM     22  H   UNL     1       0.392   9.368  22.660  0.00  0.00    +0.000 HD
ENDBRANCH   1  18
BRANCH   3  23
ATOM     23  C   UNL     1       3.107   4.006  18.771  0.00  0.00    +0.000 A 
ATOM     24  C   UNL     1       3.866   2.828  18.881  0.00  0.00    +0.000 A 
ATOM     25  C   UNL     1       3.243   1.580  18.851  0.00  0.00    +0.000 A 
ATOM     26  C   UNL     1       1.861   1.490  18.706  0.00  0.00    +0.000 A 
ATOM     27  C   UNL     1       1.097   2.649  18.579  0.00  0.00    +0.000 A 
ATOM     28  C   UNL     1       1.716   3.900  18.609  0.00  0.00    +0.000 A 
ENDBRANCH   3  23
TORSDOF 2
ENDMDL
