MODEL 1
REMARK VINA RESULT:      -9.3      0.000      0.000
REMARK  Name = 
REMARK  5 active torsions:
REMARK  status: ('A' for Active; 'I' for Inactive)
REMARK    1  A    between atoms: C_1  and  N_2
REMARK    2  A    between atoms: C_6  and  C_7
REMARK    3  A    between atoms: C_7  and  C_8
REMARK    4  A    between atoms: C_8  and  C_9
REMARK    5  A    between atoms: C_13  and  N_14
REMARK                            x       y       z     vdW  Elec       q    Type
REMARK                         _______ _______ _______ _____ _____    ______ ____
ROOT
ATOM      1  C   UNL     1       4.587   5.048  17.238  0.00  0.00    +0.000 A 
ATOM      2  C   UNL     1       3.700   3.968  17.138  0.00  0.00    +0.000 A 
ATOM      3  C   UNL     1       2.383   4.080  17.572  0.00  0.00    +0.000 A 
ATOM      4  C   UNL     1       1.927   5.279  18.127  0.00  0.00    +0.000 A 
ATOM      5  C   UNL     1       2.755   6.401  18.249  0.00  0.00    +0.000 A 
ATOM      6  C   UNL     1       4.070   6.244  17.790  0.00  0.00    +0.000 A 
ENDROOT
BRANCH   5   7
ATOM      7  N   UNL     1       2.324   7.586  18.799  0.00  0.00    +0.000 N 
ATOM      8  C   UNL     1       1.962   8.777  18.014  0.00  0.00    +0.000 C 
ATOM      9  C   UNL     1       1.111   9.538  18.977  0.00  0.00    +0.000 C 
ATOM     10  C   UNL     1       1.080   8.946  20.172  0.00  0.00    +0.000 C 
ATOM     11  C   UNL     1       0.230   9.389  21.310  0.00  0.00    +0.000 C 
ATOM     12  C   UNL     1      -0.699  10.576  20.963  0.00  0.00    +0.000 C 
ATOM     13  C   UNL     1      -0.530  11.181  19.590  0.00  0.00    +0.000 C 
ATOM     14  C   UNL     1       0.322  10.694  18.672  0.00  0.00    +0.000 C 
ATOM     15  C   UNL     1       1.919   7.718  20.201  0.00  0.00    +0.000 C 
ENDBRANCH   5   7
BRANCH   1  16
ATOM     16  C   UNL     1       6.127   4.959  16.816  0.00  0.00    +0.000 C 
ATOM     17  C   UNL     1       6.969   6.261  16.766  0.00  0.00    +0.000 C 
ATOM     18  O   UNL     1       7.889   5.780  17.770  0.00  0.00    +0.000 OA
ATOM     19  C   UNL     1       7.111   4.584  17.963  0.00  0.00    +0.000 C 
BRANCH  16  20
ATOM     20  C   UNL     1       6.278   4.007  15.614  0.00  0.00    +0.000 C 
BRANCH  20  26
ATOM     21  C   UNL     1       5.754   3.361  12.523  0.00  0.00    +0.000 C 
ATOM     22  N   UNL     1       6.701   4.282  13.092  0.00  0.00    +0.000 N 
ATOM     23  C   UNL     1       7.606   5.001  12.369  0.00  0.00    +0.000 A 
ATOM     24  N   UNL     1       8.309   5.760  13.172  0.00  0.00    +0.000 NA
ATOM     25  N   UNL     1       7.874   5.522  14.452  0.00  0.00    +0.000 NA
ATOM     26  C   UNL     1       6.918   4.614  14.409  0.00  0.00    +0.000 A 
ENDBRANCH  20  26
ENDBRANCH  16  20
ENDBRANCH   1  16
TORSDOF 4
ENDMDL
MODEL 2
REMARK VINA RESULT:      -9.0      1.783      2.996
REMARK  Name = 
REMARK  5 active torsions:
REMARK  status: ('A' for Active; 'I' for Inactive)
REMARK    1  A    between atoms: C_1  and  N_2
REMARK    2  A    between atoms: C_6  and  C_7
REMARK    3  A    between atoms: C_7  and  C_8
REMARK    4  A    between atoms: C_8  and  C_9
REMARK    5  A    between atoms: C_13  and  N_14
REMARK                            x       y       z     vdW  Elec       q    Type
REMARK                         _______ _______ _______ _____ _____    ______ ____
ROOT
ATOM      1  C   UNL     1       4.361   4.515  16.887  0.00  0.00    +0.000 A 
ATOM      2  C   UNL     1       3.549   3.404  17.150  0.00  0.00    +0.000 A 
ATOM      3  C   UNL     1       2.398   3.525  17.922  0.00  0.00    +0.000 A 
ATOM      4  C   UNL     1       2.039   4.766  18.456  0.00  0.00    +0.000 A 
ATOM      5  C   UNL     1       2.797   5.919  18.226  0.00  0.00    +0.000 A 
ATOM      6  C   UNL     1       3.943   5.750  17.437  0.00  0.00    +0.000 A 
ENDROOT
BRANCH   5   7
ATOM      7  N   UNL     1       2.462   7.147  18.750  0.00  0.00    +0.000 N 
ATOM      8  C   UNL     1       2.229   8.354  17.941  0.00  0.00    +0.000 C 
ATOM      9  C   UNL     1       1.427   9.203  18.872  0.00  0.00    +0.000 C 
ATOM     10  C   UNL     1       1.312   8.633  20.072  0.00  0.00    +0.000 C 
ATOM     11  C   UNL     1       0.477   9.168  21.182  0.00  0.00    +0.000 C 
ATOM     12  C   UNL     1      -0.331  10.429  20.797  0.00  0.00    +0.000 C 
ATOM     13  C   UNL     1      -0.073  10.996  19.421  0.00  0.00    +0.000 C 
ATOM     14  C   UNL     1       0.755  10.421  18.532  0.00  0.00    +0.000 C 
ATOM     15  C   UNL     1       2.035   7.335  20.139  0.00  0.00    +0.000 C 
ENDBRANCH   5   7
BRANCH   1  16
ATOM     16  C   UNL     1       5.729   4.425  16.063  0.00  0.00    +0.000 C 
ATOM     17  C   UNL     1       5.834   3.416  14.890  0.00  0.00    +0.000 C 
ATOM     18  O   UNL     1       6.081   4.463  13.927  0.00  0.00    +0.000 OA
ATOM     19  C   UNL     1       5.895   5.479  14.930  0.00  0.00    +0.000 C 
BRANCH  16  20
ATOM     20  C   UNL     1       6.922   4.457  17.039  0.00  0.00    +0.000 C 
BRANCH  20  26
ATOM     21  C   UNL     1       7.902   5.589  19.868  0.00  0.00    +0.000 C 
ATOM     22  N   UNL     1       7.790   6.292  18.618  0.00  0.00    +0.000 N 
ATOM     23  C   UNL     1       8.032   7.624  18.460  0.00  0.00    +0.000 A 
ATOM     24  N   UNL     1       7.863   7.957  17.204  0.00  0.00    +0.000 NA
ATOM     25  N   UNL     1       7.483   6.827  16.525  0.00  0.00    +0.000 NA
ATOM     26  C   UNL     1       7.417   5.824  17.380  0.00  0.00    +0.000 A 
ENDBRANCH  20  26
ENDBRANCH  16  20
ENDBRANCH   1  16
TORSDOF 4
ENDMDL
MODEL 3
REMARK VINA RESULT:      -8.8      1.385      2.038
REMARK  Name = 
REMARK  5 active torsions:
REMARK  status: ('A' for Active; 'I' for Inactive)
REMARK    1  A    between atoms: C_1  and  N_2
REMARK    2  A    between atoms: C_6  and  C_7
REMARK    3  A    between atoms: C_7  and  C_8
REMARK    4  A    between atoms: C_8  and  C_9
REMARK    5  A    between atoms: C_13  and  N_14
REMARK                            x       y       z     vdW  Elec       q    Type
REMARK                         _______ _______ _______ _____ _____    ______ ____
ROOT
ATOM      1  C   UNL     1       5.504   5.316  18.683  0.00  0.00    +0.000 A 
ATOM      2  C   UNL     1       5.163   4.036  19.141  0.00  0.00    +0.000 A 
ATOM      3  C   UNL     1       3.903   3.777  19.669  0.00  0.00    +0.000 A 
ATOM      4  C   UNL     1       2.955   4.800  19.758  0.00  0.00    +0.000 A 
ATOM      5  C   UNL     1       3.223   6.099  19.310  0.00  0.00    +0.000 A 
ATOM      6  C   UNL     1       4.502   6.311  18.779  0.00  0.00    +0.000 A 
ENDROOT
BRANCH   5   7
ATOM      7  N   UNL     1       2.304   7.119  19.397  0.00  0.00    +0.000 N 
ATOM      8  C   UNL     1       1.607   7.499  20.636  0.00  0.00    +0.000 C 
ATOM      9  C   UNL     1       1.172   8.895  20.334  0.00  0.00    +0.000 C 
ATOM     10  C   UNL     1       1.462   9.234  19.077  0.00  0.00    +0.000 C 
ATOM     11  C   UNL     1       1.266  10.593  18.504  0.00  0.00    +0.000 C 
ATOM     12  C   UNL     1       0.757  11.630  19.531  0.00  0.00    +0.000 C 
ATOM     13  C   UNL     1       0.424  11.104  20.907  0.00  0.00    +0.000 C 
ATOM     14  C   UNL     1       0.614   9.824  21.271  0.00  0.00    +0.000 C 
ATOM     15  C   UNL     1       2.111   8.116  18.341  0.00  0.00    +0.000 C 
ENDBRANCH   5   7
BRANCH   1  16
ATOM     16  C   UNL     1       6.956   5.689  18.127  0.00  0.00    +0.000 C 
ATOM     17  C   UNL     1       7.222   7.135  17.630  0.00  0.00    +0.000 C 
ATOM     18  O   UNL     1       8.256   7.352  18.614  0.00  0.00    +0.000 OA
ATOM     19  C   UNL     1       8.008   6.065  19.211  0.00  0.00    +0.000 C 
BRANCH  16  20
ATOM     20  C   UNL     1       7.468   4.555  17.218  0.00  0.00    +0.000 C 
BRANCH  20  26
ATOM     21  C   UNL     1       4.900   3.254  15.818  0.00  0.00    +0.000 C 
ATOM     22  N   UNL     1       5.943   4.039  15.213  0.00  0.00    +0.000 N 
ATOM     23  C   UNL     1       6.033   4.300  13.877  0.00  0.00    +0.000 A 
ATOM     24  N   UNL     1       7.079   5.053  13.646  0.00  0.00    +0.000 NA
ATOM     25  N   UNL     1       7.702   5.277  14.848  0.00  0.00    +0.000 NA
ATOM     26  C   UNL     1       7.031   4.647  15.793  0.00  0.00    +0.000 A 
ENDBRANCH  20  26
ENDBRANCH  16  20
ENDBRANCH   1  16
TORSDOF 4
ENDMDL
MODEL 4
REMARK VINA RESULT:      -8.8      2.094      3.200
REMARK  Name = 
REMARK  5 active torsions:
REMARK  status: ('A' for Active; 'I' for Inactive)
REMARK    1  A    between atoms: C_1  and  N_2
REMARK    2  A    between atoms: C_6  and  C_7
REMARK    3  A    between atoms: C_7  and  C_8
REMARK    4  A    between atoms: C_8  and  C_9
REMARK    5  A    between atoms: C_13  and  N_14
REMARK                            x       y       z     vdW  Elec       q    Type
REMARK                         _______ _______ _______ _____ _____    ______ ____
ROOT
ATOM      1  C   UNL     1       4.427   4.808  16.711  0.00  0.00    +0.000 A 
ATOM      2  C   UNL     1       3.767   3.633  17.094  0.00  0.00    +0.000 A 
ATOM      3  C   UNL     1       2.705   3.667  17.991  0.00  0.00    +0.000 A 
ATOM      4  C   UNL     1       2.284   4.885  18.534  0.00  0.00    +0.000 A 
ATOM      5  C   UNL     1       2.890   6.099  18.188  0.00  0.00    +0.000 A 
ATOM      6  C   UNL     1       3.949   6.015  17.275  0.00  0.00    +0.000 A 
ENDROOT
BRANCH   5   7
ATOM      7  N   UNL     1       2.493   7.305  18.719  0.00  0.00    +0.000 N 
ATOM      8  C   UNL     1       2.217   8.507  17.917  0.00  0.00    +0.000 C 
ATOM      9  C   UNL     1       1.365   9.311  18.843  0.00  0.00    +0.000 C 
ATOM     10  C   UNL     1       1.261   8.727  20.038  0.00  0.00    +0.000 C 
ATOM     11  C   UNL     1       0.388   9.213  21.141  0.00  0.00    +0.000 C 
ATOM     12  C   UNL     1      -0.471  10.440  20.755  0.00  0.00    +0.000 C 
ATOM     13  C   UNL     1      -0.221  11.031  19.387  0.00  0.00    +0.000 C 
ATOM     14  C   UNL     1       0.643  10.501  18.505  0.00  0.00    +0.000 C 
ATOM     15  C   UNL     1       2.040   7.462  20.103  0.00  0.00    +0.000 C 
ENDBRANCH   5   7
BRANCH   1  16
ATOM     16  C   UNL     1       5.693   4.824  15.735  0.00  0.00    +0.000 C 
ATOM     17  C   UNL     1       6.386   3.482  15.381  0.00  0.00    +0.000 C 
ATOM     18  O   UNL     1       6.116   3.641  13.971  0.00  0.00    +0.000 OA
ATOM     19  C   UNL     1       5.363   4.843  14.214  0.00  0.00    +0.000 C 
BRANCH  16  20
ATOM     20  C   UNL     1       6.627   5.988  16.121  0.00  0.00    +0.000 C 
BRANCH  20  26
ATOM     21  C   UNL     1       7.905   8.312  17.913  0.00  0.00    +0.000 C 
ATOM     22  N   UNL     1       7.787   6.911  18.222  0.00  0.00    +0.000 N 
ATOM     23  C   UNL     1       8.287   6.327  19.348  0.00  0.00    +0.000 A 
ATOM     24  N   UNL     1       8.000   5.049  19.345  0.00  0.00    +0.000 NA
ATOM     25  N   UNL     1       7.316   4.781  18.186  0.00  0.00    +0.000 NA
ATOM     26  C   UNL     1       7.205   5.900  17.495  0.00  0.00    +0.000 A 
ENDBRANCH  20  26
ENDBRANCH  16  20
ENDBRANCH   1  16
TORSDOF 4
ENDMDL
MODEL 5
REMARK VINA RESULT:      -8.7      2.821      4.242
REMARK  Name = 
REMARK  5 active torsions:
REMARK  status: ('A' for Active; 'I' for Inactive)
REMARK    1  A    between atoms: C_1  and  N_2
REMARK    2  A    between atoms: C_6  and  C_7
REMARK    3  A    between atoms: C_7  and  C_8
REMARK    4  A    between atoms: C_8  and  C_9
REMARK    5  A    between atoms: C_13  and  N_14
REMARK                            x       y       z     vdW  Elec       q    Type
REMARK                         _______ _______ _______ _____ _____    ______ ____
ROOT
ATOM      1  C   UNL     1       2.491   5.870  19.105  0.00  0.00    +0.000 A 
ATOM      2  C   UNL     1       2.874   6.206  17.799  0.00  0.00    +0.000 A 
ATOM      3  C   UNL     1       2.766   7.513  17.335  0.00  0.00    +0.000 A 
ATOM      4  C   UNL     1       2.263   8.514  18.170  0.00  0.00    +0.000 A 
ATOM      5  C   UNL     1       1.872   8.253  19.488  0.00  0.00    +0.000 A 
ATOM      6  C   UNL     1       2.006   6.925  19.914  0.00  0.00    +0.000 A 
ENDROOT
BRANCH   5   7
ATOM      7  N   UNL     1       1.368   9.226  20.321  0.00  0.00    +0.000 N 
ATOM      8  C   UNL     1       0.884  10.537  19.859  0.00  0.00    +0.000 C 
ATOM      9  C   UNL     1       0.010  10.963  20.992  0.00  0.00    +0.000 C 
ATOM     10  C   UNL     1       0.068  10.096  22.004  0.00  0.00    +0.000 C 
ATOM     11  C   UNL     1      -0.774  10.172  23.229  0.00  0.00    +0.000 C 
ATOM     12  C   UNL     1      -1.806  11.323  23.200  0.00  0.00    +0.000 C 
ATOM     13  C   UNL     1      -1.734  12.258  22.016  0.00  0.00    +0.000 C 
ATOM     14  C   UNL     1      -0.879  12.087  20.994  0.00  0.00    +0.000 C 
ATOM     15  C   UNL     1       1.003   8.975  21.717  0.00  0.00    +0.000 C 
ENDBRANCH   5   7
BRANCH   1  16
ATOM     16  C   UNL     1       2.530   4.375  19.672  0.00  0.00    +0.000 C 
ATOM     17  C   UNL     1       2.460   4.151  21.205  0.00  0.00    +0.000 C 
ATOM     18  O   UNL     1       1.239   3.387  21.102  0.00  0.00    +0.000 OA
ATOM     19  C   UNL     1       1.163   3.632  19.686  0.00  0.00    +0.000 C 
BRANCH  16  20
ATOM     20  C   UNL     1       3.602   3.565  18.917  0.00  0.00    +0.000 C 
BRANCH  20  26
ATOM     21  C   UNL     1       5.435   3.998  16.328  0.00  0.00    +0.000 C 
ATOM     22  N   UNL     1       5.718   4.361  17.692  0.00  0.00    +0.000 N 
ATOM     23  C   UNL     1       6.894   4.907  18.114  0.00  0.00    +0.000 A 
ATOM     24  N   UNL     1       6.833   5.140  19.402  0.00  0.00    +0.000 NA
ATOM     25  N   UNL     1       5.603   4.721  19.841  0.00  0.00    +0.000 NA
ATOM     26  C   UNL     1       4.935   4.229  18.814  0.00  0.00    +0.000 A 
ENDBRANCH  20  26
ENDBRANCH  16  20
ENDBRANCH   1  16
TORSDOF 4
ENDMDL
MODEL 6
REMARK VINA RESULT:      -8.6      2.582      4.029
REMARK  Name = 
REMARK  5 active torsions:
REMARK  status: ('A' for Active; 'I' for Inactive)
REMARK    1  A    between atoms: C_1  and  N_2
REMARK    2  A    between atoms: C_6  and  C_7
REMARK    3  A    between atoms: C_7  and  C_8
REMARK    4  A    between atoms: C_8  and  C_9
REMARK    5  A    between atoms: C_13  and  N_14
REMARK                            x       y       z     vdW  Elec       q    Type
REMARK                         _______ _______ _______ _____ _____    ______ ____
ROOT
ATOM      1  C   UNL     1       3.246   5.702  18.295  0.00  0.00    +0.000 A 
ATOM      2  C   UNL     1       3.986   6.422  17.347  0.00  0.00    +0.000 A 
ATOM      3  C   UNL     1       3.776   7.784  17.159  0.00  0.00    +0.000 A 
ATOM      4  C   UNL     1       2.809   8.455  17.912  0.00  0.00    +0.000 A 
ATOM      5  C   UNL     1       2.040   7.802  18.883  0.00  0.00    +0.000 A 
ATOM      6  C   UNL     1       2.293   6.433  19.043  0.00  0.00    +0.000 A 
ENDROOT
BRANCH   5   7
ATOM      7  N   UNL     1       1.079   8.446  19.628  0.00  0.00    +0.000 N 
ATOM      8  C   UNL     1       0.676   8.039  20.983  0.00  0.00    +0.000 C 
ATOM      9  C   UNL     1       0.051   9.288  21.510  0.00  0.00    +0.000 C 
ATOM     10  C   UNL     1      -0.011  10.235  20.573  0.00  0.00    +0.000 C 
ATOM     11  C   UNL     1      -0.470  11.630  20.811  0.00  0.00    +0.000 C 
ATOM     12  C   UNL     1      -0.805  11.926  22.292  0.00  0.00    +0.000 C 
ATOM     13  C   UNL     1      -0.738  10.754  23.242  0.00  0.00    +0.000 C 
ATOM     14  C   UNL     1      -0.344   9.525  22.867  0.00  0.00    +0.000 C 
ATOM     15  C   UNL     1       0.539   9.761  19.274  0.00  0.00    +0.000 C 
ENDBRANCH   5   7
BRANCH   1  16
ATOM     16  C   UNL     1       3.398   4.125  18.510  0.00  0.00    +0.000 C 
ATOM     17  C   UNL     1       2.904   3.497  19.840  0.00  0.00    +0.000 C 
ATOM     18  O   UNL     1       1.947   2.655  19.162  0.00  0.00    +0.000 OA
ATOM     19  C   UNL     1       2.264   3.256  17.893  0.00  0.00    +0.000 C 
BRANCH  16  20
ATOM     20  C   UNL     1       4.786   3.668  18.019  0.00  0.00    +0.000 C 
BRANCH  20  26
ATOM     21  C   UNL     1       7.292   4.825  16.399  0.00  0.00    +0.000 C 
ATOM     22  N   UNL     1       7.016   4.930  17.807  0.00  0.00    +0.000 N 
ATOM     23  C   UNL     1       7.854   5.506  18.715  0.00  0.00    +0.000 A 
ATOM     24  N   UNL     1       7.311   5.461  19.906  0.00  0.00    +0.000 NA
ATOM     25  N   UNL     1       6.101   4.826  19.785  0.00  0.00    +0.000 NA
ATOM     26  C   UNL     1       5.930   4.484  18.523  0.00  0.00    +0.000 A 
ENDBRANCH  20  26
ENDBRANCH  16  20
ENDBRANCH   1  16
TORSDOF 4
ENDMDL
MODEL 7
REMARK VINA RESULT:      -8.5      0.822      1.422
REMARK  Name = 
REMARK  5 active torsions:
REMARK  status: ('A' for Active; 'I' for Inactive)
REMARK    1  A    between atoms: C_1  and  N_2
REMARK    2  A    between atoms: C_6  and  C_7
REMARK    3  A    between atoms: C_7  and  C_8
REMARK    4  A    between atoms: C_8  and  C_9
REMARK    5  A    between atoms: C_13  and  N_14
REMARK                            x       y       z     vdW  Elec       q    Type
REMARK                         _______ _______ _______ _____ _____    ______ ____
ROOT
ATOM      1  C   UNL     1       4.433   5.249  17.042  0.00  0.00    +0.000 A 
ATOM      2  C   UNL     1       3.697   4.076  17.254  0.00  0.00    +0.000 A 
ATOM      3  C   UNL     1       2.518   4.093  17.993  0.00  0.00    +0.000 A 
ATOM      4  C   UNL     1       2.055   5.291  18.545  0.00  0.00    +0.000 A 
ATOM      5  C   UNL     1       2.733   6.502  18.365  0.00  0.00    +0.000 A 
ATOM      6  C   UNL     1       3.910   6.436  17.607  0.00  0.00    +0.000 A 
ENDROOT
BRANCH   5   7
ATOM      7  N   UNL     1       2.294   7.688  18.908  0.00  0.00    +0.000 N 
ATOM      8  C   UNL     1       1.967   8.885  18.118  0.00  0.00    +0.000 C 
ATOM      9  C   UNL     1       1.092   9.648  19.057  0.00  0.00    +0.000 C 
ATOM     10  C   UNL     1       1.017   9.051  20.247  0.00  0.00    +0.000 C 
ATOM     11  C   UNL     1       0.135   9.495  21.360  0.00  0.00    +0.000 C 
ATOM     12  C   UNL     1      -0.773  10.691  20.990  0.00  0.00    +0.000 C 
ATOM     13  C   UNL     1      -0.555  11.301  19.626  0.00  0.00    +0.000 C 
ATOM     14  C   UNL     1       0.322  10.812  18.733  0.00  0.00    +0.000 C 
ATOM     15  C   UNL     1       1.845   7.816  20.297  0.00  0.00    +0.000 C 
ENDBRANCH   5   7
BRANCH   1  16
ATOM     16  C   UNL     1       5.826   5.279  16.258  0.00  0.00    +0.000 C 
ATOM     17  C   UNL     1       7.072   5.879  16.962  0.00  0.00    +0.000 C 
ATOM     18  O   UNL     1       7.797   4.632  16.880  0.00  0.00    +0.000 OA
ATOM     19  C   UNL     1       6.654   3.962  16.318  0.00  0.00    +0.000 C 
BRANCH  16  20
ATOM     20  C   UNL     1       5.589   5.727  14.802  0.00  0.00    +0.000 C 
BRANCH  20  26
ATOM     21  C   UNL     1       8.249   5.495  13.037  0.00  0.00    +0.000 C 
ATOM     22  N   UNL     1       7.076   4.663  12.994  0.00  0.00    +0.000 N 
ATOM     23  C   UNL     1       6.885   3.646  12.106  0.00  0.00    +0.000 A 
ATOM     24  N   UNL     1       5.732   3.071  12.337  0.00  0.00    +0.000 NA
ATOM     25  N   UNL     1       5.141   3.733  13.382  0.00  0.00    +0.000 NA
ATOM     26  C   UNL     1       5.940   4.710  13.767  0.00  0.00    +0.000 A 
ENDBRANCH  20  26
ENDBRANCH  16  20
ENDBRANCH   1  16
TORSDOF 4
ENDMDL
MODEL 8
REMARK VINA RESULT:      -8.4      3.436      5.374
REMARK  Name = 
REMARK  5 active torsions:
REMARK  status: ('A' for Active; 'I' for Inactive)
REMARK    1  A    between atoms: C_1  and  N_2
REMARK    2  A    between atoms: C_6  and  C_7
REMARK    3  A    between atoms: C_7  and  C_8
REMARK    4  A    between atoms: C_8  and  C_9
REMARK    5  A    between atoms: C_13  and  N_14
REMARK                            x       y       z     vdW  Elec       q    Type
REMARK                         _______ _______ _______ _____ _____    ______ ____
ROOT
ATOM      1  C   UNL     1       2.142   7.392  19.265  0.00  0.00    +0.000 A 
ATOM      2  C   UNL     1       1.661   7.140  20.556  0.00  0.00    +0.000 A 
ATOM      3  C   UNL     1       1.019   8.134  21.288  0.00  0.00    +0.000 A 
ATOM      4  C   UNL     1       0.853   9.410  20.743  0.00  0.00    +0.000 A 
ATOM      5  C   UNL     1       1.300   9.730  19.456  0.00  0.00    +0.000 A 
ATOM      6  C   UNL     1       1.932   8.695  18.753  0.00  0.00    +0.000 A 
ENDROOT
BRANCH   5   7
ATOM      7  N   UNL     1       1.151  10.983  18.907  0.00  0.00    +0.000 N 
ATOM      8  C   UNL     1      -0.063  11.803  19.041  0.00  0.00    +0.000 C 
ATOM      9  C   UNL     1       0.453  13.174  18.754  0.00  0.00    +0.000 C 
ATOM     10  C   UNL     1       1.737  13.145  18.394  0.00  0.00    +0.000 C 
ATOM     11  C   UNL     1       2.575  14.352  18.158  0.00  0.00    +0.000 C 
ATOM     12  C   UNL     1       1.840  15.681  18.448  0.00  0.00    +0.000 C 
ATOM     13  C   UNL     1       0.376  15.575  18.804  0.00  0.00    +0.000 C 
ATOM     14  C   UNL     1      -0.264  14.401  18.938  0.00  0.00    +0.000 C 
ATOM     15  C   UNL     1       2.269  11.756  18.359  0.00  0.00    +0.000 C 
ENDBRANCH   5   7
BRANCH   1  16
ATOM     16  C   UNL     1       2.944   6.311  18.402  0.00  0.00    +0.000 C 
ATOM     17  C   UNL     1       4.093   6.790  17.476  0.00  0.00    +0.000 C 
ATOM     18  O   UNL     1       5.075   5.999  18.180  0.00  0.00    +0.000 OA
ATOM     19  C   UNL     1       4.098   5.584  19.151  0.00  0.00    +0.000 C 
BRANCH  16  20
ATOM     20  C   UNL     1       1.952   5.304  17.786  0.00  0.00    +0.000 C 
BRANCH  20  26
ATOM     21  C   UNL     1       1.001   3.514  20.264  0.00  0.00    +0.000 C 
ATOM     22  N   UNL     1       1.864   3.141  19.174  0.00  0.00    +0.000 N 
ATOM     23  C   UNL     1       2.488   1.934  19.065  0.00  0.00    +0.000 A 
ATOM     24  N   UNL     1       3.183   1.896  17.956  0.00  0.00    +0.000 NA
ATOM     25  N   UNL     1       3.032   3.108  17.331  0.00  0.00    +0.000 NA
ATOM     26  C   UNL     1       2.253   3.870  18.075  0.00  0.00    +0.000 A 
ENDBRANCH  20  26
ENDBRANCH  16  20
ENDBRANCH   1  16
TORSDOF 4
ENDMDL
MODEL 9
REMARK VINA RESULT:      -8.4      2.068      3.391
REMARK  Name = 
REMARK  5 active torsions:
REMARK  status: ('A' for Active; 'I' for Inactive)
REMARK    1  A    between atoms: C_1  and  N_2
REMARK    2  A    between atoms: C_6  and  C_7
REMARK    3  A    between atoms: C_7  and  C_8
REMARK    4  A    between atoms: C_8  and  C_9
REMARK    5  A    between atoms: C_13  and  N_14
REMARK                            x       y       z     vdW  Elec       q    Type
REMARK                         _______ _______ _______ _____ _____    ______ ____
ROOT
ATOM      1  C   UNL     1       4.779   4.506  17.684  0.00  0.00    +0.000 A 
ATOM      2  C   UNL     1       4.754   3.524  18.684  0.00  0.00    +0.000 A 
ATOM      3  C   UNL     1       3.919   3.649  19.790  0.00  0.00    +0.000 A 
ATOM      4  C   UNL     1       3.094   4.770  19.923  0.00  0.00    +0.000 A 
ATOM      5  C   UNL     1       3.061   5.784  18.959  0.00  0.00    +0.000 A 
ATOM      6  C   UNL     1       3.912   5.611  17.859  0.00  0.00    +0.000 A 
ENDROOT
BRANCH   5   7
ATOM      7  N   UNL     1       2.260   6.897  19.078  0.00  0.00    +0.000 N 
ATOM      8  C   UNL     1       1.643   7.338  20.339  0.00  0.00    +0.000 C 
ATOM      9  C   UNL     1       1.353   8.775  20.059  0.00  0.00    +0.000 C 
ATOM     10  C   UNL     1       1.645   9.093  18.797  0.00  0.00    +0.000 C 
ATOM     11  C   UNL     1       1.581  10.471  18.238  0.00  0.00    +0.000 C 
ATOM     12  C   UNL     1       1.216  11.547  19.286  0.00  0.00    +0.000 C 
ATOM     13  C   UNL     1       0.865  11.047  20.668  0.00  0.00    +0.000 C 
ATOM     14  C   UNL     1       0.926   9.751  21.017  0.00  0.00    +0.000 C 
ATOM     15  C   UNL     1       2.148   7.919  18.035  0.00  0.00    +0.000 C 
ENDBRANCH   5   7
BRANCH   1  16
ATOM     16  C   UNL     1       5.763   4.450  16.425  0.00  0.00    +0.000 C 
ATOM     17  C   UNL     1       5.507   3.393  15.318  0.00  0.00    +0.000 C 
ATOM     18  O   UNL     1       5.323   4.406  14.305  0.00  0.00    +0.000 OA
ATOM     19  C   UNL     1       5.442   5.456  15.283  0.00  0.00    +0.000 C 
BRANCH  16  20
ATOM     20  C   UNL     1       7.222   4.591  16.904  0.00  0.00    +0.000 C 
BRANCH  20  26
ATOM     21  C   UNL     1       7.967   5.592  19.851  0.00  0.00    +0.000 C 
ATOM     22  N   UNL     1       7.876   6.368  18.643  0.00  0.00    +0.000 N 
ATOM     23  C   UNL     1       8.035   7.721  18.583  0.00  0.00    +0.000 A 
ATOM     24  N   UNL     1       7.913   8.124  17.343  0.00  0.00    +0.000 NA
ATOM     25  N   UNL     1       7.648   7.020  16.573  0.00  0.00    +0.000 NA
ATOM     26  C   UNL     1       7.604   5.961  17.358  0.00  0.00    +0.000 A 
ENDBRANCH  20  26
ENDBRANCH  16  20
ENDBRANCH   1  16
TORSDOF 4
ENDMDL
