MODEL 1
REMARK VINA RESULT:      -9.2      0.000      0.000
REMARK  Name = 
REMARK  7 active torsions:
REMARK  status: ('A' for Active; 'I' for Inactive)
REMARK    1  A    between atoms: C_2  and  C_25
REMARK    2  A    between atoms: N_3  and  C_4
REMARK    3  A    between atoms: C_4  and  C_5
REMARK    4  A    between atoms: C_5  and  O_6
REMARK    5  A    between atoms: O_6  and  C_7
REMARK    6  A    between atoms: C_7  and  C_9
REMARK    7  A    between atoms: C_11  and  C_12
REMARK                            x       y       z     vdW  Elec       q    Type
REMARK                         _______ _______ _______ _____ _____    ______ ____
ROOT
ATOM      1  C   UNL     1       6.462   5.092  17.972  0.00  0.00    +0.000 A 
ATOM      2  C   UNL     1       5.478   4.748  18.908  0.00  0.00    +0.000 A 
ATOM      3  C   UNL     1       4.339   4.090  18.478  0.00  0.00    +0.000 A 
ATOM      4  N   UNL     1       4.172   3.765  17.173  0.00  0.00    +0.000 NA
ATOM      5  C   UNL     1       5.108   4.098  16.267  0.00  0.00    +0.000 A 
ATOM      6  C   UNL     1       4.881   3.752  14.941  0.00  0.00    +0.000 A 
ATOM      7  C   UNL     1       5.794   4.054  13.931  0.00  0.00    +0.000 A 
ATOM      8  C   UNL     1       6.968   4.716  14.240  0.00  0.00    +0.000 A 
ATOM      9  C   UNL     1       7.219   5.069  15.561  0.00  0.00    +0.000 A 
ATOM     10  C   UNL     1       6.295   4.775  16.603  0.00  0.00    +0.000 A 
ENDROOT
BRANCH   3  11
ATOM     11  C   UNL     1       3.237   3.704  19.388  0.00  0.00    +0.000 A 
ATOM     12  C   UNL     1       3.448   2.899  20.524  0.00  0.00    +0.000 A 
ATOM     13  C   UNL     1       2.398   2.557  21.383  0.00  0.00    +0.000 A 
ATOM     14  C   UNL     1       1.110   3.018  21.129  0.00  0.00    +0.000 A 
ATOM     15  C   UNL     1       0.871   3.813  20.013  0.00  0.00    +0.000 A 
ATOM     16  C   UNL     1       1.922   4.150  19.155  0.00  0.00    +0.000 A 
ENDBRANCH   3  11
BRANCH   1  17
ATOM     17  C   UNL     1       7.668   5.818  18.449  0.00  0.00    +0.000 C 
ATOM     18  O   UNL     1       8.215   5.633  19.522  0.00  0.00    +0.000 OA
BRANCH  17  19
ATOM     19  O   UNL     1       8.063   6.724  17.518  0.00  0.00    +0.000 OA
BRANCH  19  20
ATOM     20  C   UNL     1       7.626   8.074  17.751  0.00  0.00    +0.000 C 
BRANCH  20  21
ATOM     21  C   UNL     1       8.533   8.805  18.745  0.00  0.00    +0.000 C 
BRANCH  21  24
ATOM     22  O   UNL     1       9.654  10.902  20.262  0.00  0.00    +0.000 OA
ATOM     23  C   UNL     1       9.547  11.026  19.047  0.00  0.00    +0.000 C 
ATOM     24  N   UNL     1       9.040  10.055  18.222  0.00  0.00    +0.000 N 
ATOM     25  H   UNL     1       9.141  10.135  17.218  0.00  0.00    +0.000 HD
BRANCH  23  26
ATOM     26  C   UNL     1      10.006  12.261  18.381  0.00  0.00    +0.000 A 
ATOM     27  C   UNL     1      11.059  12.281  17.463  0.00  0.00    +0.000 A 
ATOM     28  C   UNL     1      11.440  13.491  16.891  0.00  0.00    +0.000 A 
ATOM     29  C   UNL     1      10.750  14.638  17.256  0.00  0.00    +0.000 A 
ATOM     30  N   UNL     1       9.718  14.650  18.128  0.00  0.00    +0.000 NA
ATOM     31  C   UNL     1       9.359  13.458  18.665  0.00  0.00    +0.000 A 
ENDBRANCH  23  26
ENDBRANCH  21  24
ENDBRANCH  20  21
ENDBRANCH  19  20
ENDBRANCH  17  19
ENDBRANCH   1  17
TORSDOF 7
ENDMDL
MODEL 2
REMARK VINA RESULT:      -9.0      2.962      3.993
REMARK  Name = 
REMARK  7 active torsions:
REMARK  status: ('A' for Active; 'I' for Inactive)
REMARK    1  A    between atoms: C_2  and  C_25
REMARK    2  A    between atoms: N_3  and  C_4
REMARK    3  A    between atoms: C_4  and  C_5
REMARK    4  A    between atoms: C_5  and  O_6
REMARK    5  A    between atoms: O_6  and  C_7
REMARK    6  A    between atoms: C_7  and  C_9
REMARK    7  A    between atoms: C_11  and  C_12
REMARK                            x       y       z     vdW  Elec       q    Type
REMARK                         _______ _______ _______ _____ _____    ______ ____
ROOT
ATOM      1  C   UNL     1       4.399   6.026  17.358  0.00  0.00    +0.000 A 
ATOM      2  C   UNL     1       3.777   7.213  17.767  0.00  0.00    +0.000 A 
ATOM      3  C   UNL     1       2.575   7.143  18.450  0.00  0.00    +0.000 A 
ATOM      4  N   UNL     1       2.005   5.948  18.737  0.00  0.00    +0.000 NA
ATOM      5  C   UNL     1       2.592   4.805  18.342  0.00  0.00    +0.000 A 
ATOM      6  C   UNL     1       1.958   3.608  18.652  0.00  0.00    +0.000 A 
ATOM      7  C   UNL     1       2.490   2.372  18.285  0.00  0.00    +0.000 A 
ATOM      8  C   UNL     1       3.686   2.316  17.593  0.00  0.00    +0.000 A 
ATOM      9  C   UNL     1       4.340   3.500  17.276  0.00  0.00    +0.000 A 
ATOM     10  C   UNL     1       3.808   4.771  17.636  0.00  0.00    +0.000 A 
ENDROOT
BRANCH   3  11
ATOM     11  C   UNL     1       1.833   8.341  18.904  0.00  0.00    +0.000 A 
ATOM     12  C   UNL     1       1.547   9.418  18.042  0.00  0.00    +0.000 A 
ATOM     13  C   UNL     1       0.829  10.535  18.482  0.00  0.00    +0.000 A 
ATOM     14  C   UNL     1       0.375  10.600  19.796  0.00  0.00    +0.000 A 
ATOM     15  C   UNL     1       0.645   9.553  20.670  0.00  0.00    +0.000 A 
ATOM     16  C   UNL     1       1.365   8.439  20.228  0.00  0.00    +0.000 A 
ENDBRANCH   3  11
BRANCH   1  17
ATOM     17  C   UNL     1       5.678   6.121  16.607  0.00  0.00    +0.000 C 
ATOM     18  O   UNL     1       5.814   5.860  15.424  0.00  0.00    +0.000 OA
BRANCH  17  19
ATOM     19  O   UNL     1       6.673   6.533  17.435  0.00  0.00    +0.000 OA
BRANCH  19  20
ATOM     20  C   UNL     1       7.311   7.767  17.061  0.00  0.00    +0.000 C 
BRANCH  20  21
ATOM     21  C   UNL     1       8.169   8.333  18.195  0.00  0.00    +0.000 C 
BRANCH  21  24
ATOM     22  O   UNL     1       9.203  10.195  20.045  0.00  0.00    +0.000 OA
ATOM     23  C   UNL     1       9.194  10.471  18.851  0.00  0.00    +0.000 C 
ATOM     24  N   UNL     1       8.737   9.624  17.874  0.00  0.00    +0.000 N 
ATOM     25  H   UNL     1       8.918   9.826  16.898  0.00  0.00    +0.000 HD
BRANCH  23  26
ATOM     26  C   UNL     1       9.725  11.767  18.382  0.00  0.00    +0.000 A 
ATOM     27  C   UNL     1       9.071  12.981  18.608  0.00  0.00    +0.000 A 
ATOM     28  C   UNL     1       9.631  14.157  18.119  0.00  0.00    +0.000 A 
ATOM     29  C   UNL     1      10.829  14.076  17.425  0.00  0.00    +0.000 A 
ATOM     30  N   UNL     1      11.495  12.921  17.204  0.00  0.00    +0.000 NA
ATOM     31  C   UNL     1      10.934  11.790  17.697  0.00  0.00    +0.000 A 
ENDBRANCH  23  26
ENDBRANCH  21  24
ENDBRANCH  20  21
ENDBRANCH  19  20
ENDBRANCH  17  19
ENDBRANCH   1  17
TORSDOF 7
ENDMDL
MODEL 3
REMARK VINA RESULT:      -9.0      1.175      1.605
REMARK  Name = 
REMARK  7 active torsions:
REMARK  status: ('A' for Active; 'I' for Inactive)
REMARK    1  A    between atoms: C_2  and  C_25
REMARK    2  A    between atoms: N_3  and  C_4
REMARK    3  A    between atoms: C_4  and  C_5
REMARK    4  A    between atoms: C_5  and  O_6
REMARK    5  A    between atoms: O_6  and  C_7
REMARK    6  A    between atoms: C_7  and  C_9
REMARK    7  A    between atoms: C_11  and  C_12
REMARK                            x       y       z     vdW  Elec       q    Type
REMARK                         _______ _______ _______ _____ _____    ______ ____
ROOT
ATOM      1  C   UNL     1       6.399   5.566  17.499  0.00  0.00    +0.000 A 
ATOM      2  C   UNL     1       5.333   5.319  18.373  0.00  0.00    +0.000 A 
ATOM      3  C   UNL     1       4.256   4.573  17.928  0.00  0.00    +0.000 A 
ATOM      4  N   UNL     1       4.228   4.070  16.669  0.00  0.00    +0.000 NA
ATOM      5  C   UNL     1       5.245   4.309  15.822  0.00  0.00    +0.000 A 
ATOM      6  C   UNL     1       5.160   3.781  14.540  0.00  0.00    +0.000 A 
ATOM      7  C   UNL     1       6.164   3.974  13.592  0.00  0.00    +0.000 A 
ATOM      8  C   UNL     1       7.288   4.709  13.921  0.00  0.00    +0.000 A 
ATOM      9  C   UNL     1       7.397   5.244  15.199  0.00  0.00    +0.000 A 
ATOM     10  C   UNL     1       6.378   5.063  16.176  0.00  0.00    +0.000 A 
ENDROOT
BRANCH   3  11
ATOM     11  C   UNL     1       3.075   4.277  18.769  0.00  0.00    +0.000 A 
ATOM     12  C   UNL     1       2.044   3.417  18.341  0.00  0.00    +0.000 A 
ATOM     13  C   UNL     1       0.942   3.134  19.155  0.00  0.00    +0.000 A 
ATOM     14  C   UNL     1       0.847   3.701  20.423  0.00  0.00    +0.000 A 
ATOM     15  C   UNL     1       1.849   4.555  20.872  0.00  0.00    +0.000 A 
ATOM     16  C   UNL     1       2.947   4.838  20.054  0.00  0.00    +0.000 A 
ENDBRANCH   3  11
BRANCH   1  17
ATOM     17  C   UNL     1       7.536   6.389  17.987  0.00  0.00    +0.000 C 
ATOM     18  O   UNL     1       8.175   6.167  19.002  0.00  0.00    +0.000 OA
BRANCH  17  19
ATOM     19  O   UNL     1       7.753   7.430  17.142  0.00  0.00    +0.000 OA
BRANCH  19  20
ATOM     20  C   UNL     1       7.404   8.725  17.662  0.00  0.00    +0.000 C 
BRANCH  20  21
ATOM     21  C   UNL     1       8.616   9.451  18.250  0.00  0.00    +0.000 C 
BRANCH  21  24
ATOM     22  O   UNL     1      10.594  11.344  17.567  0.00  0.00    +0.000 OA
ATOM     23  C   UNL     1       9.488  11.729  17.931  0.00  0.00    +0.000 C 
ATOM     24  N   UNL     1       8.455  10.889  18.259  0.00  0.00    +0.000 N 
ATOM     25  H   UNL     1       7.518  11.254  18.376  0.00  0.00    +0.000 HD
BRANCH  23  26
ATOM     26  C   UNL     1       9.191  13.174  18.006  0.00  0.00    +0.000 A 
ATOM     27  C   UNL     1       7.916  13.699  17.783  0.00  0.00    +0.000 A 
ATOM     28  C   UNL     1       7.723  15.075  17.859  0.00  0.00    +0.000 A 
ATOM     29  C   UNL     1       8.815  15.876  18.160  0.00  0.00    +0.000 A 
ATOM     30  N   UNL     1      10.057  15.399  18.397  0.00  0.00    +0.000 NA
ATOM     31  C   UNL     1      10.218  14.055  18.326  0.00  0.00    +0.000 A 
ENDBRANCH  23  26
ENDBRANCH  21  24
ENDBRANCH  20  21
ENDBRANCH  19  20
ENDBRANCH  17  19
ENDBRANCH   1  17
TORSDOF 7
ENDMDL
MODEL 4
REMARK VINA RESULT:      -8.9      4.839      7.209
REMARK  Name = 
REMARK  7 active torsions:
REMARK  status: ('A' for Active; 'I' for Inactive)
REMARK    1  A    between atoms: C_2  and  C_25
REMARK    2  A    between atoms: N_3  and  C_4
REMARK    3  A    between atoms: C_4  and  C_5
REMARK    4  A    between atoms: C_5  and  O_6
REMARK    5  A    between atoms: O_6  and  C_7
REMARK    6  A    between atoms: C_7  and  C_9
REMARK    7  A    between atoms: C_11  and  C_12
REMARK                            x       y       z     vdW  Elec       q    Type
REMARK                         _______ _______ _______ _____ _____    ______ ____
ROOT
ATOM      1  C   UNL     1       3.310   5.556  18.804  0.00  0.00    +0.000 A 
ATOM      2  C   UNL     1       2.789   6.839  19.017  0.00  0.00    +0.000 A 
ATOM      3  C   UNL     1       1.914   7.045  20.068  0.00  0.00    +0.000 A 
ATOM      4  N   UNL     1       1.568   6.031  20.898  0.00  0.00    +0.000 NA
ATOM      5  C   UNL     1       2.058   4.795  20.697  0.00  0.00    +0.000 A 
ATOM      6  C   UNL     1       1.662   3.789  21.569  0.00  0.00    +0.000 A 
ATOM      7  C   UNL     1       2.117   2.477  21.442  0.00  0.00    +0.000 A 
ATOM      8  C   UNL     1       2.992   2.149  20.423  0.00  0.00    +0.000 A 
ATOM      9  C   UNL     1       3.406   3.139  19.540  0.00  0.00    +0.000 A 
ATOM     10  C   UNL     1       2.945   4.482  19.652  0.00  0.00    +0.000 A 
ENDROOT
BRANCH   3  11
ATOM     11  C   UNL     1       1.296   8.359  20.360  0.00  0.00    +0.000 A 
ATOM     12  C   UNL     1       0.751   8.669  21.621  0.00  0.00    +0.000 A 
ATOM     13  C   UNL     1       0.186   9.921  21.885  0.00  0.00    +0.000 A 
ATOM     14  C   UNL     1       0.157  10.897  20.894  0.00  0.00    +0.000 A 
ATOM     15  C   UNL     1       0.686  10.619  19.638  0.00  0.00    +0.000 A 
ATOM     16  C   UNL     1       1.247   9.365  19.377  0.00  0.00    +0.000 A 
ENDBRANCH   3  11
BRANCH   1  17
ATOM     17  C   UNL     1       4.230   5.348  17.656  0.00  0.00    +0.000 C 
ATOM     18  O   UNL     1       3.979   4.673  16.673  0.00  0.00    +0.000 OA
BRANCH  17  19
ATOM     19  O   UNL     1       5.395   6.012  17.870  0.00  0.00    +0.000 OA
BRANCH  19  20
ATOM     20  C   UNL     1       6.275   5.413  18.836  0.00  0.00    +0.000 C 
BRANCH  20  21
ATOM     21  C   UNL     1       7.442   4.679  18.170  0.00  0.00    +0.000 C 
BRANCH  21  24
ATOM     22  O   UNL     1       7.795   6.315  15.899  0.00  0.00    +0.000 OA
ATOM     23  C   UNL     1       7.342   5.184  15.764  0.00  0.00    +0.000 C 
ATOM     24  N   UNL     1       7.158   4.305  16.802  0.00  0.00    +0.000 N 
ATOM     25  H   UNL     1       6.955   3.331  16.615  0.00  0.00    +0.000 HD
BRANCH  23  26
ATOM     26  C   UNL     1       6.988   4.678  14.423  0.00  0.00    +0.000 A 
ATOM     27  C   UNL     1       5.918   3.809  14.198  0.00  0.00    +0.000 A 
ATOM     28  C   UNL     1       5.660   3.367  12.904  0.00  0.00    +0.000 A 
ATOM     29  C   UNL     1       6.482   3.814  11.880  0.00  0.00    +0.000 A 
ATOM     30  N   UNL     1       7.514   4.667  12.061  0.00  0.00    +0.000 NA
ATOM     31  C   UNL     1       7.740   5.091  13.329  0.00  0.00    +0.000 A 
ENDBRANCH  23  26
ENDBRANCH  21  24
ENDBRANCH  20  21
ENDBRANCH  19  20
ENDBRANCH  17  19
ENDBRANCH   1  17
TORSDOF 7
ENDMDL
MODEL 5
REMARK VINA RESULT:      -8.9      5.726      8.761
REMARK  Name = 
REMARK  7 active torsions:
REMARK  status: ('A' for Active; 'I' for Inactive)
REMARK    1  A    between atoms: C_2  and  C_25
REMARK    2  A    between atoms: N_3  and  C_4
REMARK    3  A    between atoms: C_4  and  C_5
REMARK    4  A    between atoms: C_5  and  O_6
REMARK    5  A    between atoms: O_6  and  C_7
REMARK    6  A    between atoms: C_7  and  C_9
REMARK    7  A    between atoms: C_11  and  C_12
REMARK                            x       y       z     vdW  Elec       q    Type
REMARK                         _______ _______ _______ _____ _____    ______ ____
ROOT
ATOM      1  C   UNL     1       2.727   6.121  18.702  0.00  0.00    +0.000 A 
ATOM      2  C   UNL     1       3.665   6.130  17.661  0.00  0.00    +0.000 A 
ATOM      3  C   UNL     1       4.233   4.935  17.254  0.00  0.00    +0.000 A 
ATOM      4  N   UNL     1       3.883   3.763  17.837  0.00  0.00    +0.000 NA
ATOM      5  C   UNL     1       2.988   3.746  18.840  0.00  0.00    +0.000 A 
ATOM      6  C   UNL     1       2.675   2.519  19.411  0.00  0.00    +0.000 A 
ATOM      7  C   UNL     1       1.758   2.400  20.456  0.00  0.00    +0.000 A 
ATOM      8  C   UNL     1       1.131   3.529  20.951  0.00  0.00    +0.000 A 
ATOM      9  C   UNL     1       1.426   4.767  20.394  0.00  0.00    +0.000 A 
ATOM     10  C   UNL     1       2.364   4.907  19.332  0.00  0.00    +0.000 A 
ENDROOT
BRANCH   3  11
ATOM     11  C   UNL     1       5.247   4.847  16.179  0.00  0.00    +0.000 A 
ATOM     12  C   UNL     1       6.555   5.344  16.339  0.00  0.00    +0.000 A 
ATOM     13  C   UNL     1       7.507   5.237  15.319  0.00  0.00    +0.000 A 
ATOM     14  C   UNL     1       7.174   4.625  14.115  0.00  0.00    +0.000 A 
ATOM     15  C   UNL     1       5.890   4.127  13.928  0.00  0.00    +0.000 A 
ATOM     16  C   UNL     1       4.940   4.238  14.948  0.00  0.00    +0.000 A 
ENDBRANCH   3  11
BRANCH   1  17
ATOM     17  C   UNL     1       2.146   7.416  19.140  0.00  0.00    +0.000 C 
ATOM     18  O   UNL     1       2.121   7.816  20.291  0.00  0.00    +0.000 OA
BRANCH  17  19
ATOM     19  O   UNL     1       1.638   8.082  18.072  0.00  0.00    +0.000 OA
BRANCH  19  20
ATOM     20  C   UNL     1       2.138   9.418  17.887  0.00  0.00    +0.000 C 
BRANCH  20  21
ATOM     21  C   UNL     1       1.276  10.457  18.609  0.00  0.00    +0.000 C 
BRANCH  21  24
ATOM     22  O   UNL     1      -0.486  12.657  18.733  0.00  0.00    +0.000 OA
ATOM     23  C   UNL     1      -0.875  11.596  18.257  0.00  0.00    +0.000 C 
ATOM     24  N   UNL     1      -0.088  10.480  18.130  0.00  0.00    +0.000 N 
ATOM     25  H   UNL     1      -0.401   9.696  17.571  0.00  0.00    +0.000 HD
BRANCH  23  26
ATOM     26  C   UNL     1      -2.256  11.471  17.749  0.00  0.00    +0.000 A 
ATOM     27  C   UNL     1      -2.550  11.066  16.444  0.00  0.00    +0.000 A 
ATOM     28  C   UNL     1      -3.878  10.988  16.038  0.00  0.00    +0.000 A 
ATOM     29  C   UNL     1      -4.867  11.316  16.955  0.00  0.00    +0.000 A 
ATOM     30  N   UNL     1      -4.617  11.695  18.228  0.00  0.00    +0.000 NA
ATOM     31  C   UNL     1      -3.315  11.754  18.603  0.00  0.00    +0.000 A 
ENDBRANCH  23  26
ENDBRANCH  21  24
ENDBRANCH  20  21
ENDBRANCH  19  20
ENDBRANCH  17  19
ENDBRANCH   1  17
TORSDOF 7
ENDMDL
MODEL 6
REMARK VINA RESULT:      -8.9      4.847      7.199
REMARK  Name = 
REMARK  7 active torsions:
REMARK  status: ('A' for Active; 'I' for Inactive)
REMARK    1  A    between atoms: C_2  and  C_25
REMARK    2  A    between atoms: N_3  and  C_4
REMARK    3  A    between atoms: C_4  and  C_5
REMARK    4  A    between atoms: C_5  and  O_6
REMARK    5  A    between atoms: O_6  and  C_7
REMARK    6  A    between atoms: C_7  and  C_9
REMARK    7  A    between atoms: C_11  and  C_12
REMARK                            x       y       z     vdW  Elec       q    Type
REMARK                         _______ _______ _______ _____ _____    ______ ____
ROOT
ATOM      1  C   UNL     1       3.250   5.864  18.885  0.00  0.00    +0.000 A 
ATOM      2  C   UNL     1       2.778   7.120  19.289  0.00  0.00    +0.000 A 
ATOM      3  C   UNL     1       1.769   7.188  20.234  0.00  0.00    +0.000 A 
ATOM      4  N   UNL     1       1.246   6.063  20.778  0.00  0.00    +0.000 NA
ATOM      5  C   UNL     1       1.689   4.854  20.391  0.00  0.00    +0.000 A 
ATOM      6  C   UNL     1       1.110   3.733  20.971  0.00  0.00    +0.000 A 
ATOM      7  C   UNL     1       1.503   2.438  20.634  0.00  0.00    +0.000 A 
ATOM      8  C   UNL     1       2.500   2.244  19.696  0.00  0.00    +0.000 A 
ATOM      9  C   UNL     1       3.096   3.351  19.104  0.00  0.00    +0.000 A 
ATOM     10  C   UNL     1       2.702   4.680  19.431  0.00  0.00    +0.000 A 
ENDROOT
BRANCH   3  11
ATOM     11  C   UNL     1       1.191   8.466  20.708  0.00  0.00    +0.000 A 
ATOM     12  C   UNL     1       0.966   9.555  19.843  0.00  0.00    +0.000 A 
ATOM     13  C   UNL     1       0.402  10.750  20.304  0.00  0.00    +0.000 A 
ATOM     14  C   UNL     1       0.046  10.883  21.643  0.00  0.00    +0.000 A 
ATOM     15  C   UNL     1       0.259   9.825  22.520  0.00  0.00    +0.000 A 
ATOM     16  C   UNL     1       0.824   8.634  22.057  0.00  0.00    +0.000 A 
ENDBRANCH   3  11
BRANCH   1  17
ATOM     17  C   UNL     1       4.318   5.810  17.852  0.00  0.00    +0.000 C 
ATOM     18  O   UNL     1       4.402   6.559  16.894  0.00  0.00    +0.000 OA
BRANCH  17  19
ATOM     19  O   UNL     1       5.180   4.798  18.129  0.00  0.00    +0.000 OA
BRANCH  19  20
ATOM     20  C   UNL     1       6.364   5.181  18.849  0.00  0.00    +0.000 C 
BRANCH  20  21
ATOM     21  C   UNL     1       7.640   4.732  18.132  0.00  0.00    +0.000 C 
BRANCH  21  24
ATOM     22  O   UNL     1       7.586   6.480  15.919  0.00  0.00    +0.000 OA
ATOM     23  C   UNL     1       7.374   5.284  15.750  0.00  0.00    +0.000 C 
ATOM     24  N   UNL     1       7.404   4.353  16.757  0.00  0.00    +0.000 N 
ATOM     25  H   UNL     1       7.401   3.365  16.537  0.00  0.00    +0.000 HD
BRANCH  23  26
ATOM     26  C   UNL     1       7.096   4.761  14.397  0.00  0.00    +0.000 A 
ATOM     27  C   UNL     1       7.811   5.165  13.267  0.00  0.00    +0.000 A 
ATOM     28  C   UNL     1       7.476   4.634  12.025  0.00  0.00    +0.000 A 
ATOM     29  C   UNL     1       6.440   3.715  11.960  0.00  0.00    +0.000 A 
ATOM     30  N   UNL     1       5.740   3.291  13.036  0.00  0.00    +0.000 NA
ATOM     31  C   UNL     1       6.091   3.815  14.236  0.00  0.00    +0.000 A 
ENDBRANCH  23  26
ENDBRANCH  21  24
ENDBRANCH  20  21
ENDBRANCH  19  20
ENDBRANCH  17  19
ENDBRANCH   1  17
TORSDOF 7
ENDMDL
MODEL 7
REMARK VINA RESULT:      -8.9      3.975      6.673
REMARK  Name = 
REMARK  7 active torsions:
REMARK  status: ('A' for Active; 'I' for Inactive)
REMARK    1  A    between atoms: C_2  and  C_25
REMARK    2  A    between atoms: N_3  and  C_4
REMARK    3  A    between atoms: C_4  and  C_5
REMARK    4  A    between atoms: C_5  and  O_6
REMARK    5  A    between atoms: O_6  and  C_7
REMARK    6  A    between atoms: C_7  and  C_9
REMARK    7  A    between atoms: C_11  and  C_12
REMARK                            x       y       z     vdW  Elec       q    Type
REMARK                         _______ _______ _______ _____ _____    ______ ____
ROOT
ATOM      1  C   UNL     1       4.376   4.954  18.989  0.00  0.00    +0.000 A 
ATOM      2  C   UNL     1       3.916   6.269  19.132  0.00  0.00    +0.000 A 
ATOM      3  C   UNL     1       2.554   6.505  19.191  0.00  0.00    +0.000 A 
ATOM      4  N   UNL     1       1.666   5.484  19.126  0.00  0.00    +0.000 NA
ATOM      5  C   UNL     1       2.098   4.219  18.983  0.00  0.00    +0.000 A 
ATOM      6  C   UNL     1       1.145   3.211  18.909  0.00  0.00    +0.000 A 
ATOM      7  C   UNL     1       1.496   1.869  18.761  0.00  0.00    +0.000 A 
ATOM      8  C   UNL     1       2.830   1.512  18.684  0.00  0.00    +0.000 A 
ATOM      9  C   UNL     1       3.802   2.503  18.759  0.00  0.00    +0.000 A 
ATOM     10  C   UNL     1       3.460   3.878  18.903  0.00  0.00    +0.000 A 
ENDROOT
BRANCH   3  11
ATOM     11  C   UNL     1       1.973   7.861  19.320  0.00  0.00    +0.000 A 
ATOM     12  C   UNL     1       1.898   8.752  18.231  0.00  0.00    +0.000 A 
ATOM     13  C   UNL     1       1.330  10.024  18.366  0.00  0.00    +0.000 A 
ATOM     14  C   UNL     1       0.819  10.434  19.593  0.00  0.00    +0.000 A 
ATOM     15  C   UNL     1       0.881   9.576  20.686  0.00  0.00    +0.000 A 
ATOM     16  C   UNL     1       1.452   8.307  20.549  0.00  0.00    +0.000 A 
ENDBRANCH   3  11
BRANCH   1  17
ATOM     17  C   UNL     1       5.841   4.722  18.905  0.00  0.00    +0.000 C 
ATOM     18  O   UNL     1       6.367   3.756  18.379  0.00  0.00    +0.000 OA
BRANCH  17  19
ATOM     19  O   UNL     1       6.507   5.741  19.508  0.00  0.00    +0.000 OA
BRANCH  19  20
ATOM     20  C   UNL     1       7.734   6.134  18.870  0.00  0.00    +0.000 C 
BRANCH  20  21
ATOM     21  C   UNL     1       7.484   6.968  17.611  0.00  0.00    +0.000 C 
BRANCH  21  24
ATOM     22  O   UNL     1       5.295   6.662  15.858  0.00  0.00    +0.000 OA
ATOM     23  C   UNL     1       6.341   6.064  15.629  0.00  0.00    +0.000 C 
ATOM     24  N   UNL     1       7.466   6.167  16.406  0.00  0.00    +0.000 N 
ATOM     25  H   UNL     1       8.350   5.799  16.076  0.00  0.00    +0.000 HD
BRANCH  23  26
ATOM     26  C   UNL     1       6.456   5.193  14.442  0.00  0.00    +0.000 A 
ATOM     27  C   UNL     1       7.504   5.297  13.525  0.00  0.00    +0.000 A 
ATOM     28  C   UNL     1       7.531   4.448  12.423  0.00  0.00    +0.000 A 
ATOM     29  C   UNL     1       6.509   3.521  12.282  0.00  0.00    +0.000 A 
ATOM     30  N   UNL     1       5.491   3.383  13.159  0.00  0.00    +0.000 NA
ATOM     31  C   UNL     1       5.491   4.216  14.229  0.00  0.00    +0.000 A 
ENDBRANCH  23  26
ENDBRANCH  21  24
ENDBRANCH  20  21
ENDBRANCH  19  20
ENDBRANCH  17  19
ENDBRANCH   1  17
TORSDOF 7
ENDMDL
MODEL 8
REMARK VINA RESULT:      -8.9      5.453      8.719
REMARK  Name = 
REMARK  7 active torsions:
REMARK  status: ('A' for Active; 'I' for Inactive)
REMARK    1  A    between atoms: C_2  and  C_25
REMARK    2  A    between atoms: N_3  and  C_4
REMARK    3  A    between atoms: C_4  and  C_5
REMARK    4  A    between atoms: C_5  and  O_6
REMARK    5  A    between atoms: O_6  and  C_7
REMARK    6  A    between atoms: C_7  and  C_9
REMARK    7  A    between atoms: C_11  and  C_12
REMARK                            x       y       z     vdW  Elec       q    Type
REMARK                         _______ _______ _______ _____ _____    ______ ____
ROOT
ATOM      1  C   UNL     1       2.684   6.166  18.762  0.00  0.00    +0.000 A 
ATOM      2  C   UNL     1       3.636   6.194  17.734  0.00  0.00    +0.000 A 
ATOM      3  C   UNL     1       4.167   5.001  17.275  0.00  0.00    +0.000 A 
ATOM      4  N   UNL     1       3.769   3.815  17.795  0.00  0.00    +0.000 NA
ATOM      5  C   UNL     1       2.861   3.780  18.787  0.00  0.00    +0.000 A 
ATOM      6  C   UNL     1       2.498   2.538  19.292  0.00  0.00    +0.000 A 
ATOM      7  C   UNL     1       1.565   2.401  20.320  0.00  0.00    +0.000 A 
ATOM      8  C   UNL     1       0.970   3.525  20.862  0.00  0.00    +0.000 A 
ATOM      9  C   UNL     1       1.315   4.778  20.370  0.00  0.00    +0.000 A 
ATOM     10  C   UNL     1       2.271   4.936  19.327  0.00  0.00    +0.000 A 
ENDROOT
BRANCH   3  11
ATOM     11  C   UNL     1       5.192   4.930  16.209  0.00  0.00    +0.000 A 
ATOM     12  C   UNL     1       6.321   5.772  16.195  0.00  0.00    +0.000 A 
ATOM     13  C   UNL     1       7.289   5.680  15.190  0.00  0.00    +0.000 A 
ATOM     14  C   UNL     1       7.154   4.738  14.175  0.00  0.00    +0.000 A 
ATOM     15  C   UNL     1       6.049   3.894  14.161  0.00  0.00    +0.000 A 
ATOM     16  C   UNL     1       5.081   3.991  15.166  0.00  0.00    +0.000 A 
ENDBRANCH   3  11
BRANCH   1  17
ATOM     17  C   UNL     1       2.142   7.458  19.257  0.00  0.00    +0.000 C 
ATOM     18  O   UNL     1       2.152   7.819  20.422  0.00  0.00    +0.000 OA
BRANCH  17  19
ATOM     19  O   UNL     1       1.627   8.172  18.223  0.00  0.00    +0.000 OA
BRANCH  19  20
ATOM     20  C   UNL     1       2.312   9.401  17.925  0.00  0.00    +0.000 C 
BRANCH  20  21
ATOM     21  C   UNL     1       1.598  10.615  18.527  0.00  0.00    +0.000 C 
BRANCH  21  24
ATOM     22  O   UNL     1      -0.863  10.076  19.795  0.00  0.00    +0.000 OA
ATOM     23  C   UNL     1      -0.857  10.512  18.649  0.00  0.00    +0.000 C 
ATOM     24  N   UNL     1       0.285  10.829  17.959  0.00  0.00    +0.000 N 
ATOM     25  H   UNL     1       0.230  11.350  17.093  0.00  0.00    +0.000 HD
BRANCH  23  26
ATOM     26  C   UNL     1      -2.127  10.759  17.939  0.00  0.00    +0.000 A 
ATOM     27  C   UNL     1      -3.189  11.466  18.508  0.00  0.00    +0.000 A 
ATOM     28  C   UNL     1      -4.360  11.642  17.776  0.00  0.00    +0.000 A 
ATOM     29  C   UNL     1      -4.424  11.105  16.499  0.00  0.00    +0.000 A 
ATOM     30  N   UNL     1      -3.409  10.431  15.913  0.00  0.00    +0.000 NA
ATOM     31  C   UNL     1      -2.276  10.281  16.643  0.00  0.00    +0.000 A 
ENDBRANCH  23  26
ENDBRANCH  21  24
ENDBRANCH  20  21
ENDBRANCH  19  20
ENDBRANCH  17  19
ENDBRANCH   1  17
TORSDOF 7
ENDMDL
MODEL 9
REMARK VINA RESULT:      -8.8      3.057      4.202
REMARK  Name = 
REMARK  7 active torsions:
REMARK  status: ('A' for Active; 'I' for Inactive)
REMARK    1  A    between atoms: C_2  and  C_25
REMARK    2  A    between atoms: N_3  and  C_4
REMARK    3  A    between atoms: C_4  and  C_5
REMARK    4  A    between atoms: C_5  and  O_6
REMARK    5  A    between atoms: O_6  and  C_7
REMARK    6  A    between atoms: C_7  and  C_9
REMARK    7  A    between atoms: C_11  and  C_12
REMARK                            x       y       z     vdW  Elec       q    Type
REMARK                         _______ _______ _______ _____ _____    ______ ____
ROOT
ATOM      1  C   UNL     1       4.249   5.794  17.508  0.00  0.00    +0.000 A 
ATOM      2  C   UNL     1       3.680   6.986  17.976  0.00  0.00    +0.000 A 
ATOM      3  C   UNL     1       2.523   6.928  18.734  0.00  0.00    +0.000 A 
ATOM      4  N   UNL     1       1.947   5.740  19.038  0.00  0.00    +0.000 NA
ATOM      5  C   UNL     1       2.483   4.592  18.587  0.00  0.00    +0.000 A 
ATOM      6  C   UNL     1       1.845   3.404  18.917  0.00  0.00    +0.000 A 
ATOM      7  C   UNL     1       2.326   2.164  18.496  0.00  0.00    +0.000 A 
ATOM      8  C   UNL     1       3.473   2.096  17.728  0.00  0.00    +0.000 A 
ATOM      9  C   UNL     1       4.131   3.272  17.388  0.00  0.00    +0.000 A 
ATOM     10  C   UNL     1       3.649   4.547  17.803  0.00  0.00    +0.000 A 
ENDROOT
BRANCH   3  11
ATOM     11  C   UNL     1       1.837   8.133  19.255  0.00  0.00    +0.000 A 
ATOM     12  C   UNL     1       1.516   9.229  18.431  0.00  0.00    +0.000 A 
ATOM     13  C   UNL     1       0.852  10.353  18.935  0.00  0.00    +0.000 A 
ATOM     14  C   UNL     1       0.488  10.405  20.277  0.00  0.00    +0.000 A 
ATOM     15  C   UNL     1       0.794   9.338  21.115  0.00  0.00    +0.000 A 
ATOM     16  C   UNL     1       1.460   8.217  20.609  0.00  0.00    +0.000 A 
ENDBRANCH   3  11
BRANCH   1  17
ATOM     17  C   UNL     1       5.478   5.878  16.677  0.00  0.00    +0.000 C 
ATOM     18  O   UNL     1       5.503   6.177  15.496  0.00  0.00    +0.000 OA
BRANCH  17  19
ATOM     19  O   UNL     1       6.566   5.561  17.425  0.00  0.00    +0.000 OA
BRANCH  19  20
ATOM     20  C   UNL     1       7.087   6.630  18.234  0.00  0.00    +0.000 C 
BRANCH  20  21
ATOM     21  C   UNL     1       7.704   7.743  17.383  0.00  0.00    +0.000 C 
BRANCH  21  24
ATOM     22  O   UNL     1       7.718  10.564  17.361  0.00  0.00    +0.000 OA
ATOM     23  C   UNL     1       8.539   9.961  18.043  0.00  0.00    +0.000 C 
ATOM     24  N   UNL     1       8.596   8.594  18.140  0.00  0.00    +0.000 N 
ATOM     25  H   UNL     1       9.170   8.157  18.850  0.00  0.00    +0.000 HD
BRANCH  23  26
ATOM     26  C   UNL     1       9.525  10.705  18.852  0.00  0.00    +0.000 A 
ATOM     27  C   UNL     1      10.721  11.199  18.324  0.00  0.00    +0.000 A 
ATOM     28  C   UNL     1      11.604  11.877  19.158  0.00  0.00    +0.000 A 
ATOM     29  C   UNL     1      11.257  12.041  20.491  0.00  0.00    +0.000 A 
ATOM     30  N   UNL     1      10.101  11.590  21.029  0.00  0.00    +0.000 NA
ATOM     31  C   UNL     1       9.253  10.941  20.194  0.00  0.00    +0.000 A 
ENDBRANCH  23  26
ENDBRANCH  21  24
ENDBRANCH  20  21
ENDBRANCH  19  20
ENDBRANCH  17  19
ENDBRANCH   1  17
TORSDOF 7
ENDMDL
