MODEL 1
REMARK VINA RESULT:      -8.6      0.000      0.000
REMARK  Name = 
REMARK  5 active torsions:
REMARK  status: ('A' for Active; 'I' for Inactive)
REMARK    1  A    between atoms: C_1  and  N_2
REMARK    2  A    between atoms: C_6  and  C_7
REMARK    3  A    between atoms: C_6  and  C_8
REMARK    4  A    between atoms: C_12  and  N_13
REMARK    5  A    between atoms: C_20  and  C_21
REMARK                            x       y       z     vdW  Elec       q    Type
REMARK                         _______ _______ _______ _____ _____    ______ ____
ROOT
ATOM      1  C   UNL     1       1.276   8.985  19.897  0.00  0.00    +0.000 A 
ATOM      2  C   UNL     1       1.873   9.407  18.693  0.00  0.00    +0.000 A 
ATOM      3  C   UNL     1       2.457   8.510  17.806  0.00  0.00    +0.000 A 
ATOM      4  C   UNL     1       2.593   7.183  18.170  0.00  0.00    +0.000 A 
ATOM      5  C   UNL     1       2.323   6.817  19.494  0.00  0.00    +0.000 A 
ATOM      6  C   UNL     1       1.516   7.653  20.282  0.00  0.00    +0.000 A 
ENDROOT
BRANCH   5   7
ATOM      7  N   UNL     1       3.261   5.919  20.180  0.00  0.00    +0.000 N 
ATOM      8  C   UNL     1       4.412   5.625  19.298  0.00  0.00    +0.000 C 
ATOM      9  C   UNL     1       3.941   4.405  18.565  0.00  0.00    +0.000 A 
ATOM     10  C   UNL     1       3.029   3.751  19.401  0.00  0.00    +0.000 A 
ATOM     11  C   UNL     1       2.246   2.690  18.975  0.00  0.00    +0.000 A 
ATOM     12  C   UNL     1       2.393   2.283  17.651  0.00  0.00    +0.000 A 
ATOM     13  C   UNL     1       3.301   2.935  16.797  0.00  0.00    +0.000 A 
ATOM     14  C   UNL     1       4.098   4.013  17.239  0.00  0.00    +0.000 A 
ATOM     15  C   UNL     1       2.728   4.659  20.538  0.00  0.00    +0.000 C 
ATOM     16  O   UNL     1       1.972   4.369  21.448  0.00  0.00    +0.000 OA
BRANCH  14  17
ATOM     17  C   UNL     1       4.968   4.740  16.246  0.00  0.00    +0.000 C 
ATOM     18  F   UNL     1       4.633   6.045  16.058  0.00  0.00    +0.000 F 
ATOM     19  F   UNL     1       6.276   4.750  16.627  0.00  0.00    +0.000 F 
ATOM     20  F   UNL     1       4.947   4.164  15.013  0.00  0.00    +0.000 F 
ENDBRANCH  14  17
ENDBRANCH   5   7
BRANCH   1  26
ATOM     21  C   UNL     1      -1.219  10.073  18.857  0.00  0.00    +0.000 C 
ATOM     22  N   UNL     1      -0.527  10.760  19.940  0.00  0.00    +0.000 NA
ATOM     23  C   UNL     1       0.235  11.910  19.464  0.00  0.00    +0.000 C 
ATOM     24  C   UNL     1       1.252  12.150  20.571  0.00  0.00    +0.000 C 
ATOM     25  N   UNL     1       1.221  10.958  21.436  0.00  0.00    +0.000 NA
ATOM     26  C   UNL     1       0.399   9.945  20.734  0.00  0.00    +0.000 C 
ATOM     27  C   UNL     1      -0.431   9.218  21.820  0.00  0.00    +0.000 C 
ATOM     28  H   UNL     1       0.693  11.230  22.263  0.00  0.00    +0.000 HD
ENDBRANCH   1  26
TORSDOF 3
ENDMDL
MODEL 2
REMARK VINA RESULT:      -8.1      2.865      3.828
REMARK  Name = 
REMARK  5 active torsions:
REMARK  status: ('A' for Active; 'I' for Inactive)
REMARK    1  A    between atoms: C_1  and  N_2
REMARK    2  A    between atoms: C_6  and  C_7
REMARK    3  A    between atoms: C_6  and  C_8
REMARK    4  A    between atoms: C_12  and  N_13
REMARK    5  A    between atoms: C_20  and  C_21
REMARK                            x       y       z     vdW  Elec       q    Type
REMARK                         _______ _______ _______ _____ _____    ______ ____
ROOT
ATOM      1  C   UNL     1       1.415   9.166  19.101  0.00  0.00    +0.000 A 
ATOM      2  C   UNL     1       1.028   8.522  20.292  0.00  0.00    +0.000 A 
ATOM      3  C   UNL     1       1.633   7.348  20.725  0.00  0.00    +0.000 A 
ATOM      4  C   UNL     1       2.539   6.705  19.902  0.00  0.00    +0.000 A 
ATOM      5  C   UNL     1       2.675   7.142  18.579  0.00  0.00    +0.000 A 
ATOM      6  C   UNL     1       2.263   8.441  18.243  0.00  0.00    +0.000 A 
ENDROOT
BRANCH   5   7
ATOM      7  N   UNL     1       2.721   6.137  17.509  0.00  0.00    +0.000 N 
ATOM      8  C   UNL     1       1.770   5.043  17.805  0.00  0.00    +0.000 C 
ATOM      9  C   UNL     1       2.622   4.093  18.593  0.00  0.00    +0.000 A 
ATOM     10  C   UNL     1       3.945   4.289  18.182  0.00  0.00    +0.000 A 
ATOM     11  C   UNL     1       5.027   3.720  18.832  0.00  0.00    +0.000 A 
ATOM     12  C   UNL     1       4.755   2.927  19.945  0.00  0.00    +0.000 A 
ATOM     13  C   UNL     1       3.431   2.726  20.375  0.00  0.00    +0.000 A 
ATOM     14  C   UNL     1       2.333   3.306  19.704  0.00  0.00    +0.000 A 
ATOM     15  C   UNL     1       3.976   5.509  17.334  0.00  0.00    +0.000 C 
ATOM     16  O   UNL     1       4.989   5.938  16.810  0.00  0.00    +0.000 OA
BRANCH  14  17
ATOM     17  C   UNL     1       0.949   3.144  20.281  0.00  0.00    +0.000 C 
ATOM     18  F   UNL     1       0.913   2.491  21.474  0.00  0.00    +0.000 F 
ATOM     19  F   UNL     1       0.347   4.345  20.503  0.00  0.00    +0.000 F 
ATOM     20  F   UNL     1       0.114   2.460  19.451  0.00  0.00    +0.000 F 
ENDBRANCH  14  17
ENDBRANCH   5   7
BRANCH   1  26
ATOM     21  C   UNL     1       0.987  11.151  21.191  0.00  0.00    +0.000 C 
ATOM     22  N   UNL     1       0.318  11.300  19.906  0.00  0.00    +0.000 NA
ATOM     23  C   UNL     1      -1.075  10.868  19.956  0.00  0.00    +0.000 C 
ATOM     24  C   UNL     1      -1.422  10.602  18.498  0.00  0.00    +0.000 C 
ATOM     25  N   UNL     1      -0.148  10.588  17.759  0.00  0.00    +0.000 NA
ATOM     26  C   UNL     1       0.932  10.598  18.773  0.00  0.00    +0.000 C 
ATOM     27  C   UNL     1       2.055  11.505  18.213  0.00  0.00    +0.000 C 
ATOM     28  H   UNL     1      -0.098  11.484  17.278  0.00  0.00    +0.000 HD
ENDBRANCH   1  26
TORSDOF 3
ENDMDL
MODEL 3
REMARK VINA RESULT:      -8.0      2.812      3.659
REMARK  Name = 
REMARK  5 active torsions:
REMARK  status: ('A' for Active; 'I' for Inactive)
REMARK    1  A    between atoms: C_1  and  N_2
REMARK    2  A    between atoms: C_6  and  C_7
REMARK    3  A    between atoms: C_6  and  C_8
REMARK    4  A    between atoms: C_12  and  N_13
REMARK    5  A    between atoms: C_20  and  C_21
REMARK                            x       y       z     vdW  Elec       q    Type
REMARK                         _______ _______ _______ _____ _____    ______ ____
ROOT
ATOM      1  C   UNL     1       0.949   9.115  19.469  0.00  0.00    +0.000 A 
ATOM      2  C   UNL     1       0.849   8.355  20.651  0.00  0.00    +0.000 A 
ATOM      3  C   UNL     1       1.724   7.313  20.934  0.00  0.00    +0.000 A 
ATOM      4  C   UNL     1       2.631   6.905  19.973  0.00  0.00    +0.000 A 
ATOM      5  C   UNL     1       2.512   7.415  18.675  0.00  0.00    +0.000 A 
ATOM      6  C   UNL     1       1.812   8.616  18.475  0.00  0.00    +0.000 A 
ENDROOT
BRANCH   5   7
ATOM      7  N   UNL     1       2.624   6.487  17.542  0.00  0.00    +0.000 N 
ATOM      8  C   UNL     1       1.729   5.328  17.751  0.00  0.00    +0.000 C 
ATOM      9  C   UNL     1       2.621   4.373  18.489  0.00  0.00    +0.000 A 
ATOM     10  C   UNL     1       3.936   4.665  18.112  0.00  0.00    +0.000 A 
ATOM     11  C   UNL     1       5.038   4.112  18.740  0.00  0.00    +0.000 A 
ATOM     12  C   UNL     1       4.795   3.233  19.794  0.00  0.00    +0.000 A 
ATOM     13  C   UNL     1       3.479   2.936  20.190  0.00  0.00    +0.000 A 
ATOM     14  C   UNL     1       2.360   3.501  19.541  0.00  0.00    +0.000 A 
ATOM     15  C   UNL     1       3.913   5.939  17.346  0.00  0.00    +0.000 C 
ATOM     16  O   UNL     1       4.908   6.453  16.867  0.00  0.00    +0.000 OA
BRANCH  14  17
ATOM     17  C   UNL     1       0.980   3.229  20.085  0.00  0.00    +0.000 C 
ATOM     18  F   UNL     1       0.167   2.547  19.233  0.00  0.00    +0.000 F 
ATOM     19  F   UNL     1       1.021   2.485  21.225  0.00  0.00    +0.000 F 
ATOM     20  F   UNL     1       0.313   4.369  20.411  0.00  0.00    +0.000 F 
ENDBRANCH  14  17
ENDBRANCH   5   7
BRANCH   1  26
ATOM     21  C   UNL     1       2.166  11.489  18.297  0.00  0.00    +0.000 C 
ATOM     22  N   UNL     1       0.994  11.625  19.152  0.00  0.00    +0.000 NA
ATOM     23  C   UNL     1       1.345  12.046  20.505  0.00  0.00    +0.000 C 
ATOM     24  C   UNL     1       0.139  11.631  21.336  0.00  0.00    +0.000 C 
ATOM     25  N   UNL     1      -0.665  10.732  20.488  0.00  0.00    +0.000 NA
ATOM     26  C   UNL     1       0.155  10.429  19.293  0.00  0.00    +0.000 C 
ATOM     27  C   UNL     1      -0.816  10.396  18.087  0.00  0.00    +0.000 C 
ATOM     28  H   UNL     1      -1.451  11.291  20.162  0.00  0.00    +0.000 HD
ENDBRANCH   1  26
TORSDOF 3
ENDMDL
MODEL 4
REMARK VINA RESULT:      -7.9      4.759      7.480
REMARK  Name = 
REMARK  5 active torsions:
REMARK  status: ('A' for Active; 'I' for Inactive)
REMARK    1  A    between atoms: C_1  and  N_2
REMARK    2  A    between atoms: C_6  and  C_7
REMARK    3  A    between atoms: C_6  and  C_8
REMARK    4  A    between atoms: C_12  and  N_13
REMARK    5  A    between atoms: C_20  and  C_21
REMARK                            x       y       z     vdW  Elec       q    Type
REMARK                         _______ _______ _______ _____ _____    ______ ____
ROOT
ATOM      1  C   UNL     1      -4.898  11.802  18.045  0.00  0.00    +0.000 A 
ATOM      2  C   UNL     1      -4.461  11.516  16.736  0.00  0.00    +0.000 A 
ATOM      3  C   UNL     1      -3.179  11.049  16.473  0.00  0.00    +0.000 A 
ATOM      4  C   UNL     1      -2.249  10.997  17.495  0.00  0.00    +0.000 A 
ATOM      5  C   UNL     1      -2.561  11.600  18.720  0.00  0.00    +0.000 A 
ATOM      6  C   UNL     1      -3.907  11.832  19.043  0.00  0.00    +0.000 A 
ENDROOT
BRANCH   5   7
ATOM      7  N   UNL     1      -1.542  12.434  19.371  0.00  0.00    +0.000 N 
ATOM      8  C   UNL     1      -0.196  12.046  18.898  0.00  0.00    +0.000 C 
ATOM      9  C   UNL     1       0.189  10.985  19.886  0.00  0.00    +0.000 A 
ATOM     10  C   UNL     1      -0.498  11.261  21.073  0.00  0.00    +0.000 A 
ATOM     11  C   UNL     1      -0.534  10.382  22.142  0.00  0.00    +0.000 A 
ATOM     12  C   UNL     1       0.148   9.176  21.998  0.00  0.00    +0.000 A 
ATOM     13  C   UNL     1       0.837   8.881  20.808  0.00  0.00    +0.000 A 
ATOM     14  C   UNL     1       0.874   9.784  19.724  0.00  0.00    +0.000 A 
ATOM     15  C   UNL     1      -1.494  12.325  20.781  0.00  0.00    +0.000 C 
ATOM     16  O   UNL     1      -2.242  12.794  21.619  0.00  0.00    +0.000 OA
BRANCH  14  17
ATOM     17  C   UNL     1       1.535   9.362  18.437  0.00  0.00    +0.000 C 
ATOM     18  F   UNL     1       2.401  10.277  17.925  0.00  0.00    +0.000 F 
ATOM     19  F   UNL     1       2.260   8.218  18.589  0.00  0.00    +0.000 F 
ATOM     20  F   UNL     1       0.635   9.100  17.449  0.00  0.00    +0.000 F 
ENDBRANCH  14  17
ENDBRANCH   5   7
BRANCH   1  26
ATOM     21  C   UNL     1      -5.745  13.896  19.885  0.00  0.00    +0.000 C 
ATOM     22  N   UNL     1      -6.634  12.776  19.607  0.00  0.00    +0.000 NA
ATOM     23  C   UNL     1      -6.611  11.776  20.670  0.00  0.00    +0.000 C 
ATOM     24  C   UNL     1      -7.140  10.520  19.994  0.00  0.00    +0.000 C 
ATOM     25  N   UNL     1      -7.130  10.786  18.545  0.00  0.00    +0.000 NA
ATOM     26  C   UNL     1      -6.392  12.055  18.351  0.00  0.00    +0.000 C 
ATOM     27  C   UNL     1      -7.122  12.824  17.223  0.00  0.00    +0.000 C 
ATOM     28  H   UNL     1      -8.098  10.976  18.292  0.00  0.00    +0.000 HD
ENDBRANCH   1  26
TORSDOF 3
ENDMDL
MODEL 5
REMARK VINA RESULT:      -7.8      3.670      6.344
REMARK  Name = 
REMARK  5 active torsions:
REMARK  status: ('A' for Active; 'I' for Inactive)
REMARK    1  A    between atoms: C_1  and  N_2
REMARK    2  A    between atoms: C_6  and  C_7
REMARK    3  A    between atoms: C_6  and  C_8
REMARK    4  A    between atoms: C_12  and  N_13
REMARK    5  A    between atoms: C_20  and  C_21
REMARK                            x       y       z     vdW  Elec       q    Type
REMARK                         _______ _______ _______ _____ _____    ______ ____
ROOT
ATOM      1  C   UNL     1       5.810   4.642  17.306  0.00  0.00    +0.000 A 
ATOM      2  C   UNL     1       6.046   4.552  18.692  0.00  0.00    +0.000 A 
ATOM      3  C   UNL     1       5.415   3.602  19.486  0.00  0.00    +0.000 A 
ATOM      4  C   UNL     1       4.417   2.813  18.943  0.00  0.00    +0.000 A 
ATOM      5  C   UNL     1       3.932   3.126  17.667  0.00  0.00    +0.000 A 
ATOM      6  C   UNL     1       4.726   3.898  16.805  0.00  0.00    +0.000 A 
ENDROOT
BRANCH   5   7
ATOM      7  N   UNL     1       2.479   3.125  17.449  0.00  0.00    +0.000 N 
ATOM      8  C   UNL     1       2.004   4.507  17.222  0.00  0.00    +0.000 C 
ATOM      9  C   UNL     1       1.690   4.963  18.616  0.00  0.00    +0.000 A 
ATOM     10  C   UNL     1       1.370   3.822  19.360  0.00  0.00    +0.000 A 
ATOM     11  C   UNL     1       1.215   3.839  20.735  0.00  0.00    +0.000 A 
ATOM     12  C   UNL     1       1.396   5.061  21.380  0.00  0.00    +0.000 A 
ATOM     13  C   UNL     1       1.725   6.216  20.648  0.00  0.00    +0.000 A 
ATOM     14  C   UNL     1       1.878   6.190  19.245  0.00  0.00    +0.000 A 
ATOM     15  C   UNL     1       1.714   2.635  18.533  0.00  0.00    +0.000 C 
ATOM     16  O   UNL     1       1.538   1.487  18.900  0.00  0.00    +0.000 OA
BRANCH  14  17
ATOM     17  C   UNL     1       2.340   7.436  18.533  0.00  0.00    +0.000 C 
ATOM     18  F   UNL     1       1.706   7.675  17.353  0.00  0.00    +0.000 F 
ATOM     19  F   UNL     1       2.144   8.555  19.286  0.00  0.00    +0.000 F 
ATOM     20  F   UNL     1       3.671   7.411  18.248  0.00  0.00    +0.000 F 
ENDBRANCH  14  17
ENDBRANCH   5   7
BRANCH   1  26
ATOM     21  C   UNL     1       4.715   6.805  15.689  0.00  0.00    +0.000 C 
ATOM     22  N   UNL     1       5.991   6.203  15.322  0.00  0.00    +0.000 NA
ATOM     23  C   UNL     1       5.854   5.244  14.230  0.00  0.00    +0.000 C 
ATOM     24  C   UNL     1       7.101   4.381  14.350  0.00  0.00    +0.000 C 
ATOM     25  N   UNL     1       7.697   4.685  15.663  0.00  0.00    +0.000 NA
ATOM     26  C   UNL     1       6.711   5.510  16.397  0.00  0.00    +0.000 C 
ATOM     27  C   UNL     1       7.519   6.574  17.180  0.00  0.00    +0.000 C 
ATOM     28  H   UNL     1       8.492   5.293  15.472  0.00  0.00    +0.000 HD
ENDBRANCH   1  26
TORSDOF 3
ENDMDL
MODEL 6
REMARK VINA RESULT:      -7.8      3.040      7.175
REMARK  Name = 
REMARK  5 active torsions:
REMARK  status: ('A' for Active; 'I' for Inactive)
REMARK    1  A    between atoms: C_1  and  N_2
REMARK    2  A    between atoms: C_6  and  C_7
REMARK    3  A    between atoms: C_6  and  C_8
REMARK    4  A    between atoms: C_12  and  N_13
REMARK    5  A    between atoms: C_20  and  C_21
REMARK                            x       y       z     vdW  Elec       q    Type
REMARK                         _______ _______ _______ _____ _____    ______ ____
ROOT
ATOM      1  C   UNL     1       2.354   5.692  19.237  0.00  0.00    +0.000 A 
ATOM      2  C   UNL     1       2.205   6.382  18.018  0.00  0.00    +0.000 A 
ATOM      3  C   UNL     1       2.089   7.766  17.963  0.00  0.00    +0.000 A 
ATOM      4  C   UNL     1       1.968   8.486  19.137  0.00  0.00    +0.000 A 
ATOM      5  C   UNL     1       1.767   7.791  20.336  0.00  0.00    +0.000 A 
ATOM      6  C   UNL     1       2.131   6.437  20.409  0.00  0.00    +0.000 A 
ENDROOT
BRANCH   5   7
ATOM      7  N   UNL     1       0.741   8.280  21.267  0.00  0.00    +0.000 N 
ATOM      8  C   UNL     1      -0.493   8.616  20.524  0.00  0.00    +0.000 C 
ATOM      9  C   UNL     1      -0.267  10.058  20.179  0.00  0.00    +0.000 A 
ATOM     10  C   UNL     1       0.579  10.588  21.159  0.00  0.00    +0.000 A 
ATOM     11  C   UNL     1       1.156  11.842  21.056  0.00  0.00    +0.000 A 
ATOM     12  C   UNL     1       0.867  12.583  19.913  0.00  0.00    +0.000 A 
ATOM     13  C   UNL     1       0.024  12.062  18.914  0.00  0.00    +0.000 A 
ATOM     14  C   UNL     1      -0.564  10.784  19.029  0.00  0.00    +0.000 A 
ATOM     15  C   UNL     1       1.089   9.454  21.974  0.00  0.00    +0.000 C 
ATOM     16  O   UNL     1       1.843   9.593  22.921  0.00  0.00    +0.000 OA
BRANCH  14  17
ATOM     17  C   UNL     1      -1.367  10.238  17.875  0.00  0.00    +0.000 C 
ATOM     18  F   UNL     1      -2.510   9.598  18.241  0.00  0.00    +0.000 F 
ATOM     19  F   UNL     1      -1.757  11.222  17.017  0.00  0.00    +0.000 F 
ATOM     20  F   UNL     1      -0.662   9.349  17.123  0.00  0.00    +0.000 F 
ENDBRANCH  14  17
ENDBRANCH   5   7
BRANCH   1  26
ATOM     21  C   UNL     1       5.145   4.856  19.292  0.00  0.00    +0.000 C 
ATOM     22  N   UNL     1       4.124   3.932  18.817  0.00  0.00    +0.000 NA
ATOM     23  C   UNL     1       4.076   3.865  17.360  0.00  0.00    +0.000 C 
ATOM     24  C   UNL     1       2.688   3.311  17.070  0.00  0.00    +0.000 C 
ATOM     25  N   UNL     1       1.930   3.398  18.330  0.00  0.00    +0.000 NA
ATOM     26  C   UNL     1       2.752   4.198  19.267  0.00  0.00    +0.000 C 
ATOM     27  C   UNL     1       2.585   3.553  20.665  0.00  0.00    +0.000 C 
ATOM     28  H   UNL     1       1.909   2.451  18.706  0.00  0.00    +0.000 HD
ENDBRANCH   1  26
TORSDOF 3
ENDMDL
MODEL 7
REMARK VINA RESULT:      -7.8      0.865      1.402
REMARK  Name = 
REMARK  5 active torsions:
REMARK  status: ('A' for Active; 'I' for Inactive)
REMARK    1  A    between atoms: C_1  and  N_2
REMARK    2  A    between atoms: C_6  and  C_7
REMARK    3  A    between atoms: C_6  and  C_8
REMARK    4  A    between atoms: C_12  and  N_13
REMARK    5  A    between atoms: C_20  and  C_21
REMARK                            x       y       z     vdW  Elec       q    Type
REMARK                         _______ _______ _______ _____ _____    ______ ____
ROOT
ATOM      1  C   UNL     1       1.289   9.033  18.972  0.00  0.00    +0.000 A 
ATOM      2  C   UNL     1       2.186   9.416  17.956  0.00  0.00    +0.000 A 
ATOM      3  C   UNL     1       3.022   8.502  17.326  0.00  0.00    +0.000 A 
ATOM      4  C   UNL     1       3.090   7.204  17.799  0.00  0.00    +0.000 A 
ATOM      5  C   UNL     1       2.471   6.897  19.016  0.00  0.00    +0.000 A 
ATOM      6  C   UNL     1       1.451   7.736  19.494  0.00  0.00    +0.000 A 
ENDROOT
BRANCH   5   7
ATOM      7  N   UNL     1       3.206   6.082  19.992  0.00  0.00    +0.000 N 
ATOM      8  C   UNL     1       4.462   5.587  19.389  0.00  0.00    +0.000 C 
ATOM      9  C   UNL     1       4.028   4.286  18.784  0.00  0.00    +0.000 A 
ATOM     10  C   UNL     1       2.939   3.827  19.534  0.00  0.00    +0.000 A 
ATOM     11  C   UNL     1       2.160   2.751  19.146  0.00  0.00    +0.000 A 
ATOM     12  C   UNL     1       2.496   2.120  17.951  0.00  0.00    +0.000 A 
ATOM     13  C   UNL     1       3.584   2.573  17.182  0.00  0.00    +0.000 A 
ATOM     14  C   UNL     1       4.377   3.669  17.587  0.00  0.00    +0.000 A 
ATOM     15  C   UNL     1       2.522   4.928  20.441  0.00  0.00    +0.000 C 
ATOM     16  O   UNL     1       1.602   4.833  21.234  0.00  0.00    +0.000 OA
BRANCH  14  17
ATOM     17  C   UNL     1       5.457   4.174  16.664  0.00  0.00    +0.000 C 
ATOM     18  F   UNL     1       5.139   5.321  16.006  0.00  0.00    +0.000 F 
ATOM     19  F   UNL     1       6.612   4.445  17.335  0.00  0.00    +0.000 F 
ATOM     20  F   UNL     1       5.791   3.269  15.705  0.00  0.00    +0.000 F 
ENDBRANCH  14  17
ENDBRANCH   5   7
BRANCH   1  26
ATOM     21  C   UNL     1       1.655  11.923  18.948  0.00  0.00    +0.000 C 
ATOM     22  N   UNL     1       0.670  11.327  19.841  0.00  0.00    +0.000 NA
ATOM     23  C   UNL     1       1.162  11.222  21.212  0.00  0.00    +0.000 C 
ATOM     24  C   UNL     1       0.272  10.155  21.832  0.00  0.00    +0.000 C 
ATOM     25  N   UNL     1      -0.440   9.503  20.719  0.00  0.00    +0.000 NA
ATOM     26  C   UNL     1       0.185   9.993  19.469  0.00  0.00    +0.000 C 
ATOM     27  C   UNL     1      -0.962  10.182  18.446  0.00  0.00    +0.000 C 
ATOM     28  H   UNL     1      -1.385   9.883  20.735  0.00  0.00    +0.000 HD
ENDBRANCH   1  26
TORSDOF 3
ENDMDL
MODEL 8
REMARK VINA RESULT:      -7.7      5.904      8.176
REMARK  Name = 
REMARK  5 active torsions:
REMARK  status: ('A' for Active; 'I' for Inactive)
REMARK    1  A    between atoms: C_1  and  N_2
REMARK    2  A    between atoms: C_6  and  C_7
REMARK    3  A    between atoms: C_6  and  C_8
REMARK    4  A    between atoms: C_12  and  N_13
REMARK    5  A    between atoms: C_20  and  C_21
REMARK                            x       y       z     vdW  Elec       q    Type
REMARK                         _______ _______ _______ _____ _____    ______ ____
ROOT
ATOM      1  C   UNL     1      -4.139  11.634  18.368  0.00  0.00    +0.000 A 
ATOM      2  C   UNL     1      -4.314  11.238  17.027  0.00  0.00    +0.000 A 
ATOM      3  C   UNL     1      -3.398  10.422  16.374  0.00  0.00    +0.000 A 
ATOM      4  C   UNL     1      -2.206  10.101  16.998  0.00  0.00    +0.000 A 
ATOM      5  C   UNL     1      -1.865  10.765  18.182  0.00  0.00    +0.000 A 
ATOM      6  C   UNL     1      -2.879  11.375  18.938  0.00  0.00    +0.000 A 
ENDROOT
BRANCH   5   7
ATOM      7  N   UNL     1      -0.494  11.268  18.336  0.00  0.00    +0.000 N 
ATOM      8  C   UNL     1       0.247  10.425  19.299  0.00  0.00    +0.000 C 
ATOM      9  C   UNL     1      -0.041  11.110  20.601  0.00  0.00    +0.000 A 
ATOM     10  C   UNL     1      -0.282  12.457  20.312  0.00  0.00    +0.000 A 
ATOM     11  C   UNL     1      -0.770  13.351  21.250  0.00  0.00    +0.000 A 
ATOM     12  C   UNL     1      -1.027  12.857  22.527  0.00  0.00    +0.000 A 
ATOM     13  C   UNL     1      -0.797  11.503  22.831  0.00  0.00    +0.000 A 
ATOM     14  C   UNL     1      -0.295  10.599  21.871  0.00  0.00    +0.000 A 
ATOM     15  C   UNL     1      -0.396  12.588  18.837  0.00  0.00    +0.000 C 
ATOM     16  O   UNL     1      -0.594  13.648  18.269  0.00  0.00    +0.000 OA
BRANCH  14  17
ATOM     17  C   UNL     1      -0.176   9.139  22.227  0.00  0.00    +0.000 C 
ATOM     18  F   UNL     1      -0.988   8.318  21.507  0.00  0.00    +0.000 F 
ATOM     19  F   UNL     1       1.087   8.668  22.030  0.00  0.00    +0.000 F 
ATOM     20  F   UNL     1      -0.461   8.896  23.536  0.00  0.00    +0.000 F 
ENDBRANCH  14  17
ENDBRANCH   5   7
BRANCH   1  26
ATOM     21  C   UNL     1      -6.541  10.168  19.122  0.00  0.00    +0.000 C 
ATOM     22  N   UNL     1      -6.577  11.622  19.045  0.00  0.00    +0.000 NA
ATOM     23  C   UNL     1      -7.189  12.093  17.806  0.00  0.00    +0.000 C 
ATOM     24  C   UNL     1      -6.675  13.520  17.671  0.00  0.00    +0.000 C 
ATOM     25  N   UNL     1      -5.577  13.664  18.642  0.00  0.00    +0.000 NA
ATOM     26  C   UNL     1      -5.284  12.307  19.159  0.00  0.00    +0.000 C 
ATOM     27  C   UNL     1      -4.970  12.466  20.666  0.00  0.00    +0.000 C 
ATOM     28  H   UNL     1      -5.966  14.190  19.423  0.00  0.00    +0.000 HD
ENDBRANCH   1  26
TORSDOF 3
ENDMDL
MODEL 9
REMARK VINA RESULT:      -7.6      3.242      7.232
REMARK  Name = 
REMARK  5 active torsions:
REMARK  status: ('A' for Active; 'I' for Inactive)
REMARK    1  A    between atoms: C_1  and  N_2
REMARK    2  A    between atoms: C_6  and  C_7
REMARK    3  A    between atoms: C_6  and  C_8
REMARK    4  A    between atoms: C_12  and  N_13
REMARK    5  A    between atoms: C_20  and  C_21
REMARK                            x       y       z     vdW  Elec       q    Type
REMARK                         _______ _______ _______ _____ _____    ______ ____
ROOT
ATOM      1  C   UNL     1       2.331   6.805  19.409  0.00  0.00    +0.000 A 
ATOM      2  C   UNL     1       2.269   7.408  18.138  0.00  0.00    +0.000 A 
ATOM      3  C   UNL     1       1.919   8.743  17.972  0.00  0.00    +0.000 A 
ATOM      4  C   UNL     1       1.477   9.472  19.060  0.00  0.00    +0.000 A 
ATOM      5  C   UNL     1       1.204   8.798  20.256  0.00  0.00    +0.000 A 
ATOM      6  C   UNL     1       1.785   7.539  20.478  0.00  0.00    +0.000 A 
ENDROOT
BRANCH   5   7
ATOM      7  N   UNL     1      -0.033   9.122  20.978  0.00  0.00    +0.000 N 
ATOM      8  C   UNL     1      -1.180   9.103  20.044  0.00  0.00    +0.000 C 
ATOM      9  C   UNL     1      -1.213  10.522  19.560  0.00  0.00    +0.000 A 
ATOM     10  C   UNL     1      -0.661  11.314  20.572  0.00  0.00    +0.000 A 
ATOM     11  C   UNL     1      -0.353  12.652  20.396  0.00  0.00    +0.000 A 
ATOM     12  C   UNL     1      -0.612  13.204  19.143  0.00  0.00    +0.000 A 
ATOM     13  C   UNL     1      -1.160  12.419  18.113  0.00  0.00    +0.000 A 
ATOM     14  C   UNL     1      -1.475  11.056  18.302  0.00  0.00    +0.000 A 
ATOM     15  C   UNL     1      -0.056  10.403  21.578  0.00  0.00    +0.000 C 
ATOM     16  O   UNL     1       0.495  10.792  22.592  0.00  0.00    +0.000 OA
BRANCH  14  17
ATOM     17  C   UNL     1      -1.955  10.243  17.126  0.00  0.00    +0.000 C 
ATOM     18  F   UNL     1      -1.084   9.281  16.719  0.00  0.00    +0.000 F 
ATOM     19  F   UNL     1      -3.118   9.590  17.401  0.00  0.00    +0.000 F 
ATOM     20  F   UNL     1      -2.211  11.009  16.031  0.00  0.00    +0.000 F 
ENDBRANCH  14  17
ENDBRANCH   5   7
BRANCH   1  26
ATOM     21  C   UNL     1       1.762   4.590  17.604  0.00  0.00    +0.000 C 
ATOM     22  N   UNL     1       2.256   4.318  18.948  0.00  0.00    +0.000 NA
ATOM     23  C   UNL     1       1.187   3.921  19.858  0.00  0.00    +0.000 C 
ATOM     24  C   UNL     1       1.769   4.195  21.238  0.00  0.00    +0.000 C 
ATOM     25  N   UNL     1       2.978   5.010  21.029  0.00  0.00    +0.000 NA
ATOM     26  C   UNL     1       2.978   5.414  19.604  0.00  0.00    +0.000 C 
ATOM     27  C   UNL     1       4.450   5.356  19.127  0.00  0.00    +0.000 C 
ATOM     28  H   UNL     1       3.765   4.373  21.145  0.00  0.00    +0.000 HD
ENDBRANCH   1  26
TORSDOF 3
ENDMDL
