MODEL 1
REMARK VINA RESULT:      -9.5      0.000      0.000
REMARK  Name = 
REMARK  6 active torsions:
REMARK  status: ('A' for Active; 'I' for Inactive)
REMARK    1  A    between atoms: C_2  and  C_4
REMARK    2  A    between atoms: C_4  and  O_5
REMARK    3  A    between atoms: O_5  and  C_6
REMARK    4  A    between atoms: C_10  and  N_11
REMARK    5  A    between atoms: C_12  and  C_14
REMARK    6  A    between atoms: C_16  and  C_17
REMARK                            x       y       z     vdW  Elec       q    Type
REMARK                         _______ _______ _______ _____ _____    ______ ____
ROOT
ATOM      1  N   UNL     1       1.699   7.685  20.619  0.00  0.00    +0.000 N 
ATOM      2  C   UNL     1       2.248   7.507  19.326  0.00  0.00    +0.000 C 
ATOM      3  O   UNL     1       2.280   8.365  18.454  0.00  0.00    +0.000 OA
ATOM      4  H   UNL     1       1.918   6.994  21.326  0.00  0.00    +0.000 HD
ENDROOT
BRANCH   2   5
ATOM      5  C   UNL     1       2.915   6.197  18.961  0.00  0.00    +0.000 A 
ATOM      6  C   UNL     1       3.711   6.186  17.791  0.00  0.00    +0.000 A 
ATOM      7  C   UNL     1       4.317   5.008  17.344  0.00  0.00    +0.000 A 
ATOM      8  N   UNL     1       4.029   3.838  17.954  0.00  0.00    +0.000 NA
ATOM      9  C   UNL     1       3.132   3.803  18.945  0.00  0.00    +0.000 A 
ATOM     10  C   UNL     1       2.683   2.551  19.328  0.00  0.00    +0.000 A 
ATOM     11  C   UNL     1       1.680   2.392  20.281  0.00  0.00    +0.000 A 
ATOM     12  C   UNL     1       1.171   3.510  20.928  0.00  0.00    +0.000 A 
ATOM     13  C   UNL     1       1.622   4.784  20.577  0.00  0.00    +0.000 A 
ATOM     14  C   UNL     1       2.566   4.959  19.541  0.00  0.00    +0.000 A 
BRANCH   7  15
ATOM     15  C   UNL     1       5.283   4.896  16.214  0.00  0.00    +0.000 A 
ATOM     16  C   UNL     1       6.603   5.407  16.283  0.00  0.00    +0.000 A 
ATOM     17  C   UNL     1       7.513   5.273  15.221  0.00  0.00    +0.000 A 
ATOM     18  C   UNL     1       7.147   4.626  14.051  0.00  0.00    +0.000 A 
ATOM     19  C   UNL     1       5.862   4.111  13.938  0.00  0.00    +0.000 A 
ATOM     20  C   UNL     1       4.954   4.249  15.001  0.00  0.00    +0.000 A 
ENDBRANCH   7  15
ENDBRANCH   2   5
BRANCH   1  25
ATOM     21  C   UNL     1      -0.213  10.994  20.566  0.00  0.00    +0.000 A 
ATOM     22  C   UNL     1      -0.573  11.107  21.907  0.00  0.00    +0.000 A 
ATOM     23  C   UNL     1      -0.175  10.124  22.813  0.00  0.00    +0.000 A 
ATOM     24  C   UNL     1       0.569   9.014  22.394  0.00  0.00    +0.000 A 
ATOM     25  C   UNL     1       0.931   8.832  21.055  0.00  0.00    +0.000 A 
ATOM     26  C   UNL     1       0.535   9.854  20.148  0.00  0.00    +0.000 A 
BRANCH  21  27
ATOM     27  O   UNL     1      -0.575  11.911  19.596  0.00  0.00    +0.000 OA
BRANCH  27  28
ATOM     28  C   UNL     1      -1.934  11.866  19.117  0.00  0.00    +0.000 C 
BRANCH  28  30
ATOM     29  N   UNL     1      -2.007  11.741  16.660  0.00  0.00    +0.000 N 
ATOM     30  C   UNL     1      -2.146  11.040  17.828  0.00  0.00    +0.000 C 
ATOM     31  O   UNL     1      -2.371   9.842  17.818  0.00  0.00    +0.000 OA
ATOM     32  H   UNL     1      -2.137  11.252  15.785  0.00  0.00    +0.000 HD
ATOM     33  H   UNL     1      -1.879  12.751  16.661  0.00  0.00    +0.000 HD
ENDBRANCH  28  30
ENDBRANCH  27  28
ENDBRANCH  21  27
ENDBRANCH   1  25
TORSDOF 6
ENDMDL
MODEL 2
REMARK VINA RESULT:      -9.5      0.584      1.050
REMARK  Name = 
REMARK  6 active torsions:
REMARK  status: ('A' for Active; 'I' for Inactive)
REMARK    1  A    between atoms: C_2  and  C_4
REMARK    2  A    between atoms: C_4  and  O_5
REMARK    3  A    between atoms: O_5  and  C_6
REMARK    4  A    between atoms: C_10  and  N_11
REMARK    5  A    between atoms: C_12  and  C_14
REMARK    6  A    between atoms: C_16  and  C_17
REMARK                            x       y       z     vdW  Elec       q    Type
REMARK                         _______ _______ _______ _____ _____    ______ ____
ROOT
ATOM      1  N   UNL     1       1.796   7.720  20.840  0.00  0.00    +0.000 N 
ATOM      2  C   UNL     1       2.148   7.445  19.496  0.00  0.00    +0.000 C 
ATOM      3  O   UNL     1       1.965   8.204  18.553  0.00  0.00    +0.000 OA
ATOM      4  H   UNL     1       2.185   7.127  21.562  0.00  0.00    +0.000 HD
ENDROOT
BRANCH   2   5
ATOM      5  C   UNL     1       2.865   6.155  19.151  0.00  0.00    +0.000 A 
ATOM      6  C   UNL     1       3.655   6.155  17.976  0.00  0.00    +0.000 A 
ATOM      7  C   UNL     1       4.305   4.993  17.547  0.00  0.00    +0.000 A 
ATOM      8  N   UNL     1       4.067   3.824  18.180  0.00  0.00    +0.000 NA
ATOM      9  C   UNL     1       3.177   3.772  19.176  0.00  0.00    +0.000 A 
ATOM     10  C   UNL     1       2.779   2.510  19.585  0.00  0.00    +0.000 A 
ATOM     11  C   UNL     1       1.789   2.329  20.546  0.00  0.00    +0.000 A 
ATOM     12  C   UNL     1       1.240   3.438  21.177  0.00  0.00    +0.000 A 
ATOM     13  C   UNL     1       1.638   4.722  20.799  0.00  0.00    +0.000 A 
ATOM     14  C   UNL     1       2.569   4.916  19.755  0.00  0.00    +0.000 A 
BRANCH   7  15
ATOM     15  C   UNL     1       5.268   4.899  16.414  0.00  0.00    +0.000 A 
ATOM     16  C   UNL     1       4.939   4.289  15.178  0.00  0.00    +0.000 A 
ATOM     17  C   UNL     1       5.847   4.229  14.108  0.00  0.00    +0.000 A 
ATOM     18  C   UNL     1       7.117   4.772  14.225  0.00  0.00    +0.000 A 
ATOM     19  C   UNL     1       7.486   5.378  15.419  0.00  0.00    +0.000 A 
ATOM     20  C   UNL     1       6.575   5.435  16.487  0.00  0.00    +0.000 A 
ENDBRANCH   7  15
ENDBRANCH   2   5
BRANCH   1  25
ATOM     21  C   UNL     1       0.004  11.095  20.881  0.00  0.00    +0.000 A 
ATOM     22  C   UNL     1      -0.539  11.085  22.163  0.00  0.00    +0.000 A 
ATOM     23  C   UNL     1      -0.300   9.998  23.005  0.00  0.00    +0.000 A 
ATOM     24  C   UNL     1       0.464   8.906  22.574  0.00  0.00    +0.000 A 
ATOM     25  C   UNL     1       1.006   8.848  21.287  0.00  0.00    +0.000 A 
ATOM     26  C   UNL     1       0.772   9.973  20.450  0.00  0.00    +0.000 A 
BRANCH  21  27
ATOM     27  O   UNL     1      -0.192  12.121  19.975  0.00  0.00    +0.000 OA
BRANCH  27  28
ATOM     28  C   UNL     1      -0.369  11.758  18.591  0.00  0.00    +0.000 C 
BRANCH  28  30
ATOM     29  N   UNL     1      -1.963  11.918  16.723  0.00  0.00    +0.000 N 
ATOM     30  C   UNL     1      -1.827  11.816  18.081  0.00  0.00    +0.000 C 
ATOM     31  O   UNL     1      -2.804  11.727  18.805  0.00  0.00    +0.000 OA
ATOM     32  H   UNL     1      -2.894  11.962  16.333  0.00  0.00    +0.000 HD
ATOM     33  H   UNL     1      -1.155  12.052  16.119  0.00  0.00    +0.000 HD
ENDBRANCH  28  30
ENDBRANCH  27  28
ENDBRANCH  21  27
ENDBRANCH   1  25
TORSDOF 6
ENDMDL
MODEL 3
REMARK VINA RESULT:      -9.4      1.669      1.939
REMARK  Name = 
REMARK  6 active torsions:
REMARK  status: ('A' for Active; 'I' for Inactive)
REMARK    1  A    between atoms: C_2  and  C_4
REMARK    2  A    between atoms: C_4  and  O_5
REMARK    3  A    between atoms: O_5  and  C_6
REMARK    4  A    between atoms: C_10  and  N_11
REMARK    5  A    between atoms: C_12  and  C_14
REMARK    6  A    between atoms: C_16  and  C_17
REMARK                            x       y       z     vdW  Elec       q    Type
REMARK                         _______ _______ _______ _____ _____    ______ ____
ROOT
ATOM      1  N   UNL     1       1.826   8.479  18.115  0.00  0.00    +0.000 N 
ATOM      2  C   UNL     1       2.204   7.604  19.163  0.00  0.00    +0.000 C 
ATOM      3  O   UNL     1       1.982   7.795  20.351  0.00  0.00    +0.000 OA
ATOM      4  H   UNL     1       1.862   8.126  17.167  0.00  0.00    +0.000 HD
ENDROOT
BRANCH   2   5
ATOM      5  C   UNL     1       2.882   6.288  18.841  0.00  0.00    +0.000 A 
ATOM      6  C   UNL     1       3.696   6.252  17.683  0.00  0.00    +0.000 A 
ATOM      7  C   UNL     1       4.314   5.066  17.275  0.00  0.00    +0.000 A 
ATOM      8  N   UNL     1       4.022   3.910  17.910  0.00  0.00    +0.000 NA
ATOM      9  C   UNL     1       3.111   3.896  18.888  0.00  0.00    +0.000 A 
ATOM     10  C   UNL     1       2.662   2.651  19.296  0.00  0.00    +0.000 A 
ATOM     11  C   UNL     1       1.646   2.511  20.237  0.00  0.00    +0.000 A 
ATOM     12  C   UNL     1       1.123   3.642  20.849  0.00  0.00    +0.000 A 
ATOM     13  C   UNL     1       1.573   4.909  20.472  0.00  0.00    +0.000 A 
ATOM     14  C   UNL     1       2.531   5.063  19.447  0.00  0.00    +0.000 A 
BRANCH   7  15
ATOM     15  C   UNL     1       5.297   4.931  16.163  0.00  0.00    +0.000 A 
ATOM     16  C   UNL     1       6.619   5.432  16.246  0.00  0.00    +0.000 A 
ATOM     17  C   UNL     1       7.545   5.277  15.200  0.00  0.00    +0.000 A 
ATOM     18  C   UNL     1       7.193   4.616  14.034  0.00  0.00    +0.000 A 
ATOM     19  C   UNL     1       5.906   4.109  13.907  0.00  0.00    +0.000 A 
ATOM     20  C   UNL     1       4.982   4.269  14.954  0.00  0.00    +0.000 A 
ENDBRANCH   7  15
ENDBRANCH   2   5
BRANCH   1  25
ATOM     21  C   UNL     1      -0.656  11.351  18.555  0.00  0.00    +0.000 A 
ATOM     22  C   UNL     1       0.212  12.438  18.612  0.00  0.00    +0.000 A 
ATOM     23  C   UNL     1       1.586  12.231  18.486  0.00  0.00    +0.000 A 
ATOM     24  C   UNL     1       2.109  10.942  18.319  0.00  0.00    +0.000 A 
ATOM     25  C   UNL     1       1.288   9.811  18.287  0.00  0.00    +0.000 A 
ATOM     26  C   UNL     1      -0.112  10.042  18.395  0.00  0.00    +0.000 A 
BRANCH  21  27
ATOM     27  O   UNL     1      -2.029  11.460  18.685  0.00  0.00    +0.000 OA
BRANCH  27  28
ATOM     28  C   UNL     1      -2.841  10.565  17.898  0.00  0.00    +0.000 C 
BRANCH  28  30
ATOM     29  N   UNL     1      -2.997  11.353  15.572  0.00  0.00    +0.000 N 
ATOM     30  C   UNL     1      -3.652  11.240  16.769  0.00  0.00    +0.000 C 
ATOM     31  O   UNL     1      -4.808  11.607  16.889  0.00  0.00    +0.000 OA
ATOM     32  H   UNL     1      -3.479  11.789  14.797  0.00  0.00    +0.000 HD
ATOM     33  H   UNL     1      -2.015  11.104  15.480  0.00  0.00    +0.000 HD
ENDBRANCH  28  30
ENDBRANCH  27  28
ENDBRANCH  21  27
ENDBRANCH   1  25
TORSDOF 6
ENDMDL
MODEL 4
REMARK VINA RESULT:      -9.3      3.339      8.630
REMARK  Name = 
REMARK  6 active torsions:
REMARK  status: ('A' for Active; 'I' for Inactive)
REMARK    1  A    between atoms: C_2  and  C_4
REMARK    2  A    between atoms: C_4  and  O_5
REMARK    3  A    between atoms: O_5  and  C_6
REMARK    4  A    between atoms: C_10  and  N_11
REMARK    5  A    between atoms: C_12  and  C_14
REMARK    6  A    between atoms: C_16  and  C_17
REMARK                            x       y       z     vdW  Elec       q    Type
REMARK                         _______ _______ _______ _____ _____    ______ ____
ROOT
ATOM      1  N   UNL     1       2.028   7.548  19.325  0.00  0.00    +0.000 N 
ATOM      2  C   UNL     1       1.892   8.722  18.544  0.00  0.00    +0.000 C 
ATOM      3  O   UNL     1       2.140   8.803  17.348  0.00  0.00    +0.000 OA
ATOM      4  H   UNL     1       1.593   7.533  20.238  0.00  0.00    +0.000 HD
ENDROOT
BRANCH   2   5
ATOM      5  C   UNL     1       1.341   9.986  19.171  0.00  0.00    +0.000 A 
ATOM      6  C   UNL     1       1.890  11.214  18.727  0.00  0.00    +0.000 A 
ATOM      7  C   UNL     1       1.485  12.428  19.291  0.00  0.00    +0.000 A 
ATOM      8  N   UNL     1       0.666  12.424  20.365  0.00  0.00    +0.000 NA
ATOM      9  C   UNL     1       0.288  11.265  20.913  0.00  0.00    +0.000 A 
ATOM     10  C   UNL     1      -0.310  11.337  22.160  0.00  0.00    +0.000 A 
ATOM     11  C   UNL     1      -0.660  10.193  22.872  0.00  0.00    +0.000 A 
ATOM     12  C   UNL     1      -0.484   8.946  22.288  0.00  0.00    +0.000 A 
ATOM     13  C   UNL     1       0.098   8.845  21.023  0.00  0.00    +0.000 A 
ATOM     14  C   UNL     1       0.546   9.995  20.336  0.00  0.00    +0.000 A 
BRANCH   7  15
ATOM     15  C   UNL     1       1.882  13.786  18.820  0.00  0.00    +0.000 A 
ATOM     16  C   UNL     1       3.079  14.026  18.102  0.00  0.00    +0.000 A 
ATOM     17  C   UNL     1       3.430  15.306  17.641  0.00  0.00    +0.000 A 
ATOM     18  C   UNL     1       2.605  16.395  17.875  0.00  0.00    +0.000 A 
ATOM     19  C   UNL     1       1.421  16.207  18.577  0.00  0.00    +0.000 A 
ATOM     20  C   UNL     1       1.075  14.926  19.038  0.00  0.00    +0.000 A 
ENDBRANCH   7  15
ENDBRANCH   2   5
BRANCH   1  25
ATOM     21  C   UNL     1       4.610   4.774  18.830  0.00  0.00    +0.000 A 
ATOM     22  C   UNL     1       3.896   3.897  18.019  0.00  0.00    +0.000 A 
ATOM     23  C   UNL     1       2.598   4.223  17.625  0.00  0.00    +0.000 A 
ATOM     24  C   UNL     1       1.993   5.414  18.047  0.00  0.00    +0.000 A 
ATOM     25  C   UNL     1       2.651   6.317  18.887  0.00  0.00    +0.000 A 
ATOM     26  C   UNL     1       3.981   5.979  19.261  0.00  0.00    +0.000 A 
BRANCH  21  27
ATOM     27  O   UNL     1       5.895   4.528  19.280  0.00  0.00    +0.000 OA
BRANCH  27  28
ATOM     28  C   UNL     1       6.910   5.495  18.946  0.00  0.00    +0.000 C 
BRANCH  28  30
ATOM     29  N   UNL     1       7.429   6.558  16.788  0.00  0.00    +0.000 N 
ATOM     30  C   UNL     1       7.463   5.393  17.506  0.00  0.00    +0.000 C 
ATOM     31  O   UNL     1       7.948   4.378  17.035  0.00  0.00    +0.000 OA
ATOM     32  H   UNL     1       7.776   6.550  15.838  0.00  0.00    +0.000 HD
ATOM     33  H   UNL     1       6.973   7.392  17.152  0.00  0.00    +0.000 HD
ENDBRANCH  28  30
ENDBRANCH  27  28
ENDBRANCH  21  27
ENDBRANCH   1  25
TORSDOF 6
ENDMDL
MODEL 5
REMARK VINA RESULT:      -9.3      1.493      2.106
REMARK  Name = 
REMARK  6 active torsions:
REMARK  status: ('A' for Active; 'I' for Inactive)
REMARK    1  A    between atoms: C_2  and  C_4
REMARK    2  A    between atoms: C_4  and  O_5
REMARK    3  A    between atoms: O_5  and  C_6
REMARK    4  A    between atoms: C_10  and  N_11
REMARK    5  A    between atoms: C_12  and  C_14
REMARK    6  A    between atoms: C_16  and  C_17
REMARK                            x       y       z     vdW  Elec       q    Type
REMARK                         _______ _______ _______ _____ _____    ______ ____
ROOT
ATOM      1  N   UNL     1       1.853   7.768  20.678  0.00  0.00    +0.000 N 
ATOM      2  C   UNL     1       2.195   7.471  19.336  0.00  0.00    +0.000 C 
ATOM      3  O   UNL     1       2.033   8.227  18.387  0.00  0.00    +0.000 OA
ATOM      4  H   UNL     1       2.226   7.170  21.405  0.00  0.00    +0.000 HD
ENDROOT
BRANCH   2   5
ATOM      5  C   UNL     1       2.871   6.157  19.001  0.00  0.00    +0.000 A 
ATOM      6  C   UNL     1       3.682   6.131  17.840  0.00  0.00    +0.000 A 
ATOM      7  C   UNL     1       4.298   4.948  17.421  0.00  0.00    +0.000 A 
ATOM      8  N   UNL     1       4.007   3.787  18.047  0.00  0.00    +0.000 NA
ATOM      9  C   UNL     1       3.099   3.765  19.027  0.00  0.00    +0.000 A 
ATOM     10  C   UNL     1       2.650   2.517  19.425  0.00  0.00    +0.000 A 
ATOM     11  C   UNL     1       1.637   2.369  20.368  0.00  0.00    +0.000 A 
ATOM     12  C   UNL     1       1.115   3.495  20.991  0.00  0.00    +0.000 A 
ATOM     13  C   UNL     1       1.565   4.765  20.624  0.00  0.00    +0.000 A 
ATOM     14  C   UNL     1       2.521   4.928  19.597  0.00  0.00    +0.000 A 
BRANCH   7  15
ATOM     15  C   UNL     1       5.278   4.821  16.305  0.00  0.00    +0.000 A 
ATOM     16  C   UNL     1       4.945   4.240  15.057  0.00  0.00    +0.000 A 
ATOM     17  C   UNL     1       5.870   4.149  14.003  0.00  0.00    +0.000 A 
ATOM     18  C   UNL     1       7.161   4.633  14.150  0.00  0.00    +0.000 A 
ATOM     19  C   UNL     1       7.533   5.210  15.357  0.00  0.00    +0.000 A 
ATOM     20  C   UNL     1       6.605   5.297  16.409  0.00  0.00    +0.000 A 
ENDBRANCH   7  15
ENDBRANCH   2   5
BRANCH   1  25
ATOM     21  C   UNL     1       0.388  11.295  20.819  0.00  0.00    +0.000 A 
ATOM     22  C   UNL     1      -0.376  11.212  21.980  0.00  0.00    +0.000 A 
ATOM     23  C   UNL     1      -0.389  10.025  22.714  0.00  0.00    +0.000 A 
ATOM     24  C   UNL     1       0.340   8.907  22.291  0.00  0.00    +0.000 A 
ATOM     25  C   UNL     1       1.098   8.922  21.117  0.00  0.00    +0.000 A 
ATOM     26  C   UNL     1       1.119  10.147  20.393  0.00  0.00    +0.000 A 
BRANCH  21  27
ATOM     27  O   UNL     1       0.451  12.424  20.023  0.00  0.00    +0.000 OA
BRANCH  27  28
ATOM     28  C   UNL     1       1.708  13.128  19.971  0.00  0.00    +0.000 C 
BRANCH  28  30
ATOM     29  N   UNL     1       2.333  12.306  17.737  0.00  0.00    +0.000 N 
ATOM     30  C   UNL     1       2.244  13.405  18.548  0.00  0.00    +0.000 C 
ATOM     31  O   UNL     1       2.526  14.516  18.133  0.00  0.00    +0.000 OA
ATOM     32  H   UNL     1       2.680  12.427  16.795  0.00  0.00    +0.000 HD
ATOM     33  H   UNL     1       2.156  11.369  18.093  0.00  0.00    +0.000 HD
ENDBRANCH  28  30
ENDBRANCH  27  28
ENDBRANCH  21  27
ENDBRANCH   1  25
TORSDOF 6
ENDMDL
MODEL 6
REMARK VINA RESULT:      -9.3      1.698      2.093
REMARK  Name = 
REMARK  6 active torsions:
REMARK  status: ('A' for Active; 'I' for Inactive)
REMARK    1  A    between atoms: C_2  and  C_4
REMARK    2  A    between atoms: C_4  and  O_5
REMARK    3  A    between atoms: O_5  and  C_6
REMARK    4  A    between atoms: C_10  and  N_11
REMARK    5  A    between atoms: C_12  and  C_14
REMARK    6  A    between atoms: C_16  and  C_17
REMARK                            x       y       z     vdW  Elec       q    Type
REMARK                         _______ _______ _______ _____ _____    ______ ____
ROOT
ATOM      1  N   UNL     1       1.836   8.437  18.096  0.00  0.00    +0.000 N 
ATOM      2  C   UNL     1       2.213   7.560  19.142  0.00  0.00    +0.000 C 
ATOM      3  O   UNL     1       1.991   7.749  20.330  0.00  0.00    +0.000 OA
ATOM      4  H   UNL     1       1.871   8.087  17.147  0.00  0.00    +0.000 HD
ENDROOT
BRANCH   2   5
ATOM      5  C   UNL     1       2.891   6.245  18.817  0.00  0.00    +0.000 A 
ATOM      6  C   UNL     1       3.698   6.209  17.654  0.00  0.00    +0.000 A 
ATOM      7  C   UNL     1       4.315   5.023  17.243  0.00  0.00    +0.000 A 
ATOM      8  N   UNL     1       4.028   3.868  17.880  0.00  0.00    +0.000 NA
ATOM      9  C   UNL     1       3.122   3.853  18.863  0.00  0.00    +0.000 A 
ATOM     10  C   UNL     1       2.676   2.608  19.274  0.00  0.00    +0.000 A 
ATOM     11  C   UNL     1       1.666   2.467  20.221  0.00  0.00    +0.000 A 
ATOM     12  C   UNL     1       1.144   3.598  20.836  0.00  0.00    +0.000 A 
ATOM     13  C   UNL     1       1.591   4.865  20.456  0.00  0.00    +0.000 A 
ATOM     14  C   UNL     1       2.544   5.020  19.425  0.00  0.00    +0.000 A 
BRANCH   7  15
ATOM     15  C   UNL     1       5.292   4.888  16.126  0.00  0.00    +0.000 A 
ATOM     16  C   UNL     1       5.014   4.145  14.952  0.00  0.00    +0.000 A 
ATOM     17  C   UNL     1       5.933   4.046  13.894  0.00  0.00    +0.000 A 
ATOM     18  C   UNL     1       7.163   4.682  13.962  0.00  0.00    +0.000 A 
ATOM     19  C   UNL     1       7.481   5.420  15.095  0.00  0.00    +0.000 A 
ATOM     20  C   UNL     1       6.559   5.515  16.151  0.00  0.00    +0.000 A 
ENDBRANCH   7  15
ENDBRANCH   2   5
BRANCH   1  25
ATOM     21  C   UNL     1      -0.647  11.315  18.501  0.00  0.00    +0.000 A 
ATOM     22  C   UNL     1       0.224  12.397  18.602  0.00  0.00    +0.000 A 
ATOM     23  C   UNL     1       1.600  12.185  18.515  0.00  0.00    +0.000 A 
ATOM     24  C   UNL     1       2.123  10.897  18.346  0.00  0.00    +0.000 A 
ATOM     25  C   UNL     1       1.298   9.770  18.271  0.00  0.00    +0.000 A 
ATOM     26  C   UNL     1      -0.103  10.006  18.339  0.00  0.00    +0.000 A 
BRANCH  21  27
ATOM     27  O   UNL     1      -2.023  11.428  18.590  0.00  0.00    +0.000 OA
BRANCH  27  28
ATOM     28  C   UNL     1      -2.813  10.392  17.974  0.00  0.00    +0.000 C 
BRANCH  28  30
ATOM     29  N   UNL     1      -3.722  11.834  16.199  0.00  0.00    +0.000 N 
ATOM     30  C   UNL     1      -3.149  10.624  16.484  0.00  0.00    +0.000 C 
ATOM     31  O   UNL     1      -2.888   9.829  15.597  0.00  0.00    +0.000 OA
ATOM     32  H   UNL     1      -3.965  12.040  15.240  0.00  0.00    +0.000 HD
ATOM     33  H   UNL     1      -3.996  12.477  16.939  0.00  0.00    +0.000 HD
ENDBRANCH  28  30
ENDBRANCH  27  28
ENDBRANCH  21  27
ENDBRANCH   1  25
TORSDOF 6
ENDMDL
MODEL 7
REMARK VINA RESULT:      -9.2      3.309      8.585
REMARK  Name = 
REMARK  6 active torsions:
REMARK  status: ('A' for Active; 'I' for Inactive)
REMARK    1  A    between atoms: C_2  and  C_4
REMARK    2  A    between atoms: C_4  and  O_5
REMARK    3  A    between atoms: O_5  and  C_6
REMARK    4  A    between atoms: C_10  and  N_11
REMARK    5  A    between atoms: C_12  and  C_14
REMARK    6  A    between atoms: C_16  and  C_17
REMARK                            x       y       z     vdW  Elec       q    Type
REMARK                         _______ _______ _______ _____ _____    ______ ____
ROOT
ATOM      1  N   UNL     1       2.301   8.092  19.037  0.00  0.00    +0.000 N 
ATOM      2  C   UNL     1       1.515   9.054  18.356  0.00  0.00    +0.000 C 
ATOM      3  O   UNL     1       1.108   8.942  17.208  0.00  0.00    +0.000 OA
ATOM      4  H   UNL     1       2.397   8.182  20.040  0.00  0.00    +0.000 HD
ENDROOT
BRANCH   2   5
ATOM      5  C   UNL     1       1.063  10.307  19.078  0.00  0.00    +0.000 A 
ATOM      6  C   UNL     1       1.624  11.534  18.645  0.00  0.00    +0.000 A 
ATOM      7  C   UNL     1       1.311  12.735  19.290  0.00  0.00    +0.000 A 
ATOM      8  N   UNL     1       0.577  12.710  20.423  0.00  0.00    +0.000 NA
ATOM      9  C   UNL     1       0.196  11.542  20.949  0.00  0.00    +0.000 A 
ATOM     10  C   UNL     1      -0.302  11.578  22.241  0.00  0.00    +0.000 A 
ATOM     11  C   UNL     1      -0.641  10.416  22.928  0.00  0.00    +0.000 A 
ATOM     12  C   UNL     1      -0.558   9.191  22.280  0.00  0.00    +0.000 A 
ATOM     13  C   UNL     1      -0.079   9.128  20.970  0.00  0.00    +0.000 A 
ATOM     14  C   UNL     1       0.360  10.291  20.301  0.00  0.00    +0.000 A 
BRANCH   7  15
ATOM     15  C   UNL     1       1.723  14.097  18.848  0.00  0.00    +0.000 A 
ATOM     16  C   UNL     1       2.919  14.338  18.128  0.00  0.00    +0.000 A 
ATOM     17  C   UNL     1       3.285  15.623  17.694  0.00  0.00    +0.000 A 
ATOM     18  C   UNL     1       2.477  16.717  17.959  0.00  0.00    +0.000 A 
ATOM     19  C   UNL     1       1.295  16.529  18.664  0.00  0.00    +0.000 A 
ATOM     20  C   UNL     1       0.934  15.243  19.098  0.00  0.00    +0.000 A 
ENDBRANCH   7  15
ENDBRANCH   2   5
BRANCH   1  25
ATOM     21  C   UNL     1       3.041   4.442  18.178  0.00  0.00    +0.000 A 
ATOM     22  C   UNL     1       4.081   4.597  17.265  0.00  0.00    +0.000 A 
ATOM     23  C   UNL     1       4.543   5.876  16.955  0.00  0.00    +0.000 A 
ATOM     24  C   UNL     1       3.966   7.012  17.536  0.00  0.00    +0.000 A 
ATOM     25  C   UNL     1       2.899   6.919  18.435  0.00  0.00    +0.000 A 
ATOM     26  C   UNL     1       2.454   5.607  18.756  0.00  0.00    +0.000 A 
BRANCH  21  27
ATOM     27  O   UNL     1       2.510   3.216  18.534  0.00  0.00    +0.000 OA
BRANCH  27  28
ATOM     28  C   UNL     1       2.897   2.673  19.813  0.00  0.00    +0.000 C 
BRANCH  28  30
ATOM     29  N   UNL     1       0.568   3.054  20.512  0.00  0.00    +0.000 N 
ATOM     30  C   UNL     1       1.852   2.843  20.938  0.00  0.00    +0.000 C 
ATOM     31  O   UNL     1       2.111   2.751  22.126  0.00  0.00    +0.000 OA
ATOM     32  H   UNL     1      -0.158   3.174  21.205  0.00  0.00    +0.000 HD
ATOM     33  H   UNL     1       0.353   3.191  19.527  0.00  0.00    +0.000 HD
ENDBRANCH  28  30
ENDBRANCH  27  28
ENDBRANCH  21  27
ENDBRANCH   1  25
TORSDOF 6
ENDMDL
MODEL 8
REMARK VINA RESULT:      -9.1      1.844      2.678
REMARK  Name = 
REMARK  6 active torsions:
REMARK  status: ('A' for Active; 'I' for Inactive)
REMARK    1  A    between atoms: C_2  and  C_4
REMARK    2  A    between atoms: C_4  and  O_5
REMARK    3  A    between atoms: O_5  and  C_6
REMARK    4  A    between atoms: C_10  and  N_11
REMARK    5  A    between atoms: C_12  and  C_14
REMARK    6  A    between atoms: C_16  and  C_17
REMARK                            x       y       z     vdW  Elec       q    Type
REMARK                         _______ _______ _______ _____ _____    ______ ____
ROOT
ATOM      1  N   UNL     1       1.872   8.368  18.251  0.00  0.00    +0.000 N 
ATOM      2  C   UNL     1       2.318   7.429  19.213  0.00  0.00    +0.000 C 
ATOM      3  O   UNL     1       2.245   7.578  20.426  0.00  0.00    +0.000 OA
ATOM      4  H   UNL     1       1.779   8.056  17.293  0.00  0.00    +0.000 HD
ENDROOT
BRANCH   2   5
ATOM      5  C   UNL     1       2.881   6.096  18.764  0.00  0.00    +0.000 A 
ATOM      6  C   UNL     1       3.733   6.108  17.633  0.00  0.00    +0.000 A 
ATOM      7  C   UNL     1       4.251   4.919  17.111  0.00  0.00    +0.000 A 
ATOM      8  N   UNL     1       3.826   3.735  17.602  0.00  0.00    +0.000 NA
ATOM      9  C   UNL     1       2.880   3.703  18.545  0.00  0.00    +0.000 A 
ATOM     10  C   UNL     1       2.298   2.471  18.795  0.00  0.00    +0.000 A 
ATOM     11  C   UNL     1       1.238   2.329  19.686  0.00  0.00    +0.000 A 
ATOM     12  C   UNL     1       0.800   3.432  20.407  0.00  0.00    +0.000 A 
ATOM     13  C   UNL     1       1.383   4.682  20.189  0.00  0.00    +0.000 A 
ATOM     14  C   UNL     1       2.391   4.853  19.216  0.00  0.00    +0.000 A 
BRANCH   7  15
ATOM     15  C   UNL     1       5.261   4.810  16.019  0.00  0.00    +0.000 A 
ATOM     16  C   UNL     1       5.018   4.094  14.822  0.00  0.00    +0.000 A 
ATOM     17  C   UNL     1       5.967   4.019  13.789  0.00  0.00    +0.000 A 
ATOM     18  C   UNL     1       7.193   4.655  13.906  0.00  0.00    +0.000 A 
ATOM     19  C   UNL     1       7.477   5.369  15.064  0.00  0.00    +0.000 A 
ATOM     20  C   UNL     1       6.525   5.438  16.095  0.00  0.00    +0.000 A 
ENDBRANCH   7  15
ENDBRANCH   2   5
BRANCH   1  25
ATOM     21  C   UNL     1      -0.263  11.301  19.453  0.00  0.00    +0.000 A 
ATOM     22  C   UNL     1       0.546  12.376  19.090  0.00  0.00    +0.000 A 
ATOM     23  C   UNL     1       1.759  12.139  18.444  0.00  0.00    +0.000 A 
ATOM     24  C   UNL     1       2.187  10.835  18.167  0.00  0.00    +0.000 A 
ATOM     25  C   UNL     1       1.432   9.717  18.536  0.00  0.00    +0.000 A 
ATOM     26  C   UNL     1       0.187   9.977  19.175  0.00  0.00    +0.000 A 
BRANCH  21  27
ATOM     27  O   UNL     1      -1.473  11.440  20.108  0.00  0.00    +0.000 OA
BRANCH  27  28
ATOM     28  C   UNL     1      -1.530  12.381  21.198  0.00  0.00    +0.000 C 
BRANCH  28  30
ATOM     29  N   UNL     1      -2.531  11.858  23.385  0.00  0.00    +0.000 N 
ATOM     30  C   UNL     1      -1.408  11.759  22.607  0.00  0.00    +0.000 C 
ATOM     31  O   UNL     1      -0.418  11.170  23.007  0.00  0.00    +0.000 OA
ATOM     32  H   UNL     1      -2.507  11.470  24.318  0.00  0.00    +0.000 HD
ATOM     33  H   UNL     1      -3.338  12.397  23.083  0.00  0.00    +0.000 HD
ENDBRANCH  28  30
ENDBRANCH  27  28
ENDBRANCH  21  27
ENDBRANCH   1  25
TORSDOF 6
ENDMDL
MODEL 9
REMARK VINA RESULT:      -9.1      3.057      8.921
REMARK  Name = 
REMARK  6 active torsions:
REMARK  status: ('A' for Active; 'I' for Inactive)
REMARK    1  A    between atoms: C_2  and  C_4
REMARK    2  A    between atoms: C_4  and  O_5
REMARK    3  A    between atoms: O_5  and  C_6
REMARK    4  A    between atoms: C_10  and  N_11
REMARK    5  A    between atoms: C_12  and  C_14
REMARK    6  A    between atoms: C_16  and  C_17
REMARK                            x       y       z     vdW  Elec       q    Type
REMARK                         _______ _______ _______ _____ _____    ______ ____
ROOT
ATOM      1  N   UNL     1       1.991   7.998  19.029  0.00  0.00    +0.000 N 
ATOM      2  C   UNL     1       1.656   9.216  18.390  0.00  0.00    +0.000 C 
ATOM      3  O   UNL     1       1.810   9.448  17.198  0.00  0.00    +0.000 OA
ATOM      4  H   UNL     1       1.625   7.834  19.959  0.00  0.00    +0.000 HD
ENDROOT
BRANCH   2   5
ATOM      5  C   UNL     1       0.998  10.328  19.180  0.00  0.00    +0.000 A 
ATOM      6  C   UNL     1       1.305  11.656  18.797  0.00  0.00    +0.000 A 
ATOM      7  C   UNL     1       0.790  12.747  19.505  0.00  0.00    +0.000 A 
ATOM      8  N   UNL     1       0.107  12.534  20.651  0.00  0.00    +0.000 NA
ATOM      9  C   UNL     1      -0.031  11.293  21.127  0.00  0.00    +0.000 A 
ATOM     10  C   UNL     1      -0.489  11.178  22.429  0.00  0.00    +0.000 A 
ATOM     11  C   UNL     1      -0.583   9.943  23.066  0.00  0.00    +0.000 A 
ATOM     12  C   UNL     1      -0.290   8.786  22.357  0.00  0.00    +0.000 A 
ATOM     13  C   UNL     1       0.154   8.872  21.036  0.00  0.00    +0.000 A 
ATOM     14  C   UNL     1       0.347  10.125  20.415  0.00  0.00    +0.000 A 
BRANCH   7  15
ATOM     15  C   UNL     1       0.926  14.181  19.122  0.00  0.00    +0.000 A 
ATOM     16  C   UNL     1       2.161  14.755  18.732  0.00  0.00    +0.000 A 
ATOM     17  C   UNL     1       2.272  16.102  18.348  0.00  0.00    +0.000 A 
ATOM     18  C   UNL     1       1.160  16.929  18.336  0.00  0.00    +0.000 A 
ATOM     19  C   UNL     1      -0.073  16.410  18.712  0.00  0.00    +0.000 A 
ATOM     20  C   UNL     1      -0.179  15.063  19.097  0.00  0.00    +0.000 A 
ENDBRANCH   7  15
ENDBRANCH   2   5
BRANCH   1  25
ATOM     21  C   UNL     1       4.747   6.046  17.241  0.00  0.00    +0.000 A 
ATOM     22  C   UNL     1       4.190   4.769  17.222  0.00  0.00    +0.000 A 
ATOM     23  C   UNL     1       2.923   4.561  17.767  0.00  0.00    +0.000 A 
ATOM     24  C   UNL     1       2.207   5.613  18.351  0.00  0.00    +0.000 A 
ATOM     25  C   UNL     1       2.729   6.908  18.427  0.00  0.00    +0.000 A 
ATOM     26  C   UNL     1       4.013   7.108  17.846  0.00  0.00    +0.000 A 
BRANCH  21  27
ATOM     27  O   UNL     1       6.000   6.342  16.737  0.00  0.00    +0.000 OA
BRANCH  27  28
ATOM     28  C   UNL     1       7.052   6.601  17.688  0.00  0.00    +0.000 C 
BRANCH  28  30
ATOM     29  N   UNL     1       7.980   4.336  17.952  0.00  0.00    +0.000 N 
ATOM     30  C   UNL     1       7.420   5.406  18.597  0.00  0.00    +0.000 C 
ATOM     31  O   UNL     1       7.283   5.407  19.809  0.00  0.00    +0.000 OA
ATOM     32  H   UNL     1       8.239   3.525  18.496  0.00  0.00    +0.000 HD
ATOM     33  H   UNL     1       8.042   4.304  16.937  0.00  0.00    +0.000 HD
ENDBRANCH  28  30
ENDBRANCH  27  28
ENDBRANCH  21  27
ENDBRANCH   1  25
TORSDOF 6
ENDMDL
