MODEL 1
REMARK VINA RESULT:      -8.7      0.000      0.000
REMARK  Name = 
REMARK  7 active torsions:
REMARK  status: ('A' for Active; 'I' for Inactive)
REMARK    1  A    between atoms: C_1  and  N_2
REMARK    2  A    between atoms: C_6  and  C_7
REMARK    3  A    between atoms: C_7  and  C_8
REMARK    4  A    between atoms: C_8  and  C_9
REMARK    5  A    between atoms: C_13  and  N_14
REMARK    6  A    between atoms: C_17  and  C_18
REMARK    7  A    between atoms: C_19  and  C_20
REMARK                            x       y       z     vdW  Elec       q    Type
REMARK                         _______ _______ _______ _____ _____    ______ ____
ROOT
ATOM      1  C   UNL     1      -0.428  10.372  20.332  0.00  0.00    +0.000 A 
ATOM      2  C   UNL     1      -0.432  10.615  21.711  0.00  0.00    +0.000 A 
ATOM      3  C   UNL     1       0.328   9.823  22.566  0.00  0.00    +0.000 A 
ATOM      4  C   UNL     1       1.113   8.776  22.056  0.00  0.00    +0.000 A 
ATOM      5  C   UNL     1       1.206   8.531  20.686  0.00  0.00    +0.000 A 
ATOM      6  C   UNL     1       0.436   9.349  19.865  0.00  0.00    +0.000 A 
ENDROOT
BRANCH   5   7
ATOM      7  N   UNL     1       1.971   7.518  20.138  0.00  0.00    +0.000 N 
ATOM      8  C   UNL     1       2.564   7.639  18.807  0.00  0.00    +0.000 C 
ATOM      9  C   UNL     1       2.035   6.556  17.871  0.00  0.00    +0.000 C 
ATOM     10  C   UNL     1       2.397   5.181  18.420  0.00  0.00    +0.000 C 
ATOM     11  C   UNL     1       1.792   5.069  19.843  0.00  0.00    +0.000 C 
ATOM     12  C   UNL     1       2.079   6.229  20.816  0.00  0.00    +0.000 C 
BRANCH  10  13
ATOM     13  C   UNL     1       4.030   4.792  18.102  0.00  0.00    +0.000 C 
ATOM     14  C   UNL     1       4.527   4.320  16.909  0.00  0.00    +0.000 C 
ATOM     15  C   UNL     1       3.912   3.026  17.326  0.00  0.00    +0.000 C 
ATOM     16  C   UNL     1       4.445   3.445  18.507  0.00  0.00    +0.000 C 
BRANCH  14  17
ATOM     17  C   UNL     1       5.652   4.393  15.828  0.00  0.00    +0.000 C 
ATOM     18  F   UNL     1       6.731   5.057  16.340  0.00  0.00    +0.000 F 
ATOM     19  F   UNL     1       6.090   3.181  15.402  0.00  0.00    +0.000 F 
ATOM     20  F   UNL     1       5.315   5.094  14.710  0.00  0.00    +0.000 F 
ENDBRANCH  14  17
ENDBRANCH  10  13
ENDBRANCH   5   7
BRANCH   1  21
ATOM     21  C   UNL     1      -1.363  11.166  19.320  0.00  0.00    +0.000 C 
ATOM     22  C   UNL     1      -2.144  12.366  19.875  0.00  0.00    +0.000 C 
ATOM     23  O   UNL     1      -1.379  13.293  19.064  0.00  0.00    +0.000 OA
ATOM     24  C   UNL     1      -0.618  12.216  18.477  0.00  0.00    +0.000 C 
BRANCH  21  25
ATOM     25  C   UNL     1      -2.245  10.193  18.535  0.00  0.00    +0.000 C 
BRANCH  25  31
ATOM     26  C   UNL     1      -4.997  11.899  17.274  0.00  0.00    +0.000 C 
ATOM     27  N   UNL     1      -3.909  11.158  16.682  0.00  0.00    +0.000 N 
ATOM     28  C   UNL     1      -3.849  11.030  15.321  0.00  0.00    +0.000 A 
ATOM     29  N   UNL     1      -2.823  10.304  14.968  0.00  0.00    +0.000 NA
ATOM     30  N   UNL     1      -2.180   9.942  16.113  0.00  0.00    +0.000 NA
ATOM     31  C   UNL     1      -2.806  10.449  17.160  0.00  0.00    +0.000 A 
ENDBRANCH  25  31
ENDBRANCH  21  25
ENDBRANCH   1  21
TORSDOF 6
ENDMDL
MODEL 2
REMARK VINA RESULT:      -8.3      5.320      9.674
REMARK  Name = 
REMARK  7 active torsions:
REMARK  status: ('A' for Active; 'I' for Inactive)
REMARK    1  A    between atoms: C_1  and  N_2
REMARK    2  A    between atoms: C_6  and  C_7
REMARK    3  A    between atoms: C_7  and  C_8
REMARK    4  A    between atoms: C_8  and  C_9
REMARK    5  A    between atoms: C_13  and  N_14
REMARK    6  A    between atoms: C_17  and  C_18
REMARK    7  A    between atoms: C_19  and  C_20
REMARK                            x       y       z     vdW  Elec       q    Type
REMARK                         _______ _______ _______ _____ _____    ______ ____
ROOT
ATOM      1  C   UNL     1       2.956   5.949  18.392  0.00  0.00    +0.000 A 
ATOM      2  C   UNL     1       3.687   6.608  17.396  0.00  0.00    +0.000 A 
ATOM      3  C   UNL     1       3.527   7.976  17.197  0.00  0.00    +0.000 A 
ATOM      4  C   UNL     1       2.637   8.713  17.995  0.00  0.00    +0.000 A 
ATOM      5  C   UNL     1       1.932   8.120  19.043  0.00  0.00    +0.000 A 
ATOM      6  C   UNL     1       2.125   6.752  19.214  0.00  0.00    +0.000 A 
ENDROOT
BRANCH   5   7
ATOM      7  N   UNL     1       1.052   8.806  19.859  0.00  0.00    +0.000 N 
ATOM      8  C   UNL     1       0.474  10.088  19.458  0.00  0.00    +0.000 C 
ATOM      9  C   UNL     1       0.870  11.196  20.430  0.00  0.00    +0.000 C 
ATOM     10  C   UNL     1       0.349  10.865  21.824  0.00  0.00    +0.000 C 
ATOM     11  C   UNL     1       0.941   9.492  22.233  0.00  0.00    +0.000 C 
ATOM     12  C   UNL     1       0.795   8.341  21.219  0.00  0.00    +0.000 C 
BRANCH  10  13
ATOM     13  C   UNL     1      -1.319  11.207  21.965  0.00  0.00    +0.000 C 
ATOM     14  C   UNL     1      -1.919  12.414  21.690  0.00  0.00    +0.000 C 
ATOM     15  C   UNL     1      -1.341  12.840  22.998  0.00  0.00    +0.000 C 
ATOM     16  C   UNL     1      -1.770  11.586  23.308  0.00  0.00    +0.000 C 
BRANCH  14  17
ATOM     17  C   UNL     1      -3.111  13.171  21.023  0.00  0.00    +0.000 C 
ATOM     18  F   UNL     1      -2.751  14.469  20.790  0.00  0.00    +0.000 F 
ATOM     19  F   UNL     1      -3.510  12.644  19.839  0.00  0.00    +0.000 F 
ATOM     20  F   UNL     1      -4.227  13.258  21.800  0.00  0.00    +0.000 F 
ENDBRANCH  14  17
ENDBRANCH  10  13
ENDBRANCH   5   7
BRANCH   1  21
ATOM     21  C   UNL     1       3.008   4.372  18.589  0.00  0.00    +0.000 C 
ATOM     22  C   UNL     1       1.780   3.698  19.217  0.00  0.00    +0.000 C 
ATOM     23  O   UNL     1       1.477   3.001  17.983  0.00  0.00    +0.000 OA
ATOM     24  C   UNL     1       2.629   3.575  17.328  0.00  0.00    +0.000 C 
BRANCH  21  25
ATOM     25  C   UNL     1       4.321   3.963  19.260  0.00  0.00    +0.000 C 
BRANCH  25  31
ATOM     26  C   UNL     1       6.096   3.993  16.273  0.00  0.00    +0.000 C 
ATOM     27  N   UNL     1       6.372   4.440  17.618  0.00  0.00    +0.000 N 
ATOM     28  C   UNL     1       7.579   5.020  17.895  0.00  0.00    +0.000 A 
ATOM     29  N   UNL     1       7.667   5.330  19.160  0.00  0.00    +0.000 NA
ATOM     30  N   UNL     1       6.492   4.955  19.741  0.00  0.00    +0.000 NA
ATOM     31  C   UNL     1       5.691   4.425  18.836  0.00  0.00    +0.000 A 
ENDBRANCH  25  31
ENDBRANCH  21  25
ENDBRANCH   1  21
TORSDOF 6
ENDMDL
MODEL 3
REMARK VINA RESULT:      -8.2      3.016      4.429
REMARK  Name = 
REMARK  7 active torsions:
REMARK  status: ('A' for Active; 'I' for Inactive)
REMARK    1  A    between atoms: C_1  and  N_2
REMARK    2  A    between atoms: C_6  and  C_7
REMARK    3  A    between atoms: C_7  and  C_8
REMARK    4  A    between atoms: C_8  and  C_9
REMARK    5  A    between atoms: C_13  and  N_14
REMARK    6  A    between atoms: C_17  and  C_18
REMARK    7  A    between atoms: C_19  and  C_20
REMARK                            x       y       z     vdW  Elec       q    Type
REMARK                         _______ _______ _______ _____ _____    ______ ____
ROOT
ATOM      1  C   UNL     1       0.041  10.853  20.533  0.00  0.00    +0.000 A 
ATOM      2  C   UNL     1       0.061  10.679  21.923  0.00  0.00    +0.000 A 
ATOM      3  C   UNL     1       0.610   9.527  22.478  0.00  0.00    +0.000 A 
ATOM      4  C   UNL     1       1.156   8.530  21.653  0.00  0.00    +0.000 A 
ATOM      5  C   UNL     1       1.220   8.680  20.268  0.00  0.00    +0.000 A 
ATOM      6  C   UNL     1       0.667   9.849  19.753  0.00  0.00    +0.000 A 
ENDROOT
BRANCH   5   7
ATOM      7  N   UNL     1       1.754   7.729  19.418  0.00  0.00    +0.000 N 
ATOM      8  C   UNL     1       2.173   6.415  19.904  0.00  0.00    +0.000 C 
ATOM      9  C   UNL     1       3.664   6.194  19.670  0.00  0.00    +0.000 C 
ATOM     10  C   UNL     1       3.965   6.257  18.177  0.00  0.00    +0.000 C 
ATOM     11  C   UNL     1       3.493   7.641  17.661  0.00  0.00    +0.000 C 
ATOM     12  C   UNL     1       2.060   8.070  18.031  0.00  0.00    +0.000 C 
BRANCH  10  13
ATOM     13  C   UNL     1       3.530   4.805  17.390  0.00  0.00    +0.000 C 
ATOM     14  C   UNL     1       3.719   3.534  17.883  0.00  0.00    +0.000 C 
ATOM     15  C   UNL     1       5.146   3.750  17.502  0.00  0.00    +0.000 C 
ATOM     16  C   UNL     1       4.511   4.295  16.427  0.00  0.00    +0.000 C 
BRANCH  14  17
ATOM     17  C   UNL     1       3.128   2.107  18.109  0.00  0.00    +0.000 C 
ATOM     18  F   UNL     1       1.997   1.959  17.356  0.00  0.00    +0.000 F 
ATOM     19  F   UNL     1       3.971   1.099  17.773  0.00  0.00    +0.000 F 
ATOM     20  F   UNL     1       2.726   1.860  19.387  0.00  0.00    +0.000 F 
ENDBRANCH  14  17
ENDBRANCH  10  13
ENDBRANCH   5   7
BRANCH   1  21
ATOM     21  C   UNL     1      -0.675  12.090  19.837  0.00  0.00    +0.000 C 
ATOM     22  C   UNL     1      -0.672  12.136  18.302  0.00  0.00    +0.000 C 
ATOM     23  O   UNL     1      -2.109  11.954  18.251  0.00  0.00    +0.000 OA
ATOM     24  C   UNL     1      -2.199  11.926  19.692  0.00  0.00    +0.000 C 
BRANCH  21  25
ATOM     25  C   UNL     1      -0.209  13.402  20.473  0.00  0.00    +0.000 C 
BRANCH  25  31
ATOM     26  C   UNL     1       2.782  13.389  18.705  0.00  0.00    +0.000 C 
ATOM     27  N   UNL     1       2.405  13.752  20.050  0.00  0.00    +0.000 N 
ATOM     28  C   UNL     1       3.363  14.203  20.915  0.00  0.00    +0.000 A 
ATOM     29  N   UNL     1       2.850  14.450  22.089  0.00  0.00    +0.000 NA
ATOM     30  N   UNL     1       1.520  14.164  22.009  0.00  0.00    +0.000 NA
ATOM     31  C   UNL     1       1.222  13.750  20.791  0.00  0.00    +0.000 A 
ENDBRANCH  25  31
ENDBRANCH  21  25
ENDBRANCH   1  21
TORSDOF 6
ENDMDL
MODEL 4
REMARK VINA RESULT:      -8.2      4.844      9.157
REMARK  Name = 
REMARK  7 active torsions:
REMARK  status: ('A' for Active; 'I' for Inactive)
REMARK    1  A    between atoms: C_1  and  N_2
REMARK    2  A    between atoms: C_6  and  C_7
REMARK    3  A    between atoms: C_7  and  C_8
REMARK    4  A    between atoms: C_8  and  C_9
REMARK    5  A    between atoms: C_13  and  N_14
REMARK    6  A    between atoms: C_17  and  C_18
REMARK    7  A    between atoms: C_19  and  C_20
REMARK                            x       y       z     vdW  Elec       q    Type
REMARK                         _______ _______ _______ _____ _____    ______ ____
ROOT
ATOM      1  C   UNL     1       4.889   4.809  18.065  0.00  0.00    +0.000 A 
ATOM      2  C   UNL     1       4.786   3.619  18.795  0.00  0.00    +0.000 A 
ATOM      3  C   UNL     1       3.765   3.453  19.726  0.00  0.00    +0.000 A 
ATOM      4  C   UNL     1       2.823   4.473  19.939  0.00  0.00    +0.000 A 
ATOM      5  C   UNL     1       2.839   5.652  19.194  0.00  0.00    +0.000 A 
ATOM      6  C   UNL     1       3.872   5.776  18.269  0.00  0.00    +0.000 A 
ENDROOT
BRANCH   5   7
ATOM      7  N   UNL     1       1.930   6.678  19.363  0.00  0.00    +0.000 N 
ATOM      8  C   UNL     1       1.491   7.507  18.241  0.00  0.00    +0.000 C 
ATOM      9  C   UNL     1       1.860   8.970  18.464  0.00  0.00    +0.000 C 
ATOM     10  C   UNL     1       1.172   9.488  19.722  0.00  0.00    +0.000 C 
ATOM     11  C   UNL     1       1.617   8.588  20.904  0.00  0.00    +0.000 C 
ATOM     12  C   UNL     1       1.497   7.065  20.703  0.00  0.00    +0.000 C 
BRANCH  10  13
ATOM     13  C   UNL     1      -0.472   9.848  19.433  0.00  0.00    +0.000 C 
ATOM     14  C   UNL     1      -0.980  10.435  18.297  0.00  0.00    +0.000 C 
ATOM     15  C   UNL     1      -0.419  11.695  18.868  0.00  0.00    +0.000 C 
ATOM     16  C   UNL     1      -0.942  11.121  19.986  0.00  0.00    +0.000 C 
BRANCH  14  17
ATOM     17  C   UNL     1      -2.094  10.445  17.203  0.00  0.00    +0.000 C 
ATOM     18  F   UNL     1      -2.007  11.599  16.475  0.00  0.00    +0.000 F 
ATOM     19  F   UNL     1      -2.020   9.410  16.328  0.00  0.00    +0.000 F 
ATOM     20  F   UNL     1      -3.365  10.443  17.693  0.00  0.00    +0.000 F 
ENDBRANCH  14  17
ENDBRANCH  10  13
ENDBRANCH   5   7
BRANCH   1  21
ATOM     21  C   UNL     1       6.098   5.103  17.074  0.00  0.00    +0.000 C 
ATOM     22  C   UNL     1       6.574   6.558  16.953  0.00  0.00    +0.000 C 
ATOM     23  O   UNL     1       7.848   6.237  17.566  0.00  0.00    +0.000 OA
ATOM     24  C   UNL     1       7.484   4.845  17.692  0.00  0.00    +0.000 C 
BRANCH  21  25
ATOM     25  C   UNL     1       5.846   4.443  15.717  0.00  0.00    +0.000 C 
BRANCH  25  31
ATOM     26  C   UNL     1       5.755   3.276  12.445  0.00  0.00    +0.000 C 
ATOM     27  N   UNL     1       6.588   4.213  13.161  0.00  0.00    +0.000 N 
ATOM     28  C   UNL     1       7.607   4.841  12.501  0.00  0.00    +0.000 A 
ATOM     29  N   UNL     1       8.272   5.622  13.308  0.00  0.00    +0.000 NA
ATOM     30  N   UNL     1       7.682   5.520  14.533  0.00  0.00    +0.000 NA
ATOM     31  C   UNL     1       6.661   4.685  14.472  0.00  0.00    +0.000 A 
ENDBRANCH  25  31
ENDBRANCH  21  25
ENDBRANCH   1  21
TORSDOF 6
ENDMDL
MODEL 5
REMARK VINA RESULT:      -8.1      5.584      9.805
REMARK  Name = 
REMARK  7 active torsions:
REMARK  status: ('A' for Active; 'I' for Inactive)
REMARK    1  A    between atoms: C_1  and  N_2
REMARK    2  A    between atoms: C_6  and  C_7
REMARK    3  A    between atoms: C_7  and  C_8
REMARK    4  A    between atoms: C_8  and  C_9
REMARK    5  A    between atoms: C_13  and  N_14
REMARK    6  A    between atoms: C_17  and  C_18
REMARK    7  A    between atoms: C_19  and  C_20
REMARK                            x       y       z     vdW  Elec       q    Type
REMARK                         _______ _______ _______ _____ _____    ______ ____
ROOT
ATOM      1  C   UNL     1       2.326   7.441  18.987  0.00  0.00    +0.000 A 
ATOM      2  C   UNL     1       2.772   8.186  17.889  0.00  0.00    +0.000 A 
ATOM      3  C   UNL     1       2.260   9.458  17.649  0.00  0.00    +0.000 A 
ATOM      4  C   UNL     1       1.295  10.010  18.507  0.00  0.00    +0.000 A 
ATOM      5  C   UNL     1       0.863   9.339  19.651  0.00  0.00    +0.000 A 
ATOM      6  C   UNL     1       1.405   8.074  19.859  0.00  0.00    +0.000 A 
ENDROOT
BRANCH   5   7
ATOM      7  N   UNL     1      -0.077   9.846  20.528  0.00  0.00    +0.000 N 
ATOM      8  C   UNL     1      -0.736  11.130  20.288  0.00  0.00    +0.000 C 
ATOM      9  C   UNL     1      -0.436  12.117  21.412  0.00  0.00    +0.000 C 
ATOM     10  C   UNL     1      -0.958  11.565  22.734  0.00  0.00    +0.000 C 
ATOM     11  C   UNL     1      -0.280  10.191  22.968  0.00  0.00    +0.000 C 
ATOM     12  C   UNL     1      -0.327   9.183  21.804  0.00  0.00    +0.000 C 
BRANCH  10  13
ATOM     13  C   UNL     1      -2.648  11.772  22.874  0.00  0.00    +0.000 C 
ATOM     14  C   UNL     1      -3.381  12.800  22.326  0.00  0.00    +0.000 C 
ATOM     15  C   UNL     1      -2.814  13.612  23.443  0.00  0.00    +0.000 C 
ATOM     16  C   UNL     1      -3.098  12.450  24.093  0.00  0.00    +0.000 C 
BRANCH  14  17
ATOM     17  C   UNL     1      -4.665  13.237  21.553  0.00  0.00    +0.000 C 
ATOM     18  F   UNL     1      -5.221  14.322  22.172  0.00  0.00    +0.000 F 
ATOM     19  F   UNL     1      -4.443  13.580  20.260  0.00  0.00    +0.000 F 
ATOM     20  F   UNL     1      -5.658  12.304  21.537  0.00  0.00    +0.000 F 
ENDBRANCH  14  17
ENDBRANCH  10  13
ENDBRANCH   5   7
BRANCH   1  21
ATOM     21  C   UNL     1       2.786   5.941  19.246  0.00  0.00    +0.000 C 
ATOM     22  C   UNL     1       1.914   5.085  20.174  0.00  0.00    +0.000 C 
ATOM     23  O   UNL     1       1.526   4.216  19.080  0.00  0.00    +0.000 OA
ATOM     24  C   UNL     1       2.345   4.956  18.149  0.00  0.00    +0.000 C 
BRANCH  21  25
ATOM     25  C   UNL     1       4.271   5.896  19.615  0.00  0.00    +0.000 C 
BRANCH  25  31
ATOM     26  C   UNL     1       5.091   6.447  16.283  0.00  0.00    +0.000 C 
ATOM     27  N   UNL     1       5.692   5.699  17.362  0.00  0.00    +0.000 N 
ATOM     28  C   UNL     1       6.849   5.008  17.132  0.00  0.00    +0.000 A 
ATOM     29  N   UNL     1       7.228   4.367  18.204  0.00  0.00    +0.000 NA
ATOM     30  N   UNL     1       6.309   4.638  19.174  0.00  0.00    +0.000 NA
ATOM     31  C   UNL     1       5.378   5.445  18.698  0.00  0.00    +0.000 A 
ENDBRANCH  25  31
ENDBRANCH  21  25
ENDBRANCH   1  21
TORSDOF 6
ENDMDL
MODEL 6
REMARK VINA RESULT:      -8.1      2.578      3.635
REMARK  Name = 
REMARK  7 active torsions:
REMARK  status: ('A' for Active; 'I' for Inactive)
REMARK    1  A    between atoms: C_1  and  N_2
REMARK    2  A    between atoms: C_6  and  C_7
REMARK    3  A    between atoms: C_7  and  C_8
REMARK    4  A    between atoms: C_8  and  C_9
REMARK    5  A    between atoms: C_13  and  N_14
REMARK    6  A    between atoms: C_17  and  C_18
REMARK    7  A    between atoms: C_19  and  C_20
REMARK                            x       y       z     vdW  Elec       q    Type
REMARK                         _______ _______ _______ _____ _____    ______ ____
ROOT
ATOM      1  C   UNL     1      -0.124  10.634  20.485  0.00  0.00    +0.000 A 
ATOM      2  C   UNL     1      -0.508  10.510  21.826  0.00  0.00    +0.000 A 
ATOM      3  C   UNL     1      -0.107   9.406  22.572  0.00  0.00    +0.000 A 
ATOM      4  C   UNL     1       0.691   8.407  21.991  0.00  0.00    +0.000 A 
ATOM      5  C   UNL     1       1.155   8.510  20.680  0.00  0.00    +0.000 A 
ATOM      6  C   UNL     1       0.738   9.633  19.971  0.00  0.00    +0.000 A 
ENDROOT
BRANCH   5   7
ATOM      7  N   UNL     1       1.948   7.557  20.070  0.00  0.00    +0.000 N 
ATOM      8  C   UNL     1       2.551   7.786  18.757  0.00  0.00    +0.000 C 
ATOM      9  C   UNL     1       2.055   6.762  17.741  0.00  0.00    +0.000 C 
ATOM     10  C   UNL     1       2.444   5.359  18.194  0.00  0.00    +0.000 C 
ATOM     11  C   UNL     1       1.829   5.132  19.598  0.00  0.00    +0.000 C 
ATOM     12  C   UNL     1       2.080   6.225  20.655  0.00  0.00    +0.000 C 
BRANCH  10  13
ATOM     13  C   UNL     1       4.089   5.030  17.866  0.00  0.00    +0.000 C 
ATOM     14  C   UNL     1       4.590   4.525  16.688  0.00  0.00    +0.000 C 
ATOM     15  C   UNL     1       4.041   3.226  17.176  0.00  0.00    +0.000 C 
ATOM     16  C   UNL     1       4.571   3.725  18.326  0.00  0.00    +0.000 C 
BRANCH  14  17
ATOM     17  C   UNL     1       5.694   4.598  15.587  0.00  0.00    +0.000 C 
ATOM     18  F   UNL     1       5.755   5.869  15.088  0.00  0.00    +0.000 F 
ATOM     19  F   UNL     1       6.937   4.278  16.027  0.00  0.00    +0.000 F 
ATOM     20  F   UNL     1       5.458   3.812  14.500  0.00  0.00    +0.000 F 
ENDBRANCH  14  17
ENDBRANCH  10  13
ENDBRANCH   5   7
BRANCH   1  21
ATOM     21  C   UNL     1      -0.646  11.810  19.551  0.00  0.00    +0.000 C 
ATOM     22  C   UNL     1      -1.412  11.417  18.280  0.00  0.00    +0.000 C 
ATOM     23  O   UNL     1      -2.641  11.990  18.791  0.00  0.00    +0.000 OA
ATOM     24  C   UNL     1      -1.987  12.417  20.005  0.00  0.00    +0.000 C 
BRANCH  21  25
ATOM     25  C   UNL     1       0.476  12.815  19.283  0.00  0.00    +0.000 C 
BRANCH  25  31
ATOM     26  C   UNL     1       0.185  16.261  19.620  0.00  0.00    +0.000 C 
ATOM     27  N   UNL     1       0.826  15.221  20.389  0.00  0.00    +0.000 N 
ATOM     28  C   UNL     1       1.506  15.554  21.528  0.00  0.00    +0.000 A 
ATOM     29  N   UNL     1       2.046  14.498  22.072  0.00  0.00    +0.000 NA
ATOM     30  N   UNL     1       1.717  13.435  21.285  0.00  0.00    +0.000 NA
ATOM     31  C   UNL     1       0.976  13.839  20.270  0.00  0.00    +0.000 A 
ENDBRANCH  25  31
ENDBRANCH  21  25
ENDBRANCH   1  21
TORSDOF 6
ENDMDL
MODEL 7
REMARK VINA RESULT:      -8.1      5.550      9.711
REMARK  Name = 
REMARK  7 active torsions:
REMARK  status: ('A' for Active; 'I' for Inactive)
REMARK    1  A    between atoms: C_1  and  N_2
REMARK    2  A    between atoms: C_6  and  C_7
REMARK    3  A    between atoms: C_7  and  C_8
REMARK    4  A    between atoms: C_8  and  C_9
REMARK    5  A    between atoms: C_13  and  N_14
REMARK    6  A    between atoms: C_17  and  C_18
REMARK    7  A    between atoms: C_19  and  C_20
REMARK                            x       y       z     vdW  Elec       q    Type
REMARK                         _______ _______ _______ _____ _____    ______ ____
ROOT
ATOM      1  C   UNL     1       4.414   5.158  17.600  0.00  0.00    +0.000 A 
ATOM      2  C   UNL     1       3.690   4.023  17.984  0.00  0.00    +0.000 A 
ATOM      3  C   UNL     1       2.525   4.153  18.734  0.00  0.00    +0.000 A 
ATOM      4  C   UNL     1       2.060   5.424  19.109  0.00  0.00    +0.000 A 
ATOM      5  C   UNL     1       2.705   6.591  18.700  0.00  0.00    +0.000 A 
ATOM      6  C   UNL     1       3.862   6.417  17.945  0.00  0.00    +0.000 A 
ENDROOT
BRANCH   5   7
ATOM      7  N   UNL     1       2.280   7.861  19.038  0.00  0.00    +0.000 N 
ATOM      8  C   UNL     1       1.759   8.167  20.370  0.00  0.00    +0.000 C 
ATOM      9  C   UNL     1       0.314   8.650  20.297  0.00  0.00    +0.000 C 
ATOM     10  C   UNL     1       0.241   9.925  19.464  0.00  0.00    +0.000 C 
ATOM     11  C   UNL     1       0.821   9.604  18.062  0.00  0.00    +0.000 C 
ATOM     12  C   UNL     1       2.193   8.904  18.020  0.00  0.00    +0.000 C 
BRANCH  10  13
ATOM     13  C   UNL     1       0.750  11.287  20.360  0.00  0.00    +0.000 C 
ATOM     14  C   UNL     1      -0.062  12.299  20.818  0.00  0.00    +0.000 C 
ATOM     15  C   UNL     1      -0.047  12.762  19.399  0.00  0.00    +0.000 C 
ATOM     16  C   UNL     1       1.257  12.408  19.564  0.00  0.00    +0.000 C 
BRANCH  14  17
ATOM     17  C   UNL     1      -0.448  13.249  21.996  0.00  0.00    +0.000 C 
ATOM     18  F   UNL     1       0.617  14.049  22.302  0.00  0.00    +0.000 F 
ATOM     19  F   UNL     1      -1.501  14.062  21.730  0.00  0.00    +0.000 F 
ATOM     20  F   UNL     1      -0.743  12.608  23.162  0.00  0.00    +0.000 F 
ENDBRANCH  14  17
ENDBRANCH  10  13
ENDBRANCH   5   7
BRANCH   1  21
ATOM     21  C   UNL     1       5.811   5.066  16.845  0.00  0.00    +0.000 C 
ATOM     22  C   UNL     1       6.677   6.333  16.805  0.00  0.00    +0.000 C 
ATOM     23  O   UNL     1       7.690   5.719  17.641  0.00  0.00    +0.000 OA
ATOM     24  C   UNL     1       6.946   4.482  17.705  0.00  0.00    +0.000 C 
BRANCH  21  25
ATOM     25  C   UNL     1       5.630   4.425  15.467  0.00  0.00    +0.000 C 
BRANCH  25  31
ATOM     26  C   UNL     1       5.800   3.181  12.227  0.00  0.00    +0.000 C 
ATOM     27  N   UNL     1       6.566   4.144  12.981  0.00  0.00    +0.000 N 
ATOM     28  C   UNL     1       7.627   4.769  12.386  0.00  0.00    +0.000 A 
ATOM     29  N   UNL     1       8.220   5.577  13.222  0.00  0.00    +0.000 NA
ATOM     30  N   UNL     1       7.540   5.495  14.401  0.00  0.00    +0.000 NA
ATOM     31  C   UNL     1       6.534   4.648  14.283  0.00  0.00    +0.000 A 
ENDBRANCH  25  31
ENDBRANCH  21  25
ENDBRANCH   1  21
TORSDOF 6
ENDMDL
MODEL 8
REMARK VINA RESULT:      -8.1      2.988      4.461
REMARK  Name = 
REMARK  7 active torsions:
REMARK  status: ('A' for Active; 'I' for Inactive)
REMARK    1  A    between atoms: C_1  and  N_2
REMARK    2  A    between atoms: C_6  and  C_7
REMARK    3  A    between atoms: C_7  and  C_8
REMARK    4  A    between atoms: C_8  and  C_9
REMARK    5  A    between atoms: C_13  and  N_14
REMARK    6  A    between atoms: C_17  and  C_18
REMARK    7  A    between atoms: C_19  and  C_20
REMARK                            x       y       z     vdW  Elec       q    Type
REMARK                         _______ _______ _______ _____ _____    ______ ____
ROOT
ATOM      1  C   UNL     1      -0.905  11.348  20.214  0.00  0.00    +0.000 A 
ATOM      2  C   UNL     1      -1.649  11.462  19.034  0.00  0.00    +0.000 A 
ATOM      3  C   UNL     1      -1.325  10.689  17.923  0.00  0.00    +0.000 A 
ATOM      4  C   UNL     1      -0.255   9.782  17.974  0.00  0.00    +0.000 A 
ATOM      5  C   UNL     1       0.478   9.580  19.144  0.00  0.00    +0.000 A 
ATOM      6  C   UNL     1       0.119  10.368  20.234  0.00  0.00    +0.000 A 
ENDROOT
BRANCH   5   7
ATOM      7  N   UNL     1       1.534   8.694  19.244  0.00  0.00    +0.000 N 
ATOM      8  C   UNL     1       2.389   8.387  18.098  0.00  0.00    +0.000 C 
ATOM      9  C   UNL     1       2.319   6.905  17.743  0.00  0.00    +0.000 C 
ATOM     10  C   UNL     1       2.804   6.071  18.924  0.00  0.00    +0.000 C 
ATOM     11  C   UNL     1       1.914   6.422  20.144  0.00  0.00    +0.000 C 
ATOM     12  C   UNL     1       1.730   7.917  20.465  0.00  0.00    +0.000 C 
BRANCH  10  13
ATOM     13  C   UNL     1       4.509   6.063  19.024  0.00  0.00    +0.000 C 
ATOM     14  C   UNL     1       5.377   5.853  17.977  0.00  0.00    +0.000 C 
ATOM     15  C   UNL     1       4.990   4.419  18.129  0.00  0.00    +0.000 C 
ATOM     16  C   UNL     1       5.108   4.789  19.433  0.00  0.00    +0.000 C 
BRANCH  14  17
ATOM     17  C   UNL     1       6.684   6.285  17.241  0.00  0.00    +0.000 C 
ATOM     18  F   UNL     1       6.808   7.645  17.295  0.00  0.00    +0.000 F 
ATOM     19  F   UNL     1       7.817   5.756  17.768  0.00  0.00    +0.000 F 
ATOM     20  F   UNL     1       6.706   5.990  15.911  0.00  0.00    +0.000 F 
ENDBRANCH  14  17
ENDBRANCH  10  13
ENDBRANCH   5   7
BRANCH   1  21
ATOM     21  C   UNL     1      -1.153  12.285  21.475  0.00  0.00    +0.000 C 
ATOM     22  C   UNL     1      -2.588  12.382  22.012  0.00  0.00    +0.000 C 
ATOM     23  O   UNL     1      -2.218  11.717  23.245  0.00  0.00    +0.000 OA
ATOM     24  C   UNL     1      -0.841  11.610  22.823  0.00  0.00    +0.000 C 
BRANCH  21  25
ATOM     25  C   UNL     1      -0.505  13.654  21.256  0.00  0.00    +0.000 C 
BRANCH  25  31
ATOM     26  C   UNL     1       2.200  13.052  19.159  0.00  0.00    +0.000 C 
ATOM     27  N   UNL     1       2.039  13.691  20.443  0.00  0.00    +0.000 N 
ATOM     28  C   UNL     1       3.136  14.212  21.073  0.00  0.00    +0.000 A 
ATOM     29  N   UNL     1       2.810  14.718  22.231  0.00  0.00    +0.000 NA
ATOM     30  N   UNL     1       1.468  14.538  22.379  0.00  0.00    +0.000 NA
ATOM     31  C   UNL     1       0.975  13.930  21.314  0.00  0.00    +0.000 A 
ENDBRANCH  25  31
ENDBRANCH  21  25
ENDBRANCH   1  21
TORSDOF 6
ENDMDL
MODEL 9
REMARK VINA RESULT:      -8.1      5.786      9.842
REMARK  Name = 
REMARK  7 active torsions:
REMARK  status: ('A' for Active; 'I' for Inactive)
REMARK    1  A    between atoms: C_1  and  N_2
REMARK    2  A    between atoms: C_6  and  C_7
REMARK    3  A    between atoms: C_7  and  C_8
REMARK    4  A    between atoms: C_8  and  C_9
REMARK    5  A    between atoms: C_13  and  N_14
REMARK    6  A    between atoms: C_17  and  C_18
REMARK    7  A    between atoms: C_19  and  C_20
REMARK                            x       y       z     vdW  Elec       q    Type
REMARK                         _______ _______ _______ _____ _____    ______ ____
ROOT
ATOM      1  C   UNL     1       2.143   7.743  19.006  0.00  0.00    +0.000 A 
ATOM      2  C   UNL     1       2.657   8.526  17.965  0.00  0.00    +0.000 A 
ATOM      3  C   UNL     1       2.195   9.824  17.769  0.00  0.00    +0.000 A 
ATOM      4  C   UNL     1       1.214  10.366  18.615  0.00  0.00    +0.000 A 
ATOM      5  C   UNL     1       0.715   9.655  19.706  0.00  0.00    +0.000 A 
ATOM      6  C   UNL     1       1.208   8.363  19.872  0.00  0.00    +0.000 A 
ENDROOT
BRANCH   5   7
ATOM      7  N   UNL     1      -0.244  10.149  20.570  0.00  0.00    +0.000 N 
ATOM      8  C   UNL     1      -0.872  11.452  20.353  0.00  0.00    +0.000 C 
ATOM      9  C   UNL     1      -0.592  12.396  21.518  0.00  0.00    +0.000 C 
ATOM     10  C   UNL     1      -1.164  11.810  22.804  0.00  0.00    +0.000 C 
ATOM     11  C   UNL     1      -0.518  10.417  23.014  0.00  0.00    +0.000 C 
ATOM     12  C   UNL     1      -0.545   9.449  21.816  0.00  0.00    +0.000 C 
BRANCH  10  13
ATOM     13  C   UNL     1      -2.854  12.043  22.898  0.00  0.00    +0.000 C 
ATOM     14  C   UNL     1      -3.532  13.181  22.525  0.00  0.00    +0.000 C 
ATOM     15  C   UNL     1      -3.008  13.743  23.805  0.00  0.00    +0.000 C 
ATOM     16  C   UNL     1      -3.354  12.488  24.202  0.00  0.00    +0.000 C 
BRANCH  14  17
ATOM     17  C   UNL     1      -4.762  13.802  21.790  0.00  0.00    +0.000 C 
ATOM     18  F   UNL     1      -5.209  14.887  22.489  0.00  0.00    +0.000 F 
ATOM     19  F   UNL     1      -4.499  14.217  20.525  0.00  0.00    +0.000 F 
ATOM     20  F   UNL     1      -5.842  12.977  21.705  0.00  0.00    +0.000 F 
ENDBRANCH  14  17
ENDBRANCH  10  13
ENDBRANCH   5   7
BRANCH   1  21
ATOM     21  C   UNL     1       2.546   6.218  19.208  0.00  0.00    +0.000 C 
ATOM     22  C   UNL     1       2.626   5.337  17.954  0.00  0.00    +0.000 C 
ATOM     23  O   UNL     1       4.060   5.184  18.100  0.00  0.00    +0.000 OA
ATOM     24  C   UNL     1       4.065   5.983  19.303  0.00  0.00    +0.000 C 
BRANCH  21  25
ATOM     25  C   UNL     1       1.709   5.590  20.325  0.00  0.00    +0.000 C 
BRANCH  25  31
ATOM     26  C   UNL     1       0.775   2.511  19.012  0.00  0.00    +0.000 C 
ATOM     27  N   UNL     1       1.441   2.935  20.221  0.00  0.00    +0.000 N 
ATOM     28  C   UNL     1       1.836   1.994  21.132  0.00  0.00    +0.000 A 
ATOM     29  N   UNL     1       2.387   2.557  22.172  0.00  0.00    +0.000 NA
ATOM     30  N   UNL     1       2.366   3.901  21.952  0.00  0.00    +0.000 NA
ATOM     31  C   UNL     1       1.811   4.158  20.782  0.00  0.00    +0.000 A 
ENDBRANCH  25  31
ENDBRANCH  21  25
ENDBRANCH   1  21
TORSDOF 6
ENDMDL
