MODEL 1
REMARK VINA RESULT:      -9.2      0.000      0.000
REMARK  Name = 
REMARK  5 active torsions:
REMARK  status: ('A' for Active; 'I' for Inactive)
REMARK    1  A    between atoms: N_3  and  C_4
REMARK    2  A    between atoms: C_4  and  C_5
REMARK    3  A    between atoms: C_5  and  C_6
REMARK    4  A    between atoms: C_9  and  C_10
REMARK    5  A    between atoms: C_21  and  C_22
REMARK                            x       y       z     vdW  Elec       q    Type
REMARK                         _______ _______ _______ _____ _____    ______ ____
ROOT
ATOM      1  O   UNL     1       7.968   5.246  19.684  0.00  0.00    +0.000 OA
ATOM      2  C   UNL     1       7.882   6.164  18.860  0.00  0.00    +0.000 C 
ATOM      3  N   UNL     1       7.163   6.057  17.715  0.00  0.00    +0.000 N 
ATOM      4  N   UNL     1       8.529   7.320  19.158  0.00  0.00    +0.000 N 
ATOM      5  C   UNL     1       8.569   8.553  18.541  0.00  0.00    +0.000 A 
ATOM      6  C   UNL     1       9.243   9.665  19.116  0.00  0.00    +0.000 A 
ATOM      7  C   UNL     1       8.825  10.753  18.385  0.00  0.00    +0.000 A 
ATOM      8  O   UNL     1       8.117  10.294  17.312  0.00  0.00    +0.000 OA
ATOM      9  N   UNL     1       7.969   8.910  17.402  0.00  0.00    +0.000 NA
ATOM     10  H   UNL     1       7.395   6.756  17.015  0.00  0.00    +0.000 HD
ATOM     11  H   UNL     1       8.988   7.266  20.057  0.00  0.00    +0.000 HD
ENDROOT
BRANCH   7  12
ATOM     12  C   UNL     1       8.876  12.241  18.601  0.00  0.00    +0.000 C 
ATOM     13  C   UNL     1       9.727  12.979  17.562  0.00  0.00    +0.000 C 
ATOM     14  C   UNL     1       9.876  14.454  17.930  0.00  0.00    +0.000 C 
ATOM     15  O   UNL     1      10.423  14.590  19.238  0.00  0.00    +0.000 OA
ATOM     16  C   UNL     1       9.549  14.071  20.235  0.00  0.00    +0.000 C 
ATOM     17  C   UNL     1       9.346  12.577  20.030  0.00  0.00    +0.000 C 
ENDBRANCH   7  12
BRANCH   3  18
ATOM     18  C   UNL     1       6.608   4.783  17.259  0.00  0.00    +0.000 C 
BRANCH  18  19
ATOM     19  C   UNL     1       5.384   4.857  16.341  0.00  0.00    +0.000 C 
ATOM     20  C   UNL     1       5.466   4.215  14.951  0.00  0.00    +0.000 C 
ATOM     21  C   UNL     1       5.415   5.704  15.057  0.00  0.00    +0.000 C 
BRANCH  19  22
ATOM     22  C   UNL     1       3.993   4.915  17.005  0.00  0.00    +0.000 A 
ATOM     23  C   UNL     1       3.181   3.766  17.002  0.00  0.00    +0.000 A 
ATOM     24  C   UNL     1       2.312   3.506  18.063  0.00  0.00    +0.000 A 
ATOM     25  C   UNL     1       2.196   4.420  19.119  0.00  0.00    +0.000 A 
ATOM     26  C   UNL     1       2.789   5.680  18.979  0.00  0.00    +0.000 A 
ATOM     27  C   UNL     1       3.666   5.933  17.918  0.00  0.00    +0.000 A 
BRANCH  25  28
ATOM     28  C   UNL     1       1.569   4.017  20.429  0.00  0.00    +0.000 C 
ATOM     29  F   UNL     1       2.020   2.817  20.906  0.00  0.00    +0.000 F 
ATOM     30  F   UNL     1       1.833   4.918  21.420  0.00  0.00    +0.000 F 
ATOM     31  F   UNL     1       0.215   3.912  20.371  0.00  0.00    +0.000 F 
ENDBRANCH  25  28
ENDBRANCH  19  22
ENDBRANCH  18  19
ENDBRANCH   3  18
TORSDOF 5
ENDMDL
MODEL 2
REMARK VINA RESULT:      -9.0      0.846      1.297
REMARK  Name = 
REMARK  5 active torsions:
REMARK  status: ('A' for Active; 'I' for Inactive)
REMARK    1  A    between atoms: N_3  and  C_4
REMARK    2  A    between atoms: C_4  and  C_5
REMARK    3  A    between atoms: C_5  and  C_6
REMARK    4  A    between atoms: C_9  and  C_10
REMARK    5  A    between atoms: C_21  and  C_22
REMARK                            x       y       z     vdW  Elec       q    Type
REMARK                         _______ _______ _______ _____ _____    ______ ____
ROOT
ATOM      1  O   UNL     1       7.940   5.245  19.870  0.00  0.00    +0.000 OA
ATOM      2  C   UNL     1       7.838   6.110  18.991  0.00  0.00    +0.000 C 
ATOM      3  N   UNL     1       7.074   5.942  17.882  0.00  0.00    +0.000 N 
ATOM      4  N   UNL     1       8.515   7.269  19.189  0.00  0.00    +0.000 N 
ATOM      5  C   UNL     1       8.551   8.459  18.491  0.00  0.00    +0.000 A 
ATOM      6  C   UNL     1       9.264   9.593  18.967  0.00  0.00    +0.000 A 
ATOM      7  C   UNL     1       8.837  10.639  18.182  0.00  0.00    +0.000 A 
ATOM      8  O   UNL     1       8.081  10.125  17.168  0.00  0.00    +0.000 OA
ATOM      9  N   UNL     1       7.914   8.753  17.354  0.00  0.00    +0.000 NA
ATOM     10  H   UNL     1       7.291   6.589  17.130  0.00  0.00    +0.000 HD
ATOM     11  H   UNL     1       9.006   7.265  20.072  0.00  0.00    +0.000 HD
ENDROOT
BRANCH   7  12
ATOM     12  C   UNL     1       8.920  12.137  18.298  0.00  0.00    +0.000 C 
ATOM     13  C   UNL     1       9.106  12.627  19.738  0.00  0.00    +0.000 C 
ATOM     14  C   UNL     1       9.016  14.151  19.809  0.00  0.00    +0.000 C 
ATOM     15  O   UNL     1       7.780  14.604  19.264  0.00  0.00    +0.000 OA
ATOM     16  C   UNL     1       7.676  14.315  17.873  0.00  0.00    +0.000 C 
ATOM     17  C   UNL     1       7.696  12.811  17.646  0.00  0.00    +0.000 C 
ENDBRANCH   7  12
BRANCH   3  18
ATOM     18  C   UNL     1       6.482   4.651  17.531  0.00  0.00    +0.000 C 
BRANCH  18  19
ATOM     19  C   UNL     1       5.393   4.667  16.454  0.00  0.00    +0.000 C 
ATOM     20  C   UNL     1       5.724   4.112  15.063  0.00  0.00    +0.000 C 
ATOM     21  C   UNL     1       5.516   5.583  15.225  0.00  0.00    +0.000 C 
BRANCH  19  22
ATOM     22  C   UNL     1       3.925   4.564  16.918  0.00  0.00    +0.000 A 
ATOM     23  C   UNL     1       3.281   3.312  16.891  0.00  0.00    +0.000 A 
ATOM     24  C   UNL     1       2.310   2.991  17.840  0.00  0.00    +0.000 A 
ATOM     25  C   UNL     1       1.924   3.935  18.800  0.00  0.00    +0.000 A 
ATOM     26  C   UNL     1       2.359   5.257  18.649  0.00  0.00    +0.000 A 
ATOM     27  C   UNL     1       3.338   5.573  17.701  0.00  0.00    +0.000 A 
BRANCH  25  28
ATOM     28  C   UNL     1       1.173   3.519  20.040  0.00  0.00    +0.000 C 
ATOM     29  F   UNL     1       0.027   2.822  19.777  0.00  0.00    +0.000 F 
ATOM     30  F   UNL     1       1.918   2.697  20.836  0.00  0.00    +0.000 F 
ATOM     31  F   UNL     1       0.804   4.565  20.825  0.00  0.00    +0.000 F 
ENDBRANCH  25  28
ENDBRANCH  19  22
ENDBRANCH  18  19
ENDBRANCH   3  18
TORSDOF 5
ENDMDL
MODEL 3
REMARK VINA RESULT:      -8.6      6.039      7.589
REMARK  Name = 
REMARK  5 active torsions:
REMARK  status: ('A' for Active; 'I' for Inactive)
REMARK    1  A    between atoms: N_3  and  C_4
REMARK    2  A    between atoms: C_4  and  C_5
REMARK    3  A    between atoms: C_5  and  C_6
REMARK    4  A    between atoms: C_9  and  C_10
REMARK    5  A    between atoms: C_21  and  C_22
REMARK                            x       y       z     vdW  Elec       q    Type
REMARK                         _______ _______ _______ _____ _____    ______ ____
ROOT
ATOM      1  O   UNL     1       3.191   6.704  19.012  0.00  0.00    +0.000 OA
ATOM      2  C   UNL     1       2.349   7.041  19.854  0.00  0.00    +0.000 C 
ATOM      3  N   UNL     1       2.084   6.304  20.962  0.00  0.00    +0.000 N 
ATOM      4  N   UNL     1       1.701   8.214  19.638  0.00  0.00    +0.000 N 
ATOM      5  C   UNL     1       0.800   8.935  20.395  0.00  0.00    +0.000 A 
ATOM      6  C   UNL     1       0.336  10.219  19.998  0.00  0.00    +0.000 A 
ATOM      7  C   UNL     1      -0.293  10.730  21.109  0.00  0.00    +0.000 A 
ATOM      8  O   UNL     1      -0.386   9.735  22.038  0.00  0.00    +0.000 OA
ATOM      9  N   UNL     1       0.288   8.601  21.583  0.00  0.00    +0.000 NA
ATOM     10  H   UNL     1       1.204   6.540  21.412  0.00  0.00    +0.000 HD
ATOM     11  H   UNL     1       2.029   8.670  18.798  0.00  0.00    +0.000 HD
ENDROOT
BRANCH   7  12
ATOM     12  C   UNL     1      -0.739  12.108  21.519  0.00  0.00    +0.000 C 
ATOM     13  C   UNL     1       0.364  13.165  21.402  0.00  0.00    +0.000 C 
ATOM     14  C   UNL     1      -0.098  14.499  21.986  0.00  0.00    +0.000 C 
ATOM     15  O   UNL     1      -0.516  14.334  23.339  0.00  0.00    +0.000 OA
ATOM     16  C   UNL     1      -1.662  13.495  23.441  0.00  0.00    +0.000 C 
ATOM     17  C   UNL     1      -1.336  12.096  22.940  0.00  0.00    +0.000 C 
ENDBRANCH   7  12
BRANCH   3  18
ATOM     18  C   UNL     1       2.612   4.952  21.144  0.00  0.00    +0.000 C 
BRANCH  18  19
ATOM     19  C   UNL     1       2.081   3.875  20.194  0.00  0.00    +0.000 C 
ATOM     20  C   UNL     1       0.565   3.736  20.011  0.00  0.00    +0.000 C 
ATOM     21  C   UNL     1       1.306   2.661  20.736  0.00  0.00    +0.000 C 
BRANCH  19  22
ATOM     22  C   UNL     1       2.970   3.471  19.000  0.00  0.00    +0.000 A 
ATOM     23  C   UNL     1       2.420   3.461  17.705  0.00  0.00    +0.000 A 
ATOM     24  C   UNL     1       3.207   3.773  16.595  0.00  0.00    +0.000 A 
ATOM     25  C   UNL     1       4.572   4.045  16.753  0.00  0.00    +0.000 A 
ATOM     26  C   UNL     1       5.166   3.780  17.993  0.00  0.00    +0.000 A 
ATOM     27  C   UNL     1       4.372   3.475  19.104  0.00  0.00    +0.000 A 
BRANCH  25  28
ATOM     28  C   UNL     1       5.358   4.732  15.666  0.00  0.00    +0.000 C 
ATOM     29  F   UNL     1       6.713   4.649  15.835  0.00  0.00    +0.000 F 
ATOM     30  F   UNL     1       5.117   4.186  14.438  0.00  0.00    +0.000 F 
ATOM     31  F   UNL     1       5.076   6.055  15.549  0.00  0.00    +0.000 F 
ENDBRANCH  25  28
ENDBRANCH  19  22
ENDBRANCH  18  19
ENDBRANCH   3  18
TORSDOF 5
ENDMDL
MODEL 4
REMARK VINA RESULT:      -8.5      1.054      1.262
REMARK  Name = 
REMARK  5 active torsions:
REMARK  status: ('A' for Active; 'I' for Inactive)
REMARK    1  A    between atoms: N_3  and  C_4
REMARK    2  A    between atoms: C_4  and  C_5
REMARK    3  A    between atoms: C_5  and  C_6
REMARK    4  A    between atoms: C_9  and  C_10
REMARK    5  A    between atoms: C_21  and  C_22
REMARK                            x       y       z     vdW  Elec       q    Type
REMARK                         _______ _______ _______ _____ _____    ______ ____
ROOT
ATOM      1  O   UNL     1       8.028   5.292  19.659  0.00  0.00    +0.000 OA
ATOM      2  C   UNL     1       7.987   6.214  18.835  0.00  0.00    +0.000 C 
ATOM      3  N   UNL     1       7.371   6.095  17.632  0.00  0.00    +0.000 N 
ATOM      4  N   UNL     1       8.573   7.385  19.193  0.00  0.00    +0.000 N 
ATOM      5  C   UNL     1       8.630   8.623  18.588  0.00  0.00    +0.000 A 
ATOM      6  C   UNL     1       9.221   9.749  19.223  0.00  0.00    +0.000 A 
ATOM      7  C   UNL     1       8.836  10.830  18.465  0.00  0.00    +0.000 A 
ATOM      8  O   UNL     1       8.235  10.360  17.333  0.00  0.00    +0.000 OA
ATOM      9  N   UNL     1       8.119   8.972  17.403  0.00  0.00    +0.000 NA
ATOM     10  H   UNL     1       7.642   6.806  16.958  0.00  0.00    +0.000 HD
ATOM     11  H   UNL     1       8.955   7.337  20.128  0.00  0.00    +0.000 HD
ENDROOT
BRANCH   7  12
ATOM     12  C   UNL     1       8.826  12.318  18.692  0.00  0.00    +0.000 C 
ATOM     13  C   UNL     1       8.008  13.088  17.649  0.00  0.00    +0.000 C 
ATOM     14  C   UNL     1       8.173  14.595  17.834  0.00  0.00    +0.000 C 
ATOM     15  O   UNL     1       9.550  14.957  17.782  0.00  0.00    +0.000 OA
ATOM     16  C   UNL     1      10.288  14.393  18.861  0.00  0.00    +0.000 C 
ATOM     17  C   UNL     1      10.261  12.874  18.779  0.00  0.00    +0.000 C 
ENDBRANCH   7  12
BRANCH   3  18
ATOM     18  C   UNL     1       6.894   4.809  17.124  0.00  0.00    +0.000 C 
BRANCH  18  19
ATOM     19  C   UNL     1       5.423   4.742  16.703  0.00  0.00    +0.000 C 
ATOM     20  C   UNL     1       5.074   4.887  15.217  0.00  0.00    +0.000 C 
ATOM     21  C   UNL     1       4.703   5.987  16.157  0.00  0.00    +0.000 C 
BRANCH  19  22
ATOM     22  C   UNL     1       4.469   3.891  17.567  0.00  0.00    +0.000 A 
ATOM     23  C   UNL     1       4.881   3.482  18.849  0.00  0.00    +0.000 A 
ATOM     24  C   UNL     1       3.955   3.339  19.883  0.00  0.00    +0.000 A 
ATOM     25  C   UNL     1       2.590   3.546  19.640  0.00  0.00    +0.000 A 
ATOM     26  C   UNL     1       2.161   3.674  18.314  0.00  0.00    +0.000 A 
ATOM     27  C   UNL     1       3.094   3.826  17.282  0.00  0.00    +0.000 A 
BRANCH  25  28
ATOM     28  C   UNL     1       1.624   3.762  20.775  0.00  0.00    +0.000 C 
ATOM     29  F   UNL     1       0.827   2.680  21.030  0.00  0.00    +0.000 F 
ATOM     30  F   UNL     1       2.267   4.017  21.953  0.00  0.00    +0.000 F 
ATOM     31  F   UNL     1       0.781   4.809  20.577  0.00  0.00    +0.000 F 
ENDBRANCH  25  28
ENDBRANCH  19  22
ENDBRANCH  18  19
ENDBRANCH   3  18
TORSDOF 5
ENDMDL
MODEL 5
REMARK VINA RESULT:      -8.5      4.919      6.687
REMARK  Name = 
REMARK  5 active torsions:
REMARK  status: ('A' for Active; 'I' for Inactive)
REMARK    1  A    between atoms: N_3  and  C_4
REMARK    2  A    between atoms: C_4  and  C_5
REMARK    3  A    between atoms: C_5  and  C_6
REMARK    4  A    between atoms: C_9  and  C_10
REMARK    5  A    between atoms: C_21  and  C_22
REMARK                            x       y       z     vdW  Elec       q    Type
REMARK                         _______ _______ _______ _____ _____    ______ ____
ROOT
ATOM      1  O   UNL     1       3.855   5.613  19.861  0.00  0.00    +0.000 OA
ATOM      2  C   UNL     1       3.622   6.543  19.080  0.00  0.00    +0.000 C 
ATOM      3  N   UNL     1       4.260   6.678  17.890  0.00  0.00    +0.000 N 
ATOM      4  N   UNL     1       2.667   7.433  19.452  0.00  0.00    +0.000 N 
ATOM      5  C   UNL     1       2.089   8.505  18.805  0.00  0.00    +0.000 A 
ATOM      6  C   UNL     1       1.007   9.235  19.368  0.00  0.00    +0.000 A 
ATOM      7  C   UNL     1       0.524  10.010  18.339  0.00  0.00    +0.000 A 
ATOM      8  O   UNL     1       1.393   9.910  17.291  0.00  0.00    +0.000 OA
ATOM      9  N   UNL     1       2.385   8.976  17.590  0.00  0.00    +0.000 NA
ATOM     10  H   UNL     1       4.182   7.606  17.484  0.00  0.00    +0.000 HD
ATOM     11  H   UNL     1       2.254   7.184  20.339  0.00  0.00    +0.000 HD
ENDROOT
BRANCH   7  12
ATOM     12  C   UNL     1      -0.752  10.776  18.115  0.00  0.00    +0.000 C 
ATOM     13  C   UNL     1      -1.413  11.251  19.413  0.00  0.00    +0.000 C 
ATOM     14  C   UNL     1      -2.780  11.873  19.131  0.00  0.00    +0.000 C 
ATOM     15  O   UNL     1      -3.613  10.951  18.433  0.00  0.00    +0.000 OA
ATOM     16  C   UNL     1      -3.098  10.644  17.141  0.00  0.00    +0.000 C 
ATOM     17  C   UNL     1      -1.745   9.961  17.263  0.00  0.00    +0.000 C 
ENDBRANCH   7  12
BRANCH   3  18
ATOM     18  C   UNL     1       5.420   5.862  17.530  0.00  0.00    +0.000 C 
BRANCH  18  19
ATOM     19  C   UNL     1       5.140   4.594  16.717  0.00  0.00    +0.000 C 
ATOM     20  C   UNL     1       6.287   3.964  15.918  0.00  0.00    +0.000 C 
ATOM     21  C   UNL     1       5.168   4.624  15.180  0.00  0.00    +0.000 C 
BRANCH  19  22
ATOM     22  C   UNL     1       4.037   3.645  17.229  0.00  0.00    +0.000 A 
ATOM     23  C   UNL     1       4.322   2.769  18.292  0.00  0.00    +0.000 A 
ATOM     24  C   UNL     1       3.331   2.414  19.208  0.00  0.00    +0.000 A 
ATOM     25  C   UNL     1       2.021   2.884  19.046  0.00  0.00    +0.000 A 
ATOM     26  C   UNL     1       1.684   3.518  17.844  0.00  0.00    +0.000 A 
ATOM     27  C   UNL     1       2.683   3.878  16.932  0.00  0.00    +0.000 A 
BRANCH  25  28
ATOM     28  C   UNL     1       1.031   2.835  20.181  0.00  0.00    +0.000 C 
ATOM     29  F   UNL     1       1.414   2.013  21.205  0.00  0.00    +0.000 F 
ATOM     30  F   UNL     1       0.851   4.060  20.755  0.00  0.00    +0.000 F 
ATOM     31  F   UNL     1      -0.204   2.413  19.805  0.00  0.00    +0.000 F 
ENDBRANCH  25  28
ENDBRANCH  19  22
ENDBRANCH  18  19
ENDBRANCH   3  18
TORSDOF 5
ENDMDL
MODEL 6
REMARK VINA RESULT:      -8.4      5.332      7.587
REMARK  Name = 
REMARK  5 active torsions:
REMARK  status: ('A' for Active; 'I' for Inactive)
REMARK    1  A    between atoms: N_3  and  C_4
REMARK    2  A    between atoms: C_4  and  C_5
REMARK    3  A    between atoms: C_5  and  C_6
REMARK    4  A    between atoms: C_9  and  C_10
REMARK    5  A    between atoms: C_21  and  C_22
REMARK                            x       y       z     vdW  Elec       q    Type
REMARK                         _______ _______ _______ _____ _____    ______ ____
ROOT
ATOM      1  O   UNL     1       2.167   4.547  21.725  0.00  0.00    +0.000 OA
ATOM      2  C   UNL     1       2.292   5.408  20.845  0.00  0.00    +0.000 C 
ATOM      3  N   UNL     1       2.899   5.159  19.658  0.00  0.00    +0.000 N 
ATOM      4  N   UNL     1       1.769   6.633  21.105  0.00  0.00    +0.000 N 
ATOM      5  C   UNL     1       1.635   7.772  20.339  0.00  0.00    +0.000 A 
ATOM      6  C   UNL     1       0.936   8.919  20.805  0.00  0.00    +0.000 A 
ATOM      7  C   UNL     1       0.764   9.709  19.692  0.00  0.00    +0.000 A 
ATOM      8  O   UNL     1       1.497   9.171  18.674  0.00  0.00    +0.000 OA
ATOM      9  N   UNL     1       2.056   7.961  19.085  0.00  0.00    +0.000 NA
ATOM     10  H   UNL     1       3.177   5.996  19.153  0.00  0.00    +0.000 HD
ATOM     11  H   UNL     1       1.316   6.658  22.008  0.00  0.00    +0.000 HD
ENDROOT
BRANCH   7  12
ATOM     12  C   UNL     1      -0.120  10.883  19.368  0.00  0.00    +0.000 C 
ATOM     13  C   UNL     1      -0.810  11.484  20.597  0.00  0.00    +0.000 C 
ATOM     14  C   UNL     1      -1.815  12.558  20.186  0.00  0.00    +0.000 C 
ATOM     15  O   UNL     1      -2.766  12.026  19.267  0.00  0.00    +0.000 OA
ATOM     16  C   UNL     1      -2.156  11.633  18.041  0.00  0.00    +0.000 C 
ATOM     17  C   UNL     1      -1.155  10.515  18.286  0.00  0.00    +0.000 C 
ENDBRANCH   7  12
BRANCH   3  18
ATOM     18  C   UNL     1       3.640   3.924  19.404  0.00  0.00    +0.000 C 
BRANCH  18  19
ATOM     19  C   UNL     1       4.095   3.681  17.961  0.00  0.00    +0.000 C 
ATOM     20  C   UNL     1       3.039   3.333  16.905  0.00  0.00    +0.000 C 
ATOM     21  C   UNL     1       4.007   2.278  17.335  0.00  0.00    +0.000 C 
BRANCH  19  22
ATOM     22  C   UNL     1       5.356   4.422  17.474  0.00  0.00    +0.000 A 
ATOM     23  C   UNL     1       5.226   5.440  16.510  0.00  0.00    +0.000 A 
ATOM     24  C   UNL     1       6.087   6.538  16.515  0.00  0.00    +0.000 A 
ATOM     25  C   UNL     1       7.131   6.612  17.447  0.00  0.00    +0.000 A 
ATOM     26  C   UNL     1       7.424   5.476  18.211  0.00  0.00    +0.000 A 
ATOM     27  C   UNL     1       6.554   4.381  18.209  0.00  0.00    +0.000 A 
BRANCH  25  28
ATOM     28  C   UNL     1       7.834   7.916  17.724  0.00  0.00    +0.000 C 
ATOM     29  F   UNL     1       6.981   8.958  17.965  0.00  0.00    +0.000 F 
ATOM     30  F   UNL     1       8.629   7.842  18.832  0.00  0.00    +0.000 F 
ATOM     31  F   UNL     1       8.643   8.320  16.711  0.00  0.00    +0.000 F 
ENDBRANCH  25  28
ENDBRANCH  19  22
ENDBRANCH  18  19
ENDBRANCH   3  18
TORSDOF 5
ENDMDL
MODEL 7
REMARK VINA RESULT:      -8.4      6.187      8.085
REMARK  Name = 
REMARK  5 active torsions:
REMARK  status: ('A' for Active; 'I' for Inactive)
REMARK    1  A    between atoms: N_3  and  C_4
REMARK    2  A    between atoms: C_4  and  C_5
REMARK    3  A    between atoms: C_5  and  C_6
REMARK    4  A    between atoms: C_9  and  C_10
REMARK    5  A    between atoms: C_21  and  C_22
REMARK                            x       y       z     vdW  Elec       q    Type
REMARK                         _______ _______ _______ _____ _____    ______ ____
ROOT
ATOM      1  O   UNL     1       3.153   6.798  19.104  0.00  0.00    +0.000 OA
ATOM      2  C   UNL     1       2.290   7.088  19.942  0.00  0.00    +0.000 C 
ATOM      3  N   UNL     1       2.043   6.323  21.035  0.00  0.00    +0.000 N 
ATOM      4  N   UNL     1       1.598   8.238  19.738  0.00  0.00    +0.000 N 
ATOM      5  C   UNL     1       0.661   8.909  20.496  0.00  0.00    +0.000 A 
ATOM      6  C   UNL     1       0.150  10.180  20.115  0.00  0.00    +0.000 A 
ATOM      7  C   UNL     1      -0.510  10.648  21.227  0.00  0.00    +0.000 A 
ATOM      8  O   UNL     1      -0.572   9.635  22.140  0.00  0.00    +0.000 OA
ATOM      9  N   UNL     1       0.151   8.537  21.674  0.00  0.00    +0.000 NA
ATOM     10  H   UNL     1       1.150   6.516  21.480  0.00  0.00    +0.000 HD
ATOM     11  H   UNL     1       1.916   8.719  18.909  0.00  0.00    +0.000 HD
ENDROOT
BRANCH   7  12
ATOM     12  C   UNL     1      -1.015  12.000  21.654  0.00  0.00    +0.000 C 
ATOM     13  C   UNL     1      -1.779  11.974  22.982  0.00  0.00    +0.000 C 
ATOM     14  C   UNL     1      -2.406  13.336  23.275  0.00  0.00    +0.000 C 
ATOM     15  O   UNL     1      -3.250  13.739  22.200  0.00  0.00    +0.000 OA
ATOM     16  C   UNL     1      -2.515  13.947  20.998  0.00  0.00    +0.000 C 
ATOM     17  C   UNL     1      -1.869  12.647  20.545  0.00  0.00    +0.000 C 
ENDBRANCH   7  12
BRANCH   3  18
ATOM     18  C   UNL     1       2.623   4.991  21.202  0.00  0.00    +0.000 C 
BRANCH  18  19
ATOM     19  C   UNL     1       2.113   3.898  20.258  0.00  0.00    +0.000 C 
ATOM     20  C   UNL     1       0.600   3.709  20.099  0.00  0.00    +0.000 C 
ATOM     21  C   UNL     1       1.388   2.658  20.809  0.00  0.00    +0.000 C 
BRANCH  19  22
ATOM     22  C   UNL     1       2.996   3.526  19.049  0.00  0.00    +0.000 A 
ATOM     23  C   UNL     1       2.438   3.545  17.757  0.00  0.00    +0.000 A 
ATOM     24  C   UNL     1       3.216   3.886  16.650  0.00  0.00    +0.000 A 
ATOM     25  C   UNL     1       4.581   4.160  16.806  0.00  0.00    +0.000 A 
ATOM     26  C   UNL     1       5.184   3.868  18.035  0.00  0.00    +0.000 A 
ATOM     27  C   UNL     1       4.399   3.534  19.144  0.00  0.00    +0.000 A 
BRANCH  25  28
ATOM     28  C   UNL     1       5.357   4.876  15.730  0.00  0.00    +0.000 C 
ATOM     29  F   UNL     1       5.220   4.315  14.491  0.00  0.00    +0.000 F 
ATOM     30  F   UNL     1       4.949   6.171  15.583  0.00  0.00    +0.000 F 
ATOM     31  F   UNL     1       6.692   4.931  15.972  0.00  0.00    +0.000 F 
ENDBRANCH  25  28
ENDBRANCH  19  22
ENDBRANCH  18  19
ENDBRANCH   3  18
TORSDOF 5
ENDMDL
MODEL 8
REMARK VINA RESULT:      -8.4      4.702      6.181
REMARK  Name = 
REMARK  5 active torsions:
REMARK  status: ('A' for Active; 'I' for Inactive)
REMARK    1  A    between atoms: N_3  and  C_4
REMARK    2  A    between atoms: C_4  and  C_5
REMARK    3  A    between atoms: C_5  and  C_6
REMARK    4  A    between atoms: C_9  and  C_10
REMARK    5  A    between atoms: C_21  and  C_22
REMARK                            x       y       z     vdW  Elec       q    Type
REMARK                         _______ _______ _______ _____ _____    ______ ____
ROOT
ATOM      1  O   UNL     1       4.582   7.655  15.977  0.00  0.00    +0.000 OA
ATOM      2  C   UNL     1       4.066   7.437  17.080  0.00  0.00    +0.000 C 
ATOM      3  N   UNL     1       4.608   6.585  17.986  0.00  0.00    +0.000 N 
ATOM      4  N   UNL     1       2.925   8.112  17.370  0.00  0.00    +0.000 N 
ATOM      5  C   UNL     1       2.155   8.195  18.511  0.00  0.00    +0.000 A 
ATOM      6  C   UNL     1       1.042   9.075  18.610  0.00  0.00    +0.000 A 
ATOM      7  C   UNL     1       0.720   9.094  19.947  0.00  0.00    +0.000 A 
ATOM      8  O   UNL     1       1.452   8.126  20.572  0.00  0.00    +0.000 OA
ATOM      9  N   UNL     1       2.343   7.551  19.666  0.00  0.00    +0.000 NA
ATOM     10  H   UNL     1       3.962   6.290  18.713  0.00  0.00    +0.000 HD
ATOM     11  H   UNL     1       2.664   8.737  16.620  0.00  0.00    +0.000 HD
ENDROOT
BRANCH   7  12
ATOM     12  C   UNL     1      -0.117  10.000  20.809  0.00  0.00    +0.000 C 
ATOM     13  C   UNL     1       0.391  11.445  20.849  0.00  0.00    +0.000 C 
ATOM     14  C   UNL     1      -0.396  12.270  21.865  0.00  0.00    +0.000 C 
ATOM     15  O   UNL     1      -0.335  11.665  23.154  0.00  0.00    +0.000 OA
ATOM     16  C   UNL     1      -0.973  10.392  23.173  0.00  0.00    +0.000 C 
ATOM     17  C   UNL     1      -0.257   9.431  22.236  0.00  0.00    +0.000 C 
ENDBRANCH   7  12
BRANCH   3  18
ATOM     18  C   UNL     1       5.722   5.697  17.653  0.00  0.00    +0.000 C 
BRANCH  18  19
ATOM     19  C   UNL     1       5.369   4.399  16.921  0.00  0.00    +0.000 C 
ATOM     20  C   UNL     1       6.464   3.685  16.118  0.00  0.00    +0.000 C 
ATOM     21  C   UNL     1       5.343   4.346  15.384  0.00  0.00    +0.000 C 
BRANCH  19  22
ATOM     22  C   UNL     1       4.253   3.519  17.520  0.00  0.00    +0.000 A 
ATOM     23  C   UNL     1       4.466   2.887  18.760  0.00  0.00    +0.000 A 
ATOM     24  C   UNL     1       3.406   2.676  19.643  0.00  0.00    +0.000 A 
ATOM     25  C   UNL     1       2.103   3.040  19.279  0.00  0.00    +0.000 A 
ATOM     26  C   UNL     1       1.859   3.405  17.949  0.00  0.00    +0.000 A 
ATOM     27  C   UNL     1       2.925   3.623  17.070  0.00  0.00    +0.000 A 
BRANCH  25  28
ATOM     28  C   UNL     1       1.016   3.171  20.314  0.00  0.00    +0.000 C 
ATOM     29  F   UNL     1       1.321   2.576  21.507  0.00  0.00    +0.000 F 
ATOM     30  F   UNL     1       0.759   4.477  20.622  0.00  0.00    +0.000 F 
ATOM     31  F   UNL     1      -0.171   2.639  19.922  0.00  0.00    +0.000 F 
ENDBRANCH  25  28
ENDBRANCH  19  22
ENDBRANCH  18  19
ENDBRANCH   3  18
TORSDOF 5
ENDMDL
MODEL 9
REMARK VINA RESULT:      -8.4      2.843      3.680
REMARK  Name = 
REMARK  5 active torsions:
REMARK  status: ('A' for Active; 'I' for Inactive)
REMARK    1  A    between atoms: N_3  and  C_4
REMARK    2  A    between atoms: C_4  and  C_5
REMARK    3  A    between atoms: C_5  and  C_6
REMARK    4  A    between atoms: C_9  and  C_10
REMARK    5  A    between atoms: C_21  and  C_22
REMARK                            x       y       z     vdW  Elec       q    Type
REMARK                         _______ _______ _______ _____ _____    ______ ____
ROOT
ATOM      1  O   UNL     1       6.675   4.684  19.184  0.00  0.00    +0.000 OA
ATOM      2  C   UNL     1       6.619   5.764  18.584  0.00  0.00    +0.000 C 
ATOM      3  N   UNL     1       5.542   6.139  17.848  0.00  0.00    +0.000 N 
ATOM      4  N   UNL     1       7.687   6.592  18.709  0.00  0.00    +0.000 N 
ATOM      5  C   UNL     1       7.923   7.881  18.278  0.00  0.00    +0.000 A 
ATOM      6  C   UNL     1       9.100   8.594  18.634  0.00  0.00    +0.000 A 
ATOM      7  C   UNL     1       8.850   9.899  18.279  0.00  0.00    +0.000 A 
ATOM      8  O   UNL     1       7.688   9.926  17.563  0.00  0.00    +0.000 OA
ATOM      9  N   UNL     1       7.113   8.655  17.549  0.00  0.00    +0.000 NA
ATOM     10  H   UNL     1       5.730   6.899  17.200  0.00  0.00    +0.000 HD
ATOM     11  H   UNL     1       8.392   6.198  19.316  0.00  0.00    +0.000 HD
ENDROOT
BRANCH   7  12
ATOM     12  C   UNL     1       9.488  11.219  18.620  0.00  0.00    +0.000 C 
ATOM     13  C   UNL     1      10.698  11.555  17.743  0.00  0.00    +0.000 C 
ATOM     14  C   UNL     1      11.398  12.817  18.244  0.00  0.00    +0.000 C 
ATOM     15  O   UNL     1      11.774  12.671  19.611  0.00  0.00    +0.000 OA
ATOM     16  C   UNL     1      10.640  12.542  20.462  0.00  0.00    +0.000 C 
ATOM     17  C   UNL     1       9.861  11.282  20.114  0.00  0.00    +0.000 C 
ENDBRANCH   7  12
BRANCH   3  18
ATOM     18  C   UNL     1       4.455   5.214  17.529  0.00  0.00    +0.000 C 
BRANCH  18  19
ATOM     19  C   UNL     1       3.098   5.501  18.178  0.00  0.00    +0.000 C 
ATOM     20  C   UNL     1       2.413   4.386  18.977  0.00  0.00    +0.000 C 
ATOM     21  C   UNL     1       1.822   4.807  17.671  0.00  0.00    +0.000 C 
BRANCH  19  22
ATOM     22  C   UNL     1       2.801   6.953  18.605  0.00  0.00    +0.000 A 
ATOM     23  C   UNL     1       2.709   7.955  17.620  0.00  0.00    +0.000 A 
ATOM     24  C   UNL     1       1.844   9.037  17.784  0.00  0.00    +0.000 A 
ATOM     25  C   UNL     1       1.095   9.168  18.961  0.00  0.00    +0.000 A 
ATOM     26  C   UNL     1       1.397   8.330  20.041  0.00  0.00    +0.000 A 
ATOM     27  C   UNL     1       2.260   7.242  19.870  0.00  0.00    +0.000 A 
BRANCH  25  28
ATOM     28  C   UNL     1      -0.096  10.089  19.025  0.00  0.00    +0.000 C 
ATOM     29  F   UNL     1      -0.979   9.915  17.996  0.00  0.00    +0.000 F 
ATOM     30  F   UNL     1      -0.830   9.898  20.161  0.00  0.00    +0.000 F 
ATOM     31  F   UNL     1       0.237  11.406  19.013  0.00  0.00    +0.000 F 
ENDBRANCH  25  28
ENDBRANCH  19  22
ENDBRANCH  18  19
ENDBRANCH   3  18
TORSDOF 5
ENDMDL
