MODEL 1
REMARK VINA RESULT:      -8.8      0.000      0.000
REMARK  Name = 
REMARK  5 active torsions:
REMARK  status: ('A' for Active; 'I' for Inactive)
REMARK    1  A    between atoms: C_2  and  C_20
REMARK    2  A    between atoms: N_3  and  C_4
REMARK    3  A    between atoms: C_7  and  S_8
REMARK    4  A    between atoms: S_8  and  N_11
REMARK    5  A    between atoms: C_24  and  N_25
REMARK                            x       y       z     vdW  Elec       q    Type
REMARK                         _______ _______ _______ _____ _____    ______ ____
ROOT
ATOM      1  C   UNL     1       1.594   8.257  19.836  0.00  0.00    +0.000 A 
ATOM      2  C   UNL     1       2.177   8.060  18.583  0.00  0.00    +0.000 A 
ATOM      3  C   UNL     1       2.586   6.787  18.180  0.00  0.00    +0.000 A 
ATOM      4  C   UNL     1       2.428   5.703  19.044  0.00  0.00    +0.000 A 
ATOM      5  C   UNL     1       1.867   5.889  20.311  0.00  0.00    +0.000 A 
ATOM      6  C   UNL     1       1.473   7.170  20.713  0.00  0.00    +0.000 A 
ENDROOT
BRANCH   1   9
ATOM      7  O   UNL     1      -0.337  10.035  18.476  0.00  0.00    +0.000 OA
ATOM      8  C   UNL     1       0.158  10.274  19.571  0.00  0.00    +0.000 C 
ATOM      9  N   UNL     1       1.072   9.495  20.262  0.00  0.00    +0.000 N 
ATOM     10  H   UNL     1       1.253   9.738  21.227  0.00  0.00    +0.000 HD
BRANCH   8  11
ATOM     11  C   UNL     1      -0.327  11.474  20.308  0.00  0.00    +0.000 A 
ATOM     12  C   UNL     1       0.342  12.689  20.111  0.00  0.00    +0.000 A 
ATOM     13  C   UNL     1      -0.112  13.845  20.737  0.00  0.00    +0.000 A 
ATOM     14  C   UNL     1      -1.246  13.807  21.551  0.00  0.00    +0.000 A 
ATOM     15  C   UNL     1      -1.919  12.590  21.756  0.00  0.00    +0.000 A 
ATOM     16  C   UNL     1      -1.434  11.415  21.158  0.00  0.00    +0.000 A 
BRANCH  15  17
ATOM     17  N   UNL     1      -3.107  12.533  22.521  0.00  0.00    +0.000 N 
ATOM     18  C   UNL     1      -4.377  12.936  22.195  0.00  0.00    +0.000 A 
ATOM     19  N   UNL     1      -5.195  12.625  23.176  0.00  0.00    +0.000 NA
ATOM     20  N   UNL     1      -4.419  12.026  24.132  0.00  0.00    +0.000 NA
ATOM     21  N   UNL     1      -3.152  11.965  23.748  0.00  0.00    +0.000 NA
ENDBRANCH  15  17
ENDBRANCH   8  11
ENDBRANCH   1   9
BRANCH   4  22
ATOM     22  S   UNL     1       2.834   4.062  18.471  0.00  0.00    +0.000 S 
ATOM     23  O   UNL     1       2.815   3.185  19.623  0.00  0.00    +0.000 OA
ATOM     24  O   UNL     1       2.006   3.791  17.315  0.00  0.00    +0.000 OA
BRANCH  22  25
ATOM     25  N   UNL     1       4.458   4.232  17.955  0.00  0.00    +0.000 NA
ATOM     26  C   UNL     1       4.662   4.641  16.549  0.00  0.00    +0.000 C 
ATOM     27  C   UNL     1       5.861   3.926  15.930  0.00  0.00    +0.000 C 
ATOM     28  C   UNL     1       7.198   4.600  16.214  0.00  0.00    +0.000 C 
ATOM     29  C   UNL     1       7.578   4.619  17.687  0.00  0.00    +0.000 C 
ATOM     30  C   UNL     1       6.627   5.459  18.528  0.00  0.00    +0.000 C 
ATOM     31  C   UNL     1       5.396   4.702  19.001  0.00  0.00    +0.000 C 
ENDBRANCH  22  25
ENDBRANCH   4  22
TORSDOF 5
ENDMDL
MODEL 2
REMARK VINA RESULT:      -8.7      3.145     10.698
REMARK  Name = 
REMARK  5 active torsions:
REMARK  status: ('A' for Active; 'I' for Inactive)
REMARK    1  A    between atoms: C_2  and  C_20
REMARK    2  A    between atoms: N_3  and  C_4
REMARK    3  A    between atoms: C_7  and  S_8
REMARK    4  A    between atoms: S_8  and  N_11
REMARK    5  A    between atoms: C_24  and  N_25
REMARK                            x       y       z     vdW  Elec       q    Type
REMARK                         _______ _______ _______ _____ _____    ______ ____
ROOT
ATOM      1  C   UNL     1       1.767   9.823  18.269  0.00  0.00    +0.000 A 
ATOM      2  C   UNL     1       2.417  11.026  17.986  0.00  0.00    +0.000 A 
ATOM      3  C   UNL     1       1.893  12.240  18.435  0.00  0.00    +0.000 A 
ATOM      4  C   UNL     1       0.701  12.255  19.159  0.00  0.00    +0.000 A 
ATOM      5  C   UNL     1       0.027  11.061  19.430  0.00  0.00    +0.000 A 
ATOM      6  C   UNL     1       0.550   9.850  18.963  0.00  0.00    +0.000 A 
ENDROOT
BRANCH   1   9
ATOM      7  O   UNL     1       2.200   7.457  19.987  0.00  0.00    +0.000 OA
ATOM      8  C   UNL     1       2.460   7.489  18.791  0.00  0.00    +0.000 C 
ATOM      9  N   UNL     1       2.294   8.560  17.928  0.00  0.00    +0.000 N 
ATOM     10  H   UNL     1       2.389   8.379  16.938  0.00  0.00    +0.000 HD
BRANCH   8  11
ATOM     11  C   UNL     1       2.915   6.228  18.143  0.00  0.00    +0.000 A 
ATOM     12  C   UNL     1       2.109   5.089  18.267  0.00  0.00    +0.000 A 
ATOM     13  C   UNL     1       2.471   3.905  17.630  0.00  0.00    +0.000 A 
ATOM     14  C   UNL     1       3.627   3.849  16.850  0.00  0.00    +0.000 A 
ATOM     15  C   UNL     1       4.442   4.987  16.725  0.00  0.00    +0.000 A 
ATOM     16  C   UNL     1       4.100   6.169  17.403  0.00  0.00    +0.000 A 
BRANCH  15  17
ATOM     17  N   UNL     1       5.583   4.980  15.889  0.00  0.00    +0.000 N 
ATOM     18  C   UNL     1       5.843   4.229  14.771  0.00  0.00    +0.000 A 
ATOM     19  N   UNL     1       6.994   4.601  14.258  0.00  0.00    +0.000 NA
ATOM     20  N   UNL     1       7.462   5.595  15.075  0.00  0.00    +0.000 NA
ATOM     21  N   UNL     1       6.617   5.833  16.067  0.00  0.00    +0.000 NA
ENDBRANCH  15  17
ENDBRANCH   8  11
ENDBRANCH   1   9
BRANCH   4  22
ATOM     22  S   UNL     1       0.109  13.796  19.838  0.00  0.00    +0.000 S 
ATOM     23  O   UNL     1       1.177  14.350  20.645  0.00  0.00    +0.000 OA
ATOM     24  O   UNL     1      -0.471  14.553  18.749  0.00  0.00    +0.000 OA
BRANCH  22  25
ATOM     25  N   UNL     1      -1.147  13.292  20.886  0.00  0.00    +0.000 NA
ATOM     26  C   UNL     1      -0.783  13.098  22.306  0.00  0.00    +0.000 C 
ATOM     27  C   UNL     1      -1.507  11.895  22.906  0.00  0.00    +0.000 C 
ATOM     28  C   UNL     1      -2.910  12.205  23.414  0.00  0.00    +0.000 C 
ATOM     29  C   UNL     1      -3.879  12.634  22.322  0.00  0.00    +0.000 C 
ATOM     30  C   UNL     1      -3.488  13.955  21.674  0.00  0.00    +0.000 C 
ATOM     31  C   UNL     1      -2.491  13.808  20.535  0.00  0.00    +0.000 C 
ENDBRANCH  22  25
ENDBRANCH   4  22
TORSDOF 5
ENDMDL
MODEL 3
REMARK VINA RESULT:      -8.7      1.086      1.094
REMARK  Name = 
REMARK  5 active torsions:
REMARK  status: ('A' for Active; 'I' for Inactive)
REMARK    1  A    between atoms: C_2  and  C_20
REMARK    2  A    between atoms: N_3  and  C_4
REMARK    3  A    between atoms: C_7  and  S_8
REMARK    4  A    between atoms: S_8  and  N_11
REMARK    5  A    between atoms: C_24  and  N_25
REMARK                            x       y       z     vdW  Elec       q    Type
REMARK                         _______ _______ _______ _____ _____    ______ ____
ROOT
ATOM      1  C   UNL     1       1.681   8.025  19.919  0.00  0.00    +0.000 A 
ATOM      2  C   UNL     1       2.236   7.862  18.648  0.00  0.00    +0.000 A 
ATOM      3  C   UNL     1       2.657   6.604  18.211  0.00  0.00    +0.000 A 
ATOM      4  C   UNL     1       2.538   5.502  19.058  0.00  0.00    +0.000 A 
ATOM      5  C   UNL     1       2.006   5.653  20.341  0.00  0.00    +0.000 A 
ATOM      6  C   UNL     1       1.601   6.919  20.777  0.00  0.00    +0.000 A 
ENDROOT
BRANCH   1   9
ATOM      7  O   UNL     1      -0.646   8.500  21.680  0.00  0.00    +0.000 OA
ATOM      8  C   UNL     1       0.054   9.392  21.218  0.00  0.00    +0.000 C 
ATOM      9  N   UNL     1       1.150   9.246  20.382  0.00  0.00    +0.000 N 
ATOM     10  H   UNL     1       1.728  10.061  20.227  0.00  0.00    +0.000 HD
BRANCH   8  11
ATOM     11  C   UNL     1      -0.215  10.789  21.658  0.00  0.00    +0.000 A 
ATOM     12  C   UNL     1       0.667  11.797  21.246  0.00  0.00    +0.000 A 
ATOM     13  C   UNL     1       0.420  13.123  21.590  0.00  0.00    +0.000 A 
ATOM     14  C   UNL     1      -0.714  13.459  22.331  0.00  0.00    +0.000 A 
ATOM     15  C   UNL     1      -1.599  12.453  22.751  0.00  0.00    +0.000 A 
ATOM     16  C   UNL     1      -1.328  11.110  22.441  0.00  0.00    +0.000 A 
BRANCH  15  17
ATOM     17  N   UNL     1      -2.790  12.771  23.445  0.00  0.00    +0.000 N 
ATOM     18  C   UNL     1      -3.387  13.990  23.646  0.00  0.00    +0.000 A 
ATOM     19  N   UNL     1      -4.524  13.816  24.280  0.00  0.00    +0.000 NA
ATOM     20  N   UNL     1      -4.634  12.466  24.486  0.00  0.00    +0.000 NA
ATOM     21  N   UNL     1      -3.589  11.822  23.985  0.00  0.00    +0.000 NA
ENDBRANCH  15  17
ENDBRANCH   8  11
ENDBRANCH   1   9
BRANCH   4  22
ATOM     22  S   UNL     1       2.958   3.879  18.443  0.00  0.00    +0.000 S 
ATOM     23  O   UNL     1       2.998   2.983  19.580  0.00  0.00    +0.000 OA
ATOM     24  O   UNL     1       2.095   3.610  17.312  0.00  0.00    +0.000 OA
BRANCH  22  25
ATOM     25  N   UNL     1       4.558   4.092  17.873  0.00  0.00    +0.000 NA
ATOM     26  C   UNL     1       4.704   4.514  16.463  0.00  0.00    +0.000 C 
ATOM     27  C   UNL     1       5.898   3.832  15.799  0.00  0.00    +0.000 C 
ATOM     28  C   UNL     1       7.228   4.536  16.042  0.00  0.00    +0.000 C 
ATOM     29  C   UNL     1       7.657   4.557  17.501  0.00  0.00    +0.000 C 
ATOM     30  C   UNL     1       6.715   5.368  18.380  0.00  0.00    +0.000 C 
ATOM     31  C   UNL     1       5.519   4.579  18.889  0.00  0.00    +0.000 C 
ENDBRANCH  22  25
ENDBRANCH   4  22
TORSDOF 5
ENDMDL
MODEL 4
REMARK VINA RESULT:      -8.6      0.839      1.236
REMARK  Name = 
REMARK  5 active torsions:
REMARK  status: ('A' for Active; 'I' for Inactive)
REMARK    1  A    between atoms: C_2  and  C_20
REMARK    2  A    between atoms: N_3  and  C_4
REMARK    3  A    between atoms: C_7  and  S_8
REMARK    4  A    between atoms: S_8  and  N_11
REMARK    5  A    between atoms: C_24  and  N_25
REMARK                            x       y       z     vdW  Elec       q    Type
REMARK                         _______ _______ _______ _____ _____    ______ ____
ROOT
ATOM      1  C   UNL     1       1.615   7.758  20.005  0.00  0.00    +0.000 A 
ATOM      2  C   UNL     1       1.425   6.597  20.757  0.00  0.00    +0.000 A 
ATOM      3  C   UNL     1       1.795   5.351  20.246  0.00  0.00    +0.000 A 
ATOM      4  C   UNL     1       2.343   5.262  18.967  0.00  0.00    +0.000 A 
ATOM      5  C   UNL     1       2.518   6.413  18.194  0.00  0.00    +0.000 A 
ATOM      6  C   UNL     1       2.131   7.656  18.706  0.00  0.00    +0.000 A 
ENDROOT
BRANCH   1   9
ATOM      7  O   UNL     1      -0.191   9.839  18.931  0.00  0.00    +0.000 OA
ATOM      8  C   UNL     1       0.482   9.976  19.946  0.00  0.00    +0.000 C 
ATOM      9  N   UNL     1       1.353   9.052  20.500  0.00  0.00    +0.000 N 
ATOM     10  H   UNL     1       1.702   9.243  21.431  0.00  0.00    +0.000 HD
BRANCH   8  11
ATOM     11  C   UNL     1       0.294  11.218  20.744  0.00  0.00    +0.000 A 
ATOM     12  C   UNL     1       1.193  12.275  20.548  0.00  0.00    +0.000 A 
ATOM     13  C   UNL     1       1.020  13.474  21.233  0.00  0.00    +0.000 A 
ATOM     14  C   UNL     1      -0.057  13.638  22.105  0.00  0.00    +0.000 A 
ATOM     15  C   UNL     1      -0.960  12.581  22.309  0.00  0.00    +0.000 A 
ATOM     16  C   UNL     1      -0.761  11.356  21.650  0.00  0.00    +0.000 A 
BRANCH  15  17
ATOM     17  N   UNL     1      -2.097  12.741  23.135  0.00  0.00    +0.000 N 
ATOM     18  C   UNL     1      -2.645  13.884  23.658  0.00  0.00    +0.000 A 
ATOM     19  N   UNL     1      -3.747  13.579  24.305  0.00  0.00    +0.000 NA
ATOM     20  N   UNL     1      -3.883  12.222  24.191  0.00  0.00    +0.000 NA
ATOM     21  N   UNL     1      -2.890  11.702  23.485  0.00  0.00    +0.000 NA
ENDBRANCH  15  17
ENDBRANCH   8  11
ENDBRANCH   1   9
BRANCH   4  22
ATOM     22  S   UNL     1       2.931   3.683  18.376  0.00  0.00    +0.000 S 
ATOM     23  O   UNL     1       2.969   2.784  19.511  0.00  0.00    +0.000 OA
ATOM     24  O   UNL     1       2.168   3.355  17.190  0.00  0.00    +0.000 OA
BRANCH  22  25
ATOM     25  N   UNL     1       4.543   4.028  17.912  0.00  0.00    +0.000 NA
ATOM     26  C   UNL     1       4.741   4.513  16.530  0.00  0.00    +0.000 C 
ATOM     27  C   UNL     1       6.018   3.941  15.918  0.00  0.00    +0.000 C 
ATOM     28  C   UNL     1       7.277   4.726  16.265  0.00  0.00    +0.000 C 
ATOM     29  C   UNL     1       7.617   4.721  17.748  0.00  0.00    +0.000 C 
ATOM     30  C   UNL     1       6.570   5.430  18.594  0.00  0.00    +0.000 C 
ATOM     31  C   UNL     1       5.405   4.541  19.002  0.00  0.00    +0.000 C 
ENDBRANCH  22  25
ENDBRANCH   4  22
TORSDOF 5
ENDMDL
MODEL 5
REMARK VINA RESULT:      -8.6      1.276      1.730
REMARK  Name = 
REMARK  5 active torsions:
REMARK  status: ('A' for Active; 'I' for Inactive)
REMARK    1  A    between atoms: C_2  and  C_20
REMARK    2  A    between atoms: N_3  and  C_4
REMARK    3  A    between atoms: C_7  and  S_8
REMARK    4  A    between atoms: S_8  and  N_11
REMARK    5  A    between atoms: C_24  and  N_25
REMARK                            x       y       z     vdW  Elec       q    Type
REMARK                         _______ _______ _______ _____ _____    ______ ____
ROOT
ATOM      1  C   UNL     1       1.322   8.156  20.103  0.00  0.00    +0.000 A 
ATOM      2  C   UNL     1       2.028   8.079  18.901  0.00  0.00    +0.000 A 
ATOM      3  C   UNL     1       2.641   6.886  18.511  0.00  0.00    +0.000 A 
ATOM      4  C   UNL     1       2.562   5.765  19.337  0.00  0.00    +0.000 A 
ATOM      5  C   UNL     1       1.878   5.834  20.554  0.00  0.00    +0.000 A 
ATOM      6  C   UNL     1       1.280   7.037  20.945  0.00  0.00    +0.000 A 
ENDROOT
BRANCH   1   9
ATOM      7  O   UNL     1       1.524   9.702  22.615  0.00  0.00    +0.000 OA
ATOM      8  C   UNL     1       0.757   9.980  21.702  0.00  0.00    +0.000 C 
ATOM      9  N   UNL     1       0.601   9.299  20.505  0.00  0.00    +0.000 N 
ATOM     10  H   UNL     1       0.056   9.750  19.781  0.00  0.00    +0.000 HD
BRANCH   8  11
ATOM     11  C   UNL     1      -0.039  11.233  21.817  0.00  0.00    +0.000 A 
ATOM     12  C   UNL     1       0.489  12.408  21.266  0.00  0.00    +0.000 A 
ATOM     13  C   UNL     1      -0.247  13.589  21.304  0.00  0.00    +0.000 A 
ATOM     14  C   UNL     1      -1.521  13.607  21.874  0.00  0.00    +0.000 A 
ATOM     15  C   UNL     1      -2.054  12.433  22.433  0.00  0.00    +0.000 A 
ATOM     16  C   UNL     1      -1.293  11.252  22.433  0.00  0.00    +0.000 A 
BRANCH  15  17
ATOM     17  N   UNL     1      -3.368  12.405  22.957  0.00  0.00    +0.000 N 
ATOM     18  C   UNL     1      -3.789  12.407  24.262  0.00  0.00    +0.000 A 
ATOM     19  N   UNL     1      -5.102  12.455  24.293  0.00  0.00    +0.000 NA
ATOM     20  N   UNL     1      -5.506  12.474  22.984  0.00  0.00    +0.000 NA
ATOM     21  N   UNL     1      -4.464  12.444  22.165  0.00  0.00    +0.000 NA
ENDBRANCH  15  17
ENDBRANCH   8  11
ENDBRANCH   1   9
BRANCH   4  22
ATOM     22  S   UNL     1       3.237   4.213  18.770  0.00  0.00    +0.000 S 
ATOM     23  O   UNL     1       3.795   3.537  19.923  0.00  0.00    +0.000 OA
ATOM     24  O   UNL     1       2.227   3.577  17.951  0.00  0.00    +0.000 OA
BRANCH  22  25
ATOM     25  N   UNL     1       4.529   4.706  17.762  0.00  0.00    +0.000 NA
ATOM     26  C   UNL     1       5.781   5.102  18.442  0.00  0.00    +0.000 C 
ATOM     27  C   UNL     1       6.443   6.287  17.743  0.00  0.00    +0.000 C 
ATOM     28  C   UNL     1       7.326   5.898  16.564  0.00  0.00    +0.000 C 
ATOM     29  C   UNL     1       6.569   5.247  15.415  0.00  0.00    +0.000 C 
ATOM     30  C   UNL     1       5.960   3.906  15.799  0.00  0.00    +0.000 C 
ATOM     31  C   UNL     1       4.591   4.018  16.451  0.00  0.00    +0.000 C 
ENDBRANCH  22  25
ENDBRANCH   4  22
TORSDOF 5
ENDMDL
MODEL 6
REMARK VINA RESULT:      -8.5      3.062     11.018
REMARK  Name = 
REMARK  5 active torsions:
REMARK  status: ('A' for Active; 'I' for Inactive)
REMARK    1  A    between atoms: C_2  and  C_20
REMARK    2  A    between atoms: N_3  and  C_4
REMARK    3  A    between atoms: C_7  and  S_8
REMARK    4  A    between atoms: S_8  and  N_11
REMARK    5  A    between atoms: C_24  and  N_25
REMARK                            x       y       z     vdW  Elec       q    Type
REMARK                         _______ _______ _______ _____ _____    ______ ____
ROOT
ATOM      1  C   UNL     1       0.192   9.248  21.356  0.00  0.00    +0.000 A 
ATOM      2  C   UNL     1      -0.015  10.241  20.396  0.00  0.00    +0.000 A 
ATOM      3  C   UNL     1      -0.563  11.474  20.755  0.00  0.00    +0.000 A 
ATOM      4  C   UNL     1      -0.924  11.712  22.081  0.00  0.00    +0.000 A 
ATOM      5  C   UNL     1      -0.744  10.720  23.049  0.00  0.00    +0.000 A 
ATOM      6  C   UNL     1      -0.208   9.482  22.679  0.00  0.00    +0.000 A 
ENDROOT
BRANCH   1   9
ATOM      7  O   UNL     1       1.928   8.524  19.075  0.00  0.00    +0.000 OA
ATOM      8  C   UNL     1       1.641   7.757  19.985  0.00  0.00    +0.000 C 
ATOM      9  N   UNL     1       0.829   8.022  21.077  0.00  0.00    +0.000 N 
ATOM     10  H   UNL     1       0.829   7.347  21.830  0.00  0.00    +0.000 HD
BRANCH   8  11
ATOM     11  C   UNL     1       2.294   6.419  20.001  0.00  0.00    +0.000 A 
ATOM     12  C   UNL     1       1.622   5.359  20.624  0.00  0.00    +0.000 A 
ATOM     13  C   UNL     1       2.172   4.081  20.613  0.00  0.00    +0.000 A 
ATOM     14  C   UNL     1       3.387   3.842  19.968  0.00  0.00    +0.000 A 
ATOM     15  C   UNL     1       4.068   4.902  19.346  0.00  0.00    +0.000 A 
ATOM     16  C   UNL     1       3.534   6.200  19.394  0.00  0.00    +0.000 A 
BRANCH  15  17
ATOM     17  N   UNL     1       5.267   4.678  18.628  0.00  0.00    +0.000 N 
ATOM     18  C   UNL     1       5.463   4.523  17.280  0.00  0.00    +0.000 A 
ATOM     19  N   UNL     1       6.750   4.414  17.039  0.00  0.00    +0.000 NA
ATOM     20  N   UNL     1       7.366   4.493  18.260  0.00  0.00    +0.000 NA
ATOM     21  N   UNL     1       6.478   4.652  19.231  0.00  0.00    +0.000 NA
ENDBRANCH  15  17
ENDBRANCH   8  11
ENDBRANCH   1   9
BRANCH   4  22
ATOM     22  S   UNL     1      -1.502  13.334  22.552  0.00  0.00    +0.000 S 
ATOM     23  O   UNL     1      -0.865  13.673  23.807  0.00  0.00    +0.000 OA
ATOM     24  O   UNL     1      -1.370  14.192  21.393  0.00  0.00    +0.000 OA
BRANCH  22  25
ATOM     25  N   UNL     1      -3.167  13.071  22.851  0.00  0.00    +0.000 NA
ATOM     26  C   UNL     1      -3.647  13.374  24.217  0.00  0.00    +0.000 C 
ATOM     27  C   UNL     1      -4.692  12.361  24.676  0.00  0.00    +0.000 C 
ATOM     28  C   UNL     1      -6.110  12.681  24.217  0.00  0.00    +0.000 C 
ATOM     29  C   UNL     1      -6.291  12.648  22.707  0.00  0.00    +0.000 C 
ATOM     30  C   UNL     1      -5.487  13.725  21.994  0.00  0.00    +0.000 C 
ATOM     31  C   UNL     1      -4.053  13.320  21.689  0.00  0.00    +0.000 C 
ENDBRANCH  22  25
ENDBRANCH   4  22
TORSDOF 5
ENDMDL
MODEL 7
REMARK VINA RESULT:      -8.5      2.131      2.947
REMARK  Name = 
REMARK  5 active torsions:
REMARK  status: ('A' for Active; 'I' for Inactive)
REMARK    1  A    between atoms: C_2  and  C_20
REMARK    2  A    between atoms: N_3  and  C_4
REMARK    3  A    between atoms: C_7  and  S_8
REMARK    4  A    between atoms: S_8  and  N_11
REMARK    5  A    between atoms: C_24  and  N_25
REMARK                            x       y       z     vdW  Elec       q    Type
REMARK                         _______ _______ _______ _____ _____    ______ ____
ROOT
ATOM      1  C   UNL     1       1.363   9.141  19.299  0.00  0.00    +0.000 A 
ATOM      2  C   UNL     1       2.017   9.189  18.066  0.00  0.00    +0.000 A 
ATOM      3  C   UNL     1       2.915   8.185  17.698  0.00  0.00    +0.000 A 
ATOM      4  C   UNL     1       3.176   7.133  18.576  0.00  0.00    +0.000 A 
ATOM      5  C   UNL     1       2.547   7.084  19.823  0.00  0.00    +0.000 A 
ATOM      6  C   UNL     1       1.660   8.101  20.191  0.00  0.00    +0.000 A 
ENDROOT
BRANCH   1   9
ATOM      7  O   UNL     1       1.267  10.871  21.695  0.00  0.00    +0.000 OA
ATOM      8  C   UNL     1       0.401  10.856  20.828  0.00  0.00    +0.000 C 
ATOM      9  N   UNL     1       0.375  10.068  19.688  0.00  0.00    +0.000 N 
ATOM     10  H   UNL     1      -0.315  10.294  18.983  0.00  0.00    +0.000 HD
BRANCH   8  11
ATOM     11  C   UNL     1      -0.706  11.845  20.931  0.00  0.00    +0.000 A 
ATOM     12  C   UNL     1      -0.763  12.879  19.986  0.00  0.00    +0.000 A 
ATOM     13  C   UNL     1      -1.813  13.792  20.014  0.00  0.00    +0.000 A 
ATOM     14  C   UNL     1      -2.823  13.675  20.969  0.00  0.00    +0.000 A 
ATOM     15  C   UNL     1      -2.770  12.644  21.922  0.00  0.00    +0.000 A 
ATOM     16  C   UNL     1      -1.687  11.748  21.921  0.00  0.00    +0.000 A 
BRANCH  15  17
ATOM     17  N   UNL     1      -3.813  12.462  22.860  0.00  0.00    +0.000 N 
ATOM     18  C   UNL     1      -3.746  12.234  24.210  0.00  0.00    +0.000 A 
ATOM     19  N   UNL     1      -4.963  12.203  24.705  0.00  0.00    +0.000 NA
ATOM     20  N   UNL     1      -5.803  12.407  23.643  0.00  0.00    +0.000 NA
ATOM     21  N   UNL     1      -5.118  12.564  22.519  0.00  0.00    +0.000 NA
ENDBRANCH  15  17
ENDBRANCH   8  11
ENDBRANCH   1   9
BRANCH   4  22
ATOM     22  S   UNL     1       4.225   5.791  18.043  0.00  0.00    +0.000 S 
ATOM     23  O   UNL     1       4.364   5.895  16.605  0.00  0.00    +0.000 OA
ATOM     24  O   UNL     1       5.389   5.783  18.905  0.00  0.00    +0.000 OA
BRANCH  22  25
ATOM     25  N   UNL     1       3.278   4.408  18.390  0.00  0.00    +0.000 NA
ATOM     26  C   UNL     1       1.918   4.377  17.809  0.00  0.00    +0.000 C 
ATOM     27  C   UNL     1       0.913   3.759  18.777  0.00  0.00    +0.000 C 
ATOM     28  C   UNL     1       0.859   2.237  18.725  0.00  0.00    +0.000 C 
ATOM     29  C   UNL     1       2.153   1.559  19.150  0.00  0.00    +0.000 C 
ATOM     30  C   UNL     1       3.310   1.857  18.207  0.00  0.00    +0.000 C 
ATOM     31  C   UNL     1       4.046   3.148  18.528  0.00  0.00    +0.000 C 
ENDBRANCH  22  25
ENDBRANCH   4  22
TORSDOF 5
ENDMDL
MODEL 8
REMARK VINA RESULT:      -8.5      0.821      1.338
REMARK  Name = 
REMARK  5 active torsions:
REMARK  status: ('A' for Active; 'I' for Inactive)
REMARK    1  A    between atoms: C_2  and  C_20
REMARK    2  A    between atoms: N_3  and  C_4
REMARK    3  A    between atoms: C_7  and  S_8
REMARK    4  A    between atoms: S_8  and  N_11
REMARK    5  A    between atoms: C_24  and  N_25
REMARK                            x       y       z     vdW  Elec       q    Type
REMARK                         _______ _______ _______ _____ _____    ______ ____
ROOT
ATOM      1  C   UNL     1       1.498   8.519  20.146  0.00  0.00    +0.000 A 
ATOM      2  C   UNL     1       1.976   8.448  18.836  0.00  0.00    +0.000 A 
ATOM      3  C   UNL     1       2.394   7.230  18.296  0.00  0.00    +0.000 A 
ATOM      4  C   UNL     1       2.352   6.076  19.078  0.00  0.00    +0.000 A 
ATOM      5  C   UNL     1       1.899   6.136  20.399  0.00  0.00    +0.000 A 
ATOM      6  C   UNL     1       1.495   7.362  20.937  0.00  0.00    +0.000 A 
ENDROOT
BRANCH   1   9
ATOM      7  O   UNL     1      -0.933  10.028  19.399  0.00  0.00    +0.000 OA
ATOM      8  C   UNL     1      -0.186  10.347  20.316  0.00  0.00    +0.000 C 
ATOM      9  N   UNL     1       0.971   9.697  20.715  0.00  0.00    +0.000 N 
ATOM     10  H   UNL     1       1.382   9.979  21.595  0.00  0.00    +0.000 HD
BRANCH   8  11
ATOM     11  C   UNL     1      -0.586  11.496  21.173  0.00  0.00    +0.000 A 
ATOM     12  C   UNL     1       0.288  12.587  21.273  0.00  0.00    +0.000 A 
ATOM     13  C   UNL     1      -0.073  13.704  22.019  0.00  0.00    +0.000 A 
ATOM     14  C   UNL     1      -1.313  13.754  22.658  0.00  0.00    +0.000 A 
ATOM     15  C   UNL     1      -2.192  12.662  22.566  0.00  0.00    +0.000 A 
ATOM     16  C   UNL     1      -1.810  11.516  21.848  0.00  0.00    +0.000 A 
BRANCH  15  17
ATOM     17  N   UNL     1      -3.481  12.711  23.147  0.00  0.00    +0.000 N 
ATOM     18  C   UNL     1      -4.600  13.389  22.737  0.00  0.00    +0.000 A 
ATOM     19  N   UNL     1      -5.604  13.090  23.531  0.00  0.00    +0.000 NA
ATOM     20  N   UNL     1      -5.098  12.216  24.456  0.00  0.00    +0.000 NA
ATOM     21  N   UNL     1      -3.813  11.980  24.235  0.00  0.00    +0.000 NA
ENDBRANCH  15  17
ENDBRANCH   8  11
ENDBRANCH   1   9
BRANCH   4  22
ATOM     22  S   UNL     1       2.767   4.505  18.339  0.00  0.00    +0.000 S 
ATOM     23  O   UNL     1       3.071   3.587  19.417  0.00  0.00    +0.000 OA
ATOM     24  O   UNL     1       1.737   4.199  17.368  0.00  0.00    +0.000 OA
BRANCH  22  25
ATOM     25  N   UNL     1       4.221   4.850  17.504  0.00  0.00    +0.000 NA
ATOM     26  C   UNL     1       5.377   5.253  18.333  0.00  0.00    +0.000 C 
ATOM     27  C   UNL     1       6.200   6.341  17.648  0.00  0.00    +0.000 C 
ATOM     28  C   UNL     1       7.227   5.809  16.656  0.00  0.00    +0.000 C 
ATOM     29  C   UNL     1       6.616   5.088  15.463  0.00  0.00    +0.000 C 
ATOM     30  C   UNL     1       5.882   3.815  15.858  0.00  0.00    +0.000 C 
ATOM     31  C   UNL     1       4.439   4.043  16.280  0.00  0.00    +0.000 C 
ENDBRANCH  22  25
ENDBRANCH   4  22
TORSDOF 5
ENDMDL
MODEL 9
REMARK VINA RESULT:      -8.4      3.227     10.330
REMARK  Name = 
REMARK  5 active torsions:
REMARK  status: ('A' for Active; 'I' for Inactive)
REMARK    1  A    between atoms: C_2  and  C_20
REMARK    2  A    between atoms: N_3  and  C_4
REMARK    3  A    between atoms: C_7  and  S_8
REMARK    4  A    between atoms: S_8  and  N_11
REMARK    5  A    between atoms: C_24  and  N_25
REMARK                            x       y       z     vdW  Elec       q    Type
REMARK                         _______ _______ _______ _____ _____    ______ ____
ROOT
ATOM      1  C   UNL     1       0.980   8.717  20.879  0.00  0.00    +0.000 A 
ATOM      2  C   UNL     1       0.761   9.721  19.933  0.00  0.00    +0.000 A 
ATOM      3  C   UNL     1       0.138  10.917  20.296  0.00  0.00    +0.000 A 
ATOM      4  C   UNL     1      -0.285  11.105  21.612  0.00  0.00    +0.000 A 
ATOM      5  C   UNL     1      -0.093  10.100  22.564  0.00  0.00    +0.000 A 
ATOM      6  C   UNL     1       0.518   8.899  22.189  0.00  0.00    +0.000 A 
ENDROOT
BRANCH   1   9
ATOM      7  O   UNL     1       2.319   7.888  18.376  0.00  0.00    +0.000 OA
ATOM      8  C   UNL     1       2.302   7.213  19.397  0.00  0.00    +0.000 C 
ATOM      9  N   UNL     1       1.689   7.531  20.599  0.00  0.00    +0.000 N 
ATOM     10  H   UNL     1       1.910   6.954  21.400  0.00  0.00    +0.000 HD
BRANCH   8  11
ATOM     11  C   UNL     1       3.095   5.953  19.413  0.00  0.00    +0.000 A 
ATOM     12  C   UNL     1       2.585   4.856  20.121  0.00  0.00    +0.000 A 
ATOM     13  C   UNL     1       3.268   3.644  20.115  0.00  0.00    +0.000 A 
ATOM     14  C   UNL     1       4.453   3.506  19.391  0.00  0.00    +0.000 A 
ATOM     15  C   UNL     1       4.972   4.603  18.682  0.00  0.00    +0.000 A 
ATOM     16  C   UNL     1       4.305   5.839  18.724  0.00  0.00    +0.000 A 
BRANCH  15  17
ATOM     17  N   UNL     1       6.134   4.475  17.887  0.00  0.00    +0.000 N 
ATOM     18  C   UNL     1       6.261   4.447  16.522  0.00  0.00    +0.000 A 
ATOM     19  N   UNL     1       7.536   4.392  16.206  0.00  0.00    +0.000 NA
ATOM     20  N   UNL     1       8.214   4.377  17.396  0.00  0.00    +0.000 NA
ATOM     21  N   UNL     1       7.376   4.426  18.422  0.00  0.00    +0.000 NA
ENDBRANCH  15  17
ENDBRANCH   8  11
ENDBRANCH   1   9
BRANCH   4  22
ATOM     22  S   UNL     1      -0.962  12.685  22.094  0.00  0.00    +0.000 S 
ATOM     23  O   UNL     1      -2.356  12.696  21.702  0.00  0.00    +0.000 OA
ATOM     24  O   UNL     1      -0.572  12.920  23.468  0.00  0.00    +0.000 OA
BRANCH  22  25
ATOM     25  N   UNL     1      -0.115  13.783  21.089  0.00  0.00    +0.000 NA
ATOM     26  C   UNL     1      -0.909  14.472  20.049  0.00  0.00    +0.000 C 
ATOM     27  C   UNL     1      -0.115  14.628  18.755  0.00  0.00    +0.000 C 
ATOM     28  C   UNL     1       0.792  15.853  18.729  0.00  0.00    +0.000 C 
ATOM     29  C   UNL     1       1.902  15.821  19.770  0.00  0.00    +0.000 C 
ATOM     30  C   UNL     1       1.371  15.861  21.196  0.00  0.00    +0.000 C 
ATOM     31  C   UNL     1       1.002  14.495  21.753  0.00  0.00    +0.000 C 
ENDBRANCH  22  25
ENDBRANCH   4  22
TORSDOF 5
ENDMDL
