MODEL 1
REMARK VINA RESULT:      -9.5      0.000      0.000
REMARK  Name = 
REMARK  6 active torsions:
REMARK  status: ('A' for Active; 'I' for Inactive)
REMARK    1  A    between atoms: C_1  and  C_2
REMARK    2  A    between atoms: C_4  and  C_5
REMARK    3  A    between atoms: C_7  and  C_8
REMARK    4  A    between atoms: N_11  and  S_12
REMARK    5  A    between atoms: S_12  and  C_15
REMARK    6  A    between atoms: C_20  and  C_21
REMARK                            x       y       z     vdW  Elec       q    Type
REMARK                         _______ _______ _______ _____ _____    ______ ____
ROOT
ATOM      1  C   UNL     1       2.023   7.445  19.733  0.00  0.00    +0.000 C 
ATOM      2  C   UNL     1       2.164   6.322  20.473  0.00  0.00    +0.000 C 
ATOM      3  C   UNL     1       3.000   5.101  20.103  0.00  0.00    +0.000 C 
ATOM      4  N   UNL     1       3.989   5.397  19.019  0.00  0.00    +0.000 NA
ATOM      5  C   UNL     1       3.309   6.204  17.935  0.00  0.00    +0.000 C 
ATOM      6  C   UNL     1       2.741   7.528  18.417  0.00  0.00    +0.000 C 
ENDROOT
BRANCH   1  13
ATOM      7  C   UNL     1      -0.652  10.002  23.212  0.00  0.00    +0.000 C 
ATOM      8  C   UNL     1      -0.108   9.884  21.816  0.00  0.00    +0.000 A 
ATOM      9  C   UNL     1      -0.490  10.802  20.839  0.00  0.00    +0.000 A 
ATOM     10  C   UNL     1      -0.020  10.677  19.528  0.00  0.00    +0.000 A 
ATOM     11  C   UNL     1      -0.453  11.655  18.474  0.00  0.00    +0.000 C 
ATOM     12  C   UNL     1       0.832   9.606  19.190  0.00  0.00    +0.000 A 
ATOM     13  C   UNL     1       1.222   8.652  20.137  0.00  0.00    +0.000 A 
ATOM     14  C   UNL     1       0.747   8.823  21.458  0.00  0.00    +0.000 A 
ENDBRANCH   1  13
BRANCH   4  15
ATOM     15  S   UNL     1       4.688   4.029  18.203  0.00  0.00    +0.000 S 
ATOM     16  O   UNL     1       5.662   3.475  19.120  0.00  0.00    +0.000 OA
ATOM     17  O   UNL     1       3.558   3.259  17.723  0.00  0.00    +0.000 OA
BRANCH  15  18
ATOM     18  C   UNL     1       5.582   4.409  16.737  0.00  0.00    +0.000 A 
ATOM     19  C   UNL     1       5.234   3.902  15.485  0.00  0.00    +0.000 A 
ATOM     20  C   UNL     1       5.989   4.260  14.364  0.00  0.00    +0.000 A 
ATOM     21  C   UNL     1       7.073   5.098  14.533  0.00  0.00    +0.000 A 
ATOM     22  N   UNL     1       7.445   5.580  15.732  0.00  0.00    +0.000 NA
ATOM     23  C   UNL     1       6.717   5.235  16.849  0.00  0.00    +0.000 A 
BRANCH  23  24
ATOM     24  C   UNL     1       7.291   5.788  18.159  0.00  0.00    +0.000 C 
ATOM     25  F   UNL     1       6.424   6.154  19.135  0.00  0.00    +0.000 F 
ATOM     26  F   UNL     1       8.137   4.893  18.755  0.00  0.00    +0.000 F 
ATOM     27  F   UNL     1       8.050   6.907  17.945  0.00  0.00    +0.000 F 
ENDBRANCH  23  24
ENDBRANCH  15  18
ENDBRANCH   4  15
TORSDOF 4
ENDMDL
MODEL 2
REMARK VINA RESULT:      -9.4      0.275      1.654
REMARK  Name = 
REMARK  6 active torsions:
REMARK  status: ('A' for Active; 'I' for Inactive)
REMARK    1  A    between atoms: C_1  and  C_2
REMARK    2  A    between atoms: C_4  and  C_5
REMARK    3  A    between atoms: C_7  and  C_8
REMARK    4  A    between atoms: N_11  and  S_12
REMARK    5  A    between atoms: S_12  and  C_15
REMARK    6  A    between atoms: C_20  and  C_21
REMARK                            x       y       z     vdW  Elec       q    Type
REMARK                         _______ _______ _______ _____ _____    ______ ____
ROOT
ATOM      1  C   UNL     1       2.024   7.460  19.681  0.00  0.00    +0.000 C 
ATOM      2  C   UNL     1       2.151   6.341  20.428  0.00  0.00    +0.000 C 
ATOM      3  C   UNL     1       2.991   5.116  20.076  0.00  0.00    +0.000 C 
ATOM      4  N   UNL     1       3.996   5.406  19.005  0.00  0.00    +0.000 NA
ATOM      5  C   UNL     1       3.332   6.210  17.908  0.00  0.00    +0.000 C 
ATOM      6  C   UNL     1       2.761   7.537  18.375  0.00  0.00    +0.000 C 
ENDROOT
BRANCH   1  13
ATOM      7  C   UNL     1       0.469  12.207  18.755  0.00  0.00    +0.000 C 
ATOM      8  C   UNL     1       0.487  10.992  19.639  0.00  0.00    +0.000 A 
ATOM      9  C   UNL     1      -0.094  11.042  20.905  0.00  0.00    +0.000 A 
ATOM     10  C   UNL     1      -0.048   9.929  21.751  0.00  0.00    +0.000 A 
ATOM     11  C   UNL     1      -0.655   9.996  23.121  0.00  0.00    +0.000 C 
ATOM     12  C   UNL     1       0.605   8.755  21.324  0.00  0.00    +0.000 A 
ATOM     13  C   UNL     1       1.219   8.671  20.069  0.00  0.00    +0.000 A 
ATOM     14  C   UNL     1       1.132   9.808  19.232  0.00  0.00    +0.000 A 
ENDBRANCH   1  13
BRANCH   4  15
ATOM     15  S   UNL     1       4.703   4.033  18.205  0.00  0.00    +0.000 S 
ATOM     16  O   UNL     1       5.683   3.498  19.126  0.00  0.00    +0.000 OA
ATOM     17  O   UNL     1       3.578   3.249  17.735  0.00  0.00    +0.000 OA
BRANCH  15  18
ATOM     18  C   UNL     1       5.592   4.402  16.733  0.00  0.00    +0.000 A 
ATOM     19  C   UNL     1       5.238   3.888  15.485  0.00  0.00    +0.000 A 
ATOM     20  C   UNL     1       5.990   4.237  14.358  0.00  0.00    +0.000 A 
ATOM     21  C   UNL     1       7.076   5.073  14.518  0.00  0.00    +0.000 A 
ATOM     22  N   UNL     1       7.455   5.560  15.713  0.00  0.00    +0.000 NA
ATOM     23  C   UNL     1       6.731   5.225  16.835  0.00  0.00    +0.000 A 
BRANCH  23  24
ATOM     24  C   UNL     1       7.312   5.783  18.139  0.00  0.00    +0.000 C 
ATOM     25  F   UNL     1       6.451   6.150  19.119  0.00  0.00    +0.000 F 
ATOM     26  F   UNL     1       8.164   4.892  18.733  0.00  0.00    +0.000 F 
ATOM     27  F   UNL     1       8.067   6.903  17.917  0.00  0.00    +0.000 F 
ENDBRANCH  23  24
ENDBRANCH  15  18
ENDBRANCH   4  15
TORSDOF 4
ENDMDL
MODEL 3
REMARK VINA RESULT:      -9.0      1.005      1.166
REMARK  Name = 
REMARK  6 active torsions:
REMARK  status: ('A' for Active; 'I' for Inactive)
REMARK    1  A    between atoms: C_1  and  C_2
REMARK    2  A    between atoms: C_4  and  C_5
REMARK    3  A    between atoms: C_7  and  C_8
REMARK    4  A    between atoms: N_11  and  S_12
REMARK    5  A    between atoms: S_12  and  C_15
REMARK    6  A    between atoms: C_20  and  C_21
REMARK                            x       y       z     vdW  Elec       q    Type
REMARK                         _______ _______ _______ _____ _____    ______ ____
ROOT
ATOM      1  C   UNL     1       2.023   7.892  18.980  0.00  0.00    +0.000 C 
ATOM      2  C   UNL     1       2.193   6.953  19.938  0.00  0.00    +0.000 C 
ATOM      3  C   UNL     1       3.166   5.779  19.881  0.00  0.00    +0.000 C 
ATOM      4  N   UNL     1       4.221   5.965  18.836  0.00  0.00    +0.000 NA
ATOM      5  C   UNL     1       3.575   6.474  17.566  0.00  0.00    +0.000 C 
ATOM      6  C   UNL     1       2.849   7.798  17.730  0.00  0.00    +0.000 C 
ENDROOT
BRANCH   1  13
ATOM      7  C   UNL     1      -0.033  11.694  21.650  0.00  0.00    +0.000 C 
ATOM      8  C   UNL     1       0.056  10.893  20.381  0.00  0.00    +0.000 A 
ATOM      9  C   UNL     1      -0.855  11.116  19.350  0.00  0.00    +0.000 A 
ATOM     10  C   UNL     1      -0.805  10.349  18.182  0.00  0.00    +0.000 A 
ATOM     11  C   UNL     1      -1.802  10.579  17.084  0.00  0.00    +0.000 C 
ATOM     12  C   UNL     1       0.164   9.333  18.055  0.00  0.00    +0.000 A 
ATOM     13  C   UNL     1       1.083   9.063  19.076  0.00  0.00    +0.000 A 
ATOM     14  C   UNL     1       1.018   9.874  20.232  0.00  0.00    +0.000 A 
ENDBRANCH   1  13
BRANCH   4  15
ATOM     15  S   UNL     1       5.111   4.548  18.362  0.00  0.00    +0.000 S 
ATOM     16  O   UNL     1       6.211   4.439  19.298  0.00  0.00    +0.000 OA
ATOM     17  O   UNL     1       4.114   3.505  18.221  0.00  0.00    +0.000 OA
BRANCH  15  18
ATOM     18  C   UNL     1       5.853   4.628  16.770  0.00  0.00    +0.000 A 
ATOM     19  C   UNL     1       5.544   3.735  15.744  0.00  0.00    +0.000 A 
ATOM     20  C   UNL     1       6.170   3.872  14.501  0.00  0.00    +0.000 A 
ATOM     21  C   UNL     1       7.093   4.884  14.329  0.00  0.00    +0.000 A 
ATOM     22  N   UNL     1       7.429   5.741  15.310  0.00  0.00    +0.000 NA
ATOM     23  C   UNL     1       6.827   5.620  16.542  0.00  0.00    +0.000 A 
BRANCH  23  24
ATOM     24  C   UNL     1       7.355   6.608  17.589  0.00  0.00    +0.000 C 
ATOM     25  F   UNL     1       6.453   7.305  18.324  0.00  0.00    +0.000 F 
ATOM     26  F   UNL     1       8.156   5.988  18.509  0.00  0.00    +0.000 F 
ATOM     27  F   UNL     1       8.144   7.572  17.022  0.00  0.00    +0.000 F 
ENDBRANCH  23  24
ENDBRANCH  15  18
ENDBRANCH   4  15
TORSDOF 4
ENDMDL
MODEL 4
REMARK VINA RESULT:      -9.0      0.522      1.076
REMARK  Name = 
REMARK  6 active torsions:
REMARK  status: ('A' for Active; 'I' for Inactive)
REMARK    1  A    between atoms: C_1  and  C_2
REMARK    2  A    between atoms: C_4  and  C_5
REMARK    3  A    between atoms: C_7  and  C_8
REMARK    4  A    between atoms: N_11  and  S_12
REMARK    5  A    between atoms: S_12  and  C_15
REMARK    6  A    between atoms: C_20  and  C_21
REMARK                            x       y       z     vdW  Elec       q    Type
REMARK                         _______ _______ _______ _____ _____    ______ ____
ROOT
ATOM      1  C   UNL     1       2.258   7.580  19.327  0.00  0.00    +0.000 C 
ATOM      2  C   UNL     1       2.800   7.629  18.089  0.00  0.00    +0.000 C 
ATOM      3  C   UNL     1       3.655   6.545  17.439  0.00  0.00    +0.000 C 
ATOM      4  N   UNL     1       3.526   5.226  18.136  0.00  0.00    +0.000 NA
ATOM      5  C   UNL     1       3.592   5.447  19.631  0.00  0.00    +0.000 C 
ATOM      6  C   UNL     1       2.505   6.361  20.168  0.00  0.00    +0.000 C 
ENDROOT
BRANCH   1  13
ATOM      7  C   UNL     1      -0.222   9.518  23.315  0.00  0.00    +0.000 C 
ATOM      8  C   UNL     1       0.151   9.575  21.860  0.00  0.00    +0.000 A 
ATOM      9  C   UNL     1      -0.450  10.513  21.022  0.00  0.00    +0.000 A 
ATOM     10  C   UNL     1      -0.139  10.548  19.659  0.00  0.00    +0.000 A 
ATOM     11  C   UNL     1      -0.807  11.546  18.758  0.00  0.00    +0.000 C 
ATOM     12  C   UNL     1       0.777   9.618  19.127  0.00  0.00    +0.000 A 
ATOM     13  C   UNL     1       1.386   8.647  19.931  0.00  0.00    +0.000 A 
ATOM     14  C   UNL     1       1.066   8.656  21.308  0.00  0.00    +0.000 A 
ENDBRANCH   1  13
BRANCH   4  15
ATOM     15  S   UNL     1       4.748   4.038  17.793  0.00  0.00    +0.000 S 
ATOM     16  O   UNL     1       5.689   4.107  18.891  0.00  0.00    +0.000 OA
ATOM     17  O   UNL     1       4.019   2.825  17.479  0.00  0.00    +0.000 OA
BRANCH  15  18
ATOM     18  C   UNL     1       5.696   4.336  16.341  0.00  0.00    +0.000 A 
ATOM     19  C   UNL     1       5.443   3.698  15.127  0.00  0.00    +0.000 A 
ATOM     20  C   UNL     1       6.235   3.998  14.014  0.00  0.00    +0.000 A 
ATOM     21  C   UNL     1       7.260   4.912  14.155  0.00  0.00    +0.000 A 
ATOM     22  N   UNL     1       7.541   5.521  15.321  0.00  0.00    +0.000 NA
ATOM     23  C   UNL     1       6.776   5.236  16.429  0.00  0.00    +0.000 A 
BRANCH  23  24
ATOM     24  C   UNL     1       7.250   5.938  17.707  0.00  0.00    +0.000 C 
ATOM     25  F   UNL     1       6.312   6.443  18.546  0.00  0.00    +0.000 F 
ATOM     26  F   UNL     1       8.010   5.109  18.485  0.00  0.00    +0.000 F 
ATOM     27  F   UNL     1       8.060   7.005  17.426  0.00  0.00    +0.000 F 
ENDBRANCH  23  24
ENDBRANCH  15  18
ENDBRANCH   4  15
TORSDOF 4
ENDMDL
MODEL 5
REMARK VINA RESULT:      -8.7      0.579      2.088
REMARK  Name = 
REMARK  6 active torsions:
REMARK  status: ('A' for Active; 'I' for Inactive)
REMARK    1  A    between atoms: C_1  and  C_2
REMARK    2  A    between atoms: C_4  and  C_5
REMARK    3  A    between atoms: C_7  and  C_8
REMARK    4  A    between atoms: N_11  and  S_12
REMARK    5  A    between atoms: S_12  and  C_15
REMARK    6  A    between atoms: C_20  and  C_21
REMARK                            x       y       z     vdW  Elec       q    Type
REMARK                         _______ _______ _______ _____ _____    ______ ____
ROOT
ATOM      1  C   UNL     1       2.213   7.581  19.313  0.00  0.00    +0.000 C 
ATOM      2  C   UNL     1       2.818   7.679  18.108  0.00  0.00    +0.000 C 
ATOM      3  C   UNL     1       3.718   6.627  17.466  0.00  0.00    +0.000 C 
ATOM      4  N   UNL     1       3.569   5.283  18.108  0.00  0.00    +0.000 NA
ATOM      5  C   UNL     1       3.554   5.451  19.612  0.00  0.00    +0.000 C 
ATOM      6  C   UNL     1       2.430   6.335  20.123  0.00  0.00    +0.000 C 
ENDROOT
BRANCH   1  13
ATOM      7  C   UNL     1      -0.331  11.962  18.934  0.00  0.00    +0.000 C 
ATOM      8  C   UNL     1       0.086  10.763  19.740  0.00  0.00    +0.000 A 
ATOM      9  C   UNL     1      -0.225  10.693  21.097  0.00  0.00    +0.000 A 
ATOM     10  C   UNL     1       0.193   9.600  21.863  0.00  0.00    +0.000 A 
ATOM     11  C   UNL     1      -0.126   9.541  23.329  0.00  0.00    +0.000 C 
ATOM     12  C   UNL     1       0.947   8.573  21.263  0.00  0.00    +0.000 A 
ATOM     13  C   UNL     1       1.298   8.616  19.908  0.00  0.00    +0.000 A 
ATOM     14  C   UNL     1       0.839   9.724  19.158  0.00  0.00    +0.000 A 
ENDBRANCH   1  13
BRANCH   4  15
ATOM     15  S   UNL     1       4.821   4.120  17.788  0.00  0.00    +0.000 S 
ATOM     16  O   UNL     1       5.773   4.253  18.872  0.00  0.00    +0.000 OA
ATOM     17  O   UNL     1       4.124   2.877  17.524  0.00  0.00    +0.000 OA
BRANCH  15  18
ATOM     18  C   UNL     1       5.741   4.398  16.315  0.00  0.00    +0.000 A 
ATOM     19  C   UNL     1       5.478   3.729  15.120  0.00  0.00    +0.000 A 
ATOM     20  C   UNL     1       6.249   4.013  13.988  0.00  0.00    +0.000 A 
ATOM     21  C   UNL     1       7.263   4.944  14.092  0.00  0.00    +0.000 A 
ATOM     22  N   UNL     1       7.555   5.582  15.239  0.00  0.00    +0.000 NA
ATOM     23  C   UNL     1       6.811   5.313  16.366  0.00  0.00    +0.000 A 
BRANCH  23  24
ATOM     24  C   UNL     1       7.295   6.050  17.620  0.00  0.00    +0.000 C 
ATOM     25  F   UNL     1       7.979   5.344  18.554  0.00  0.00    +0.000 F 
ATOM     26  F   UNL     1       8.113   7.100  17.302  0.00  0.00    +0.000 F 
ATOM     27  F   UNL     1       6.254   6.606  18.313  0.00  0.00    +0.000 F 
ENDBRANCH  23  24
ENDBRANCH  15  18
ENDBRANCH   4  15
TORSDOF 4
ENDMDL
MODEL 6
REMARK VINA RESULT:      -8.6      1.323      1.890
REMARK  Name = 
REMARK  6 active torsions:
REMARK  status: ('A' for Active; 'I' for Inactive)
REMARK    1  A    between atoms: C_1  and  C_2
REMARK    2  A    between atoms: C_4  and  C_5
REMARK    3  A    between atoms: C_7  and  C_8
REMARK    4  A    between atoms: N_11  and  S_12
REMARK    5  A    between atoms: S_12  and  C_15
REMARK    6  A    between atoms: C_20  and  C_21
REMARK                            x       y       z     vdW  Elec       q    Type
REMARK                         _______ _______ _______ _____ _____    ______ ____
ROOT
ATOM      1  C   UNL     1       2.008   8.075  18.874  0.00  0.00    +0.000 C 
ATOM      2  C   UNL     1       2.168   7.160  19.856  0.00  0.00    +0.000 C 
ATOM      3  C   UNL     1       3.110   5.960  19.821  0.00  0.00    +0.000 C 
ATOM      4  N   UNL     1       4.154   6.088  18.756  0.00  0.00    +0.000 NA
ATOM      5  C   UNL     1       3.503   6.577  17.480  0.00  0.00    +0.000 C 
ATOM      6  C   UNL     1       2.814   7.923  17.617  0.00  0.00    +0.000 C 
ENDROOT
BRANCH   1  13
ATOM      7  C   UNL     1      -1.985  10.699  17.149  0.00  0.00    +0.000 C 
ATOM      8  C   UNL     1      -0.821  10.568  18.091  0.00  0.00    +0.000 A 
ATOM      9  C   UNL     1      -0.470  11.635  18.917  0.00  0.00    +0.000 A 
ATOM     10  C   UNL     1       0.635  11.537  19.769  0.00  0.00    +0.000 A 
ATOM     11  C   UNL     1       1.022  12.696  20.640  0.00  0.00    +0.000 C 
ATOM     12  C   UNL     1       1.408  10.358  19.778  0.00  0.00    +0.000 A 
ATOM     13  C   UNL     1       1.100   9.273  18.949  0.00  0.00    +0.000 A 
ATOM     14  C   UNL     1      -0.038   9.398  18.118  0.00  0.00    +0.000 A 
ENDBRANCH   1  13
BRANCH   4  15
ATOM     15  S   UNL     1       5.001   4.636  18.312  0.00  0.00    +0.000 S 
ATOM     16  O   UNL     1       6.070   4.488  19.278  0.00  0.00    +0.000 OA
ATOM     17  O   UNL     1       3.968   3.632  18.147  0.00  0.00    +0.000 OA
BRANCH  15  18
ATOM     18  C   UNL     1       5.788   4.679  16.740  0.00  0.00    +0.000 A 
ATOM     19  C   UNL     1       5.486   3.782  15.716  0.00  0.00    +0.000 A 
ATOM     20  C   UNL     1       6.149   3.889  14.489  0.00  0.00    +0.000 A 
ATOM     21  C   UNL     1       7.100   4.877  14.332  0.00  0.00    +0.000 A 
ATOM     22  N   UNL     1       7.428   5.738  15.311  0.00  0.00    +0.000 NA
ATOM     23  C   UNL     1       6.791   5.646  16.528  0.00  0.00    +0.000 A 
BRANCH  23  24
ATOM     24  C   UNL     1       7.312   6.635  17.578  0.00  0.00    +0.000 C 
ATOM     25  F   UNL     1       6.407   7.358  18.282  0.00  0.00    +0.000 F 
ATOM     26  F   UNL     1       8.076   6.008  18.524  0.00  0.00    +0.000 F 
ATOM     27  F   UNL     1       8.136   7.576  17.021  0.00  0.00    +0.000 F 
ENDBRANCH  23  24
ENDBRANCH  15  18
ENDBRANCH   4  15
TORSDOF 4
ENDMDL
MODEL 7
REMARK VINA RESULT:      -8.3      1.599      2.008
REMARK  Name = 
REMARK  6 active torsions:
REMARK  status: ('A' for Active; 'I' for Inactive)
REMARK    1  A    between atoms: C_1  and  C_2
REMARK    2  A    between atoms: C_4  and  C_5
REMARK    3  A    between atoms: C_7  and  C_8
REMARK    4  A    between atoms: N_11  and  S_12
REMARK    5  A    between atoms: S_12  and  C_15
REMARK    6  A    between atoms: C_20  and  C_21
REMARK                            x       y       z     vdW  Elec       q    Type
REMARK                         _______ _______ _______ _____ _____    ______ ____
ROOT
ATOM      1  C   UNL     1       1.963   8.369  18.548  0.00  0.00    +0.000 C 
ATOM      2  C   UNL     1       2.039   7.505  19.585  0.00  0.00    +0.000 C 
ATOM      3  C   UNL     1       2.977   6.305  19.688  0.00  0.00    +0.000 C 
ATOM      4  N   UNL     1       4.105   6.380  18.708  0.00  0.00    +0.000 NA
ATOM      5  C   UNL     1       3.563   6.803  17.360  0.00  0.00    +0.000 C 
ATOM      6  C   UNL     1       2.869   8.154  17.370  0.00  0.00    +0.000 C 
ENDROOT
BRANCH   1  13
ATOM      7  C   UNL     1       0.973  13.217  19.697  0.00  0.00    +0.000 C 
ATOM      8  C   UNL     1       0.555  11.915  19.072  0.00  0.00    +0.000 A 
ATOM      9  C   UNL     1      -0.743  11.758  18.589  0.00  0.00    +0.000 A 
ATOM     10  C   UNL     1      -1.152  10.538  18.042  0.00  0.00    +0.000 A 
ATOM     11  C   UNL     1      -2.558  10.368  17.544  0.00  0.00    +0.000 C 
ATOM     12  C   UNL     1      -0.250   9.456  17.993  0.00  0.00    +0.000 A 
ATOM     13  C   UNL     1       1.056   9.567  18.486  0.00  0.00    +0.000 A 
ATOM     14  C   UNL     1       1.442  10.822  19.011  0.00  0.00    +0.000 A 
ENDBRANCH   1  13
BRANCH   4  15
ATOM     15  S   UNL     1       4.981   4.908  18.409  0.00  0.00    +0.000 S 
ATOM     16  O   UNL     1       6.048   4.875  19.388  0.00  0.00    +0.000 OA
ATOM     17  O   UNL     1       3.968   3.873  18.339  0.00  0.00    +0.000 OA
BRANCH  15  18
ATOM     18  C   UNL     1       5.775   4.814  16.843  0.00  0.00    +0.000 A 
ATOM     19  C   UNL     1       5.469   3.837  15.896  0.00  0.00    +0.000 A 
ATOM     20  C   UNL     1       6.138   3.836  14.667  0.00  0.00    +0.000 A 
ATOM     21  C   UNL     1       7.098   4.800  14.433  0.00  0.00    +0.000 A 
ATOM     22  N   UNL     1       7.430   5.736  15.339  0.00  0.00    +0.000 NA
ATOM     23  C   UNL     1       6.787   5.751  16.556  0.00  0.00    +0.000 A 
BRANCH  23  24
ATOM     24  C   UNL     1       7.313   6.819  17.522  0.00  0.00    +0.000 C 
ATOM     25  F   UNL     1       8.223   7.710  17.058  0.00  0.00    +0.000 F 
ATOM     26  F   UNL     1       6.297   7.584  18.029  0.00  0.00    +0.000 F 
ATOM     27  F   UNL     1       7.916   6.259  18.616  0.00  0.00    +0.000 F 
ENDBRANCH  23  24
ENDBRANCH  15  18
ENDBRANCH   4  15
TORSDOF 4
ENDMDL
MODEL 8
REMARK VINA RESULT:      -8.3      5.599      9.379
REMARK  Name = 
REMARK  6 active torsions:
REMARK  status: ('A' for Active; 'I' for Inactive)
REMARK    1  A    between atoms: C_1  and  C_2
REMARK    2  A    between atoms: C_4  and  C_5
REMARK    3  A    between atoms: C_7  and  C_8
REMARK    4  A    between atoms: N_11  and  S_12
REMARK    5  A    between atoms: S_12  and  C_15
REMARK    6  A    between atoms: C_20  and  C_21
REMARK                            x       y       z     vdW  Elec       q    Type
REMARK                         _______ _______ _______ _____ _____    ______ ____
ROOT
ATOM      1  C   UNL     1       2.028   8.169  18.778  0.00  0.00    +0.000 C 
ATOM      2  C   UNL     1       1.595   8.222  20.058  0.00  0.00    +0.000 C 
ATOM      3  C   UNL     1       0.908   9.410  20.725  0.00  0.00    +0.000 C 
ATOM      4  N   UNL     1       0.384  10.397  19.729  0.00  0.00    +0.000 NA
ATOM      5  C   UNL     1       1.434  10.630  18.664  0.00  0.00    +0.000 C 
ATOM      6  C   UNL     1       1.833   9.376  17.907  0.00  0.00    +0.000 C 
ENDROOT
BRANCH   1  13
ATOM      7  C   UNL     1       2.132   3.171  17.870  0.00  0.00    +0.000 C 
ATOM      8  C   UNL     1       2.742   4.537  17.715  0.00  0.00    +0.000 A 
ATOM      9  C   UNL     1       3.996   4.676  17.123  0.00  0.00    +0.000 A 
ATOM     10  C   UNL     1       4.589   5.938  17.010  0.00  0.00    +0.000 A 
ATOM     11  C   UNL     1       5.950   6.079  16.393  0.00  0.00    +0.000 C 
ATOM     12  C   UNL     1       3.920   7.072  17.512  0.00  0.00    +0.000 A 
ATOM     13  C   UNL     1       2.669   6.971  18.131  0.00  0.00    +0.000 A 
ATOM     14  C   UNL     1       2.089   5.684  18.207  0.00  0.00    +0.000 A 
ENDBRANCH   1  13
BRANCH   4  15
ATOM     15  S   UNL     1      -0.018  11.978  20.332  0.00  0.00    +0.000 S 
ATOM     16  O   UNL     1       0.603  12.075  21.636  0.00  0.00    +0.000 OA
ATOM     17  O   UNL     1       0.311  12.888  19.253  0.00  0.00    +0.000 OA
BRANCH  15  18
ATOM     18  C   UNL     1      -1.732  12.261  20.603  0.00  0.00    +0.000 A 
ATOM     19  C   UNL     1      -2.258  12.586  21.854  0.00  0.00    +0.000 A 
ATOM     20  C   UNL     1      -3.632  12.807  21.986  0.00  0.00    +0.000 A 
ATOM     21  C   UNL     1      -4.436  12.683  20.870  0.00  0.00    +0.000 A 
ATOM     22  N   UNL     1      -3.958  12.345  19.659  0.00  0.00    +0.000 NA
ATOM     23  C   UNL     1      -2.608  12.118  19.509  0.00  0.00    +0.000 A 
BRANCH  23  24
ATOM     24  C   UNL     1      -2.208  11.668  18.099  0.00  0.00    +0.000 C 
ATOM     25  F   UNL     1      -1.245  12.370  17.452  0.00  0.00    +0.000 F 
ATOM     26  F   UNL     1      -1.767  10.373  18.090  0.00  0.00    +0.000 F 
ATOM     27  F   UNL     1      -3.274  11.688  17.240  0.00  0.00    +0.000 F 
ENDBRANCH  23  24
ENDBRANCH  15  18
ENDBRANCH   4  15
TORSDOF 4
ENDMDL
MODEL 9
REMARK VINA RESULT:      -8.2      5.424      9.304
REMARK  Name = 
REMARK  6 active torsions:
REMARK  status: ('A' for Active; 'I' for Inactive)
REMARK    1  A    between atoms: C_1  and  C_2
REMARK    2  A    between atoms: C_4  and  C_5
REMARK    3  A    between atoms: C_7  and  C_8
REMARK    4  A    between atoms: N_11  and  S_12
REMARK    5  A    between atoms: S_12  and  C_15
REMARK    6  A    between atoms: C_20  and  C_21
REMARK                            x       y       z     vdW  Elec       q    Type
REMARK                         _______ _______ _______ _____ _____    ______ ____
ROOT
ATOM      1  C   UNL     1       2.211   7.761  18.805  0.00  0.00    +0.000 C 
ATOM      2  C   UNL     1       1.753   7.915  20.067  0.00  0.00    +0.000 C 
ATOM      3  C   UNL     1       1.114   9.176  20.643  0.00  0.00    +0.000 C 
ATOM      4  N   UNL     1       0.666  10.125  19.576  0.00  0.00    +0.000 NA
ATOM      5  C   UNL     1       1.751  10.237  18.526  0.00  0.00    +0.000 C 
ATOM      6  C   UNL     1       2.100   8.920  17.857  0.00  0.00    +0.000 C 
ENDROOT
BRANCH   1  13
ATOM      7  C   UNL     1       5.658   5.397  15.917  0.00  0.00    +0.000 C 
ATOM      8  C   UNL     1       4.456   5.343  16.819  0.00  0.00    +0.000 A 
ATOM      9  C   UNL     1       3.777   4.139  17.003  0.00  0.00    +0.000 A 
ATOM     10  C   UNL     1       2.635   4.088  17.809  0.00  0.00    +0.000 A 
ATOM     11  C   UNL     1       1.894   2.794  17.985  0.00  0.00    +0.000 C 
ATOM     12  C   UNL     1       2.160   5.263  18.425  0.00  0.00    +0.000 A 
ATOM     13  C   UNL     1       2.803   6.494  18.249  0.00  0.00    +0.000 A 
ATOM     14  C   UNL     1       3.967   6.505  17.447  0.00  0.00    +0.000 A 
ENDBRANCH   1  13
BRANCH   4  15
ATOM     15  S   UNL     1       0.334  11.758  20.071  0.00  0.00    +0.000 S 
ATOM     16  O   UNL     1       1.058  11.953  21.309  0.00  0.00    +0.000 OA
ATOM     17  O   UNL     1       0.587  12.568  18.895  0.00  0.00    +0.000 OA
BRANCH  15  18
ATOM     18  C   UNL     1      -1.350  12.098  20.451  0.00  0.00    +0.000 A 
ATOM     19  C   UNL     1      -1.788  12.407  21.738  0.00  0.00    +0.000 A 
ATOM     20  C   UNL     1      -3.143  12.675  21.958  0.00  0.00    +0.000 A 
ATOM     21  C   UNL     1      -4.014  12.611  20.889  0.00  0.00    +0.000 A 
ATOM     22  N   UNL     1      -3.622  12.289  19.644  0.00  0.00    +0.000 NA
ATOM     23  C   UNL     1      -2.293  12.017  19.408  0.00  0.00    +0.000 A 
BRANCH  23  24
ATOM     24  C   UNL     1      -1.994  11.591  17.966  0.00  0.00    +0.000 C 
ATOM     25  F   UNL     1      -1.394  10.392  17.763  0.00  0.00    +0.000 F 
ATOM     26  F   UNL     1      -3.132  11.549  17.207  0.00  0.00    +0.000 F 
ATOM     27  F   UNL     1      -1.177  12.489  17.333  0.00  0.00    +0.000 F 
ENDBRANCH  23  24
ENDBRANCH  15  18
ENDBRANCH   4  15
TORSDOF 4
ENDMDL
