MODEL 1
REMARK VINA RESULT:      -7.9      0.000      0.000
REMARK  Name = 
REMARK  4 active torsions:
REMARK  status: ('A' for Active; 'I' for Inactive)
REMARK    1  A    between atoms: C_2  and  C_3
REMARK    2  A    between atoms: C_5  and  O_6
REMARK    3  A    between atoms: N_17  and  S_18
REMARK    4  A    between atoms: S_18  and  C_21
REMARK                            x       y       z     vdW  Elec       q    Type
REMARK                         _______ _______ _______ _____ _____    ______ ____
ROOT
ATOM      1  O   UNL     1       1.836   6.537  21.163  0.00  0.00    +0.000 OA
ATOM      2  C   UNL     1       1.957   7.065  20.058  0.00  0.00    +0.000 C 
ATOM      3  N   UNL     1       1.422   8.340  19.797  0.00  0.00    +0.000 N 
ATOM      4  C   UNL     1       0.851   9.060  20.950  0.00  0.00    +0.000 C 
ATOM      5  C   UNL     1      -0.261  10.041  20.547  0.00  0.00    +0.000 C 
ATOM      6  N   UNL     1       0.156  10.959  19.443  0.00  0.00    +0.000 NA
ATOM      7  C   UNL     1       0.563  10.144  18.261  0.00  0.00    +0.000 C 
ATOM      8  C   UNL     1       1.692   9.171  18.610  0.00  0.00    +0.000 C 
ENDROOT
BRANCH   2   9
ATOM      9  C   UNL     1       2.668   6.292  18.993  0.00  0.00    +0.000 A 
ATOM     10  C   UNL     1       3.741   6.886  18.330  0.00  0.00    +0.000 A 
ATOM     11  C   UNL     1       4.304   6.209  17.277  0.00  0.00    +0.000 A 
ATOM     12  N   UNL     1       3.983   4.959  16.937  0.00  0.00    +0.000 NA
ATOM     13  C   UNL     1       3.060   4.320  17.667  0.00  0.00    +0.000 A 
ATOM     14  C   UNL     1       2.846   2.978  17.383  0.00  0.00    +0.000 A 
ATOM     15  C   UNL     1       1.923   2.210  18.091  0.00  0.00    +0.000 A 
ATOM     16  C   UNL     1       1.157   2.806  19.080  0.00  0.00    +0.000 A 
ATOM     17  C   UNL     1       1.341   4.159  19.371  0.00  0.00    +0.000 A 
ATOM     18  C   UNL     1       2.325   4.939  18.702  0.00  0.00    +0.000 A 
BRANCH  11  19
ATOM     19  O   UNL     1       5.232   6.802  16.475  0.00  0.00    +0.000 OA
ATOM     20  H   UNL     1       5.139   6.452  15.578  0.00  0.00    +0.000 HD
ENDBRANCH  11  19
ENDBRANCH   2   9
BRANCH   6  21
ATOM     21  S   UNL     1       1.233  12.233  19.819  0.00  0.00    +0.000 S 
ATOM     22  O   UNL     1       1.774  12.024  21.143  0.00  0.00    +0.000 OA
ATOM     23  O   UNL     1       2.130  12.368  18.695  0.00  0.00    +0.000 OA
BRANCH  21  24
ATOM     24  C   UNL     1       0.195  13.655  19.824  0.00  0.00    +0.000 A 
ATOM     25  C   UNL     1       0.358  14.623  18.830  0.00  0.00    +0.000 A 
ATOM     26  C   UNL     1      -0.420  15.774  18.875  0.00  0.00    +0.000 A 
ATOM     27  F   UNL     1      -0.271  16.706  17.926  0.00  0.00    +0.000 F 
ATOM     28  C   UNL     1      -1.349  15.974  19.892  0.00  0.00    +0.000 A 
ATOM     29  C   UNL     1      -1.503  15.005  20.884  0.00  0.00    +0.000 A 
ATOM     30  C   UNL     1      -0.722  13.851  20.850  0.00  0.00    +0.000 A 
ATOM     31  F   UNL     1      -0.911  12.931  21.804  0.00  0.00    +0.000 F 
ENDBRANCH  21  24
ENDBRANCH   6  21
TORSDOF 4
ENDMDL
MODEL 2
REMARK VINA RESULT:      -7.8      2.416      2.977
REMARK  Name = 
REMARK  4 active torsions:
REMARK  status: ('A' for Active; 'I' for Inactive)
REMARK    1  A    between atoms: C_2  and  C_3
REMARK    2  A    between atoms: C_5  and  O_6
REMARK    3  A    between atoms: N_17  and  S_18
REMARK    4  A    between atoms: S_18  and  C_21
REMARK                            x       y       z     vdW  Elec       q    Type
REMARK                         _______ _______ _______ _____ _____    ______ ____
ROOT
ATOM      1  O   UNL     1       3.289   7.590  16.613  0.00  0.00    +0.000 OA
ATOM      2  C   UNL     1       3.136   7.360  17.812  0.00  0.00    +0.000 C 
ATOM      3  N   UNL     1       2.427   8.249  18.641  0.00  0.00    +0.000 N 
ATOM      4  C   UNL     1       1.755   9.377  17.970  0.00  0.00    +0.000 C 
ATOM      5  C   UNL     1       1.608  10.606  18.878  0.00  0.00    +0.000 C 
ATOM      6  N   UNL     1       0.993  10.273  20.200  0.00  0.00    +0.000 NA
ATOM      7  C   UNL     1       1.831   9.242  20.879  0.00  0.00    +0.000 C 
ATOM      8  C   UNL     1       1.980   7.983  20.020  0.00  0.00    +0.000 C 
ENDROOT
BRANCH   2   9
ATOM      9  C   UNL     1       3.757   6.116  18.364  0.00  0.00    +0.000 A 
ATOM     10  C   UNL     1       5.022   6.194  18.946  0.00  0.00    +0.000 A 
ATOM     11  C   UNL     1       5.625   5.026  19.338  0.00  0.00    +0.000 A 
ATOM     12  N   UNL     1       5.022   3.836  19.330  0.00  0.00    +0.000 NA
ATOM     13  C   UNL     1       3.749   3.772  18.919  0.00  0.00    +0.000 A 
ATOM     14  C   UNL     1       3.100   2.553  19.052  0.00  0.00    +0.000 A 
ATOM     15  C   UNL     1       1.770   2.376  18.673  0.00  0.00    +0.000 A 
ATOM     16  C   UNL     1       1.079   3.433  18.103  0.00  0.00    +0.000 A 
ATOM     17  C   UNL     1       1.716   4.665  17.941  0.00  0.00    +0.000 A 
ATOM     18  C   UNL     1       3.052   4.878  18.383  0.00  0.00    +0.000 A 
BRANCH  11  19
ATOM     19  O   UNL     1       6.925   5.007  19.747  0.00  0.00    +0.000 OA
ATOM     20  H   UNL     1       7.289   4.124  19.590  0.00  0.00    +0.000 HD
ENDBRANCH  11  19
ENDBRANCH   2   9
BRANCH   6  21
ATOM     21  S   UNL     1      -0.686   9.955  20.249  0.00  0.00    +0.000 S 
ATOM     22  O   UNL     1      -1.211   9.959  18.902  0.00  0.00    +0.000 OA
ATOM     23  O   UNL     1      -0.867   8.789  21.082  0.00  0.00    +0.000 OA
BRANCH  21  24
ATOM     24  C   UNL     1      -1.335  11.330  21.138  0.00  0.00    +0.000 A 
ATOM     25  C   UNL     1      -2.112  12.275  20.462  0.00  0.00    +0.000 A 
ATOM     26  C   UNL     1      -2.569  13.390  21.153  0.00  0.00    +0.000 A 
ATOM     27  F   UNL     1      -3.315  14.300  20.514  0.00  0.00    +0.000 F 
ATOM     28  C   UNL     1      -2.261  13.580  22.498  0.00  0.00    +0.000 A 
ATOM     29  C   UNL     1      -1.481  12.634  23.164  0.00  0.00    +0.000 A 
ATOM     30  C   UNL     1      -1.013  11.516  22.476  0.00  0.00    +0.000 A 
ATOM     31  F   UNL     1      -0.286  10.617  23.152  0.00  0.00    +0.000 F 
ENDBRANCH  21  24
ENDBRANCH   6  21
TORSDOF 4
ENDMDL
MODEL 3
REMARK VINA RESULT:      -7.6      7.321      8.794
REMARK  Name = 
REMARK  4 active torsions:
REMARK  status: ('A' for Active; 'I' for Inactive)
REMARK    1  A    between atoms: C_2  and  C_3
REMARK    2  A    between atoms: C_5  and  O_6
REMARK    3  A    between atoms: N_17  and  S_18
REMARK    4  A    between atoms: S_18  and  C_21
REMARK                            x       y       z     vdW  Elec       q    Type
REMARK                         _______ _______ _______ _____ _____    ______ ____
ROOT
ATOM      1  O   UNL     1       8.516  15.981  20.980  0.00  0.00    +0.000 OA
ATOM      2  C   UNL     1       8.220  15.479  19.896  0.00  0.00    +0.000 C 
ATOM      3  N   UNL     1       6.877  15.281  19.527  0.00  0.00    +0.000 N 
ATOM      4  C   UNL     1       5.858  15.843  20.432  0.00  0.00    +0.000 C 
ATOM      5  C   UNL     1       4.532  15.068  20.389  0.00  0.00    +0.000 C 
ATOM      6  N   UNL     1       4.023  14.879  18.995  0.00  0.00    +0.000 NA
ATOM      7  C   UNL     1       5.056  14.158  18.195  0.00  0.00    +0.000 C 
ATOM      8  C   UNL     1       6.389  14.911  18.186  0.00  0.00    +0.000 C 
ENDROOT
BRANCH   2   9
ATOM      9  C   UNL     1       9.340  15.058  18.997  0.00  0.00    +0.000 A 
ATOM     10  C   UNL     1       9.693  15.882  17.929  0.00  0.00    +0.000 A 
ATOM     11  C   UNL     1      10.640  15.424  17.047  0.00  0.00    +0.000 A 
ATOM     12  N   UNL     1      11.346  14.306  17.225  0.00  0.00    +0.000 NA
ATOM     13  C   UNL     1      11.125  13.584  18.331  0.00  0.00    +0.000 A 
ATOM     14  C   UNL     1      11.967  12.506  18.563  0.00  0.00    +0.000 A 
ATOM     15  C   UNL     1      11.840  11.697  19.691  0.00  0.00    +0.000 A 
ATOM     16  C   UNL     1      10.815  11.941  20.592  0.00  0.00    +0.000 A 
ATOM     17  C   UNL     1       9.944  13.009  20.371  0.00  0.00    +0.000 A 
ATOM     18  C   UNL     1      10.102  13.882  19.258  0.00  0.00    +0.000 A 
BRANCH  11  19
ATOM     19  O   UNL     1      10.904  16.092  15.889  0.00  0.00    +0.000 OA
ATOM     20  H   UNL     1      10.606  17.009  15.983  0.00  0.00    +0.000 HD
ENDBRANCH  11  19
ENDBRANCH   2   9
BRANCH   6  21
ATOM     21  S   UNL     1       3.337  16.228  18.200  0.00  0.00    +0.000 S 
ATOM     22  O   UNL     1       3.988  17.434  18.660  0.00  0.00    +0.000 OA
ATOM     23  O   UNL     1       3.323  15.919  16.789  0.00  0.00    +0.000 OA
BRANCH  21  24
ATOM     24  C   UNL     1       1.664  16.215  18.747  0.00  0.00    +0.000 A 
ATOM     25  C   UNL     1       1.096  17.395  19.235  0.00  0.00    +0.000 A 
ATOM     26  C   UNL     1      -0.204  17.365  19.724  0.00  0.00    +0.000 A 
ATOM     27  F   UNL     1      -0.756  18.491  20.192  0.00  0.00    +0.000 F 
ATOM     28  C   UNL     1      -0.941  16.184  19.739  0.00  0.00    +0.000 A 
ATOM     29  C   UNL     1      -0.365  15.009  19.256  0.00  0.00    +0.000 A 
ATOM     30  C   UNL     1       0.941  15.029  18.769  0.00  0.00    +0.000 A 
ATOM     31  F   UNL     1       1.455  13.889  18.291  0.00  0.00    +0.000 F 
ENDBRANCH  21  24
ENDBRANCH   6  21
TORSDOF 4
ENDMDL
MODEL 4
REMARK VINA RESULT:      -7.5      2.453      3.132
REMARK  Name = 
REMARK  4 active torsions:
REMARK  status: ('A' for Active; 'I' for Inactive)
REMARK    1  A    between atoms: C_2  and  C_3
REMARK    2  A    between atoms: C_5  and  O_6
REMARK    3  A    between atoms: N_17  and  S_18
REMARK    4  A    between atoms: S_18  and  C_21
REMARK                            x       y       z     vdW  Elec       q    Type
REMARK                         _______ _______ _______ _____ _____    ______ ____
ROOT
ATOM      1  O   UNL     1       3.378   7.583  16.547  0.00  0.00    +0.000 OA
ATOM      2  C   UNL     1       3.194   7.369  17.745  0.00  0.00    +0.000 C 
ATOM      3  N   UNL     1       2.475   8.276  18.545  0.00  0.00    +0.000 N 
ATOM      4  C   UNL     1       1.833   9.402  17.844  0.00  0.00    +0.000 C 
ATOM      5  C   UNL     1       1.677  10.645  18.733  0.00  0.00    +0.000 C 
ATOM      6  N   UNL     1       1.027  10.335  20.045  0.00  0.00    +0.000 NA
ATOM      7  C   UNL     1       1.836   9.303  20.756  0.00  0.00    +0.000 C 
ATOM      8  C   UNL     1       1.991   8.032  19.917  0.00  0.00    +0.000 C 
ENDROOT
BRANCH   2   9
ATOM      9  C   UNL     1       3.788   6.126  18.327  0.00  0.00    +0.000 A 
ATOM     10  C   UNL     1       5.046   6.193  18.924  0.00  0.00    +0.000 A 
ATOM     11  C   UNL     1       5.625   5.022  19.345  0.00  0.00    +0.000 A 
ATOM     12  N   UNL     1       5.002   3.842  19.350  0.00  0.00    +0.000 NA
ATOM     13  C   UNL     1       3.733   3.792  18.924  0.00  0.00    +0.000 A 
ATOM     14  C   UNL     1       3.063   2.586  19.070  0.00  0.00    +0.000 A 
ATOM     15  C   UNL     1       1.735   2.425  18.678  0.00  0.00    +0.000 A 
ATOM     16  C   UNL     1       1.069   3.482  18.079  0.00  0.00    +0.000 A 
ATOM     17  C   UNL     1       1.728   4.700  17.904  0.00  0.00    +0.000 A 
ATOM     18  C   UNL     1       3.062   4.899  18.359  0.00  0.00    +0.000 A 
BRANCH  11  19
ATOM     19  O   UNL     1       6.919   4.990  19.771  0.00  0.00    +0.000 OA
ATOM     20  H   UNL     1       7.105   4.115  20.139  0.00  0.00    +0.000 HD
ENDBRANCH  11  19
ENDBRANCH   2   9
BRANCH   6  21
ATOM     21  S   UNL     1      -0.656  10.036  20.056  0.00  0.00    +0.000 S 
ATOM     22  O   UNL     1      -1.122   9.880  18.696  0.00  0.00    +0.000 OA
ATOM     23  O   UNL     1      -0.887   8.981  21.015  0.00  0.00    +0.000 OA
BRANCH  21  24
ATOM     24  C   UNL     1      -1.327  11.513  20.742  0.00  0.00    +0.000 A 
ATOM     25  C   UNL     1      -0.897  11.937  22.002  0.00  0.00    +0.000 A 
ATOM     26  C   UNL     1      -1.475  13.068  22.566  0.00  0.00    +0.000 A 
ATOM     27  F   UNL     1      -1.069  13.482  23.772  0.00  0.00    +0.000 F 
ATOM     28  C   UNL     1      -2.472  13.775  21.899  0.00  0.00    +0.000 A 
ATOM     29  C   UNL     1      -2.900  13.342  20.644  0.00  0.00    +0.000 A 
ATOM     30  C   UNL     1      -2.329  12.205  20.073  0.00  0.00    +0.000 A 
ATOM     31  F   UNL     1      -2.746  11.831  18.858  0.00  0.00    +0.000 F 
ENDBRANCH  21  24
ENDBRANCH   6  21
TORSDOF 4
ENDMDL
MODEL 5
REMARK VINA RESULT:      -7.5      1.116      1.505
REMARK  Name = 
REMARK  4 active torsions:
REMARK  status: ('A' for Active; 'I' for Inactive)
REMARK    1  A    between atoms: C_2  and  C_3
REMARK    2  A    between atoms: C_5  and  O_6
REMARK    3  A    between atoms: N_17  and  S_18
REMARK    4  A    between atoms: S_18  and  C_21
REMARK                            x       y       z     vdW  Elec       q    Type
REMARK                         _______ _______ _______ _____ _____    ______ ____
ROOT
ATOM      1  O   UNL     1       2.101   6.390  21.069  0.00  0.00    +0.000 OA
ATOM      2  C   UNL     1       2.148   6.960  19.980  0.00  0.00    +0.000 C 
ATOM      3  N   UNL     1       1.485   8.183  19.768  0.00  0.00    +0.000 N 
ATOM      4  C   UNL     1       0.868   8.808  20.952  0.00  0.00    +0.000 C 
ATOM      5  C   UNL     1      -0.342   9.685  20.598  0.00  0.00    +0.000 C 
ATOM      6  N   UNL     1      -0.039  10.674  19.517  0.00  0.00    +0.000 NA
ATOM      7  C   UNL     1       0.424   9.938  18.303  0.00  0.00    +0.000 C 
ATOM      8  C   UNL     1       1.650   9.072  18.603  0.00  0.00    +0.000 C 
ENDROOT
BRANCH   2   9
ATOM      9  C   UNL     1       2.912   6.294  18.880  0.00  0.00    +0.000 A 
ATOM     10  C   UNL     1       3.980   6.971  18.293  0.00  0.00    +0.000 A 
ATOM     11  C   UNL     1       4.592   6.395  17.208  0.00  0.00    +0.000 A 
ATOM     12  N   UNL     1       4.323   5.164  16.767  0.00  0.00    +0.000 NA
ATOM     13  C   UNL     1       3.405   4.441  17.421  0.00  0.00    +0.000 A 
ATOM     14  C   UNL     1       3.245   3.118  17.033  0.00  0.00    +0.000 A 
ATOM     15  C   UNL     1       2.332   2.269  17.656  0.00  0.00    +0.000 A 
ATOM     16  C   UNL     1       1.521   2.764  18.665  0.00  0.00    +0.000 A 
ATOM     17  C   UNL     1       1.651   4.096  19.061  0.00  0.00    +0.000 A 
ATOM     18  C   UNL     1       2.624   4.956  18.479  0.00  0.00    +0.000 A 
BRANCH  11  19
ATOM     19  O   UNL     1       5.518   7.076  16.478  0.00  0.00    +0.000 OA
ATOM     20  H   UNL     1       5.450   8.019  16.689  0.00  0.00    +0.000 HD
ENDBRANCH  11  19
ENDBRANCH   2   9
BRANCH   6  21
ATOM     21  S   UNL     1       0.914  12.035  19.916  0.00  0.00    +0.000 S 
ATOM     22  O   UNL     1       1.703  11.737  21.090  0.00  0.00    +0.000 OA
ATOM     23  O   UNL     1       1.573  12.455  18.701  0.00  0.00    +0.000 OA
BRANCH  21  24
ATOM     24  C   UNL     1      -0.281  13.268  20.307  0.00  0.00    +0.000 A 
ATOM     25  C   UNL     1      -1.638  12.933  20.291  0.00  0.00    +0.000 A 
ATOM     26  C   UNL     1      -2.580  13.924  20.538  0.00  0.00    +0.000 A 
ATOM     27  F   UNL     1      -3.881  13.612  20.525  0.00  0.00    +0.000 F 
ATOM     28  C   UNL     1      -2.193  15.236  20.795  0.00  0.00    +0.000 A 
ATOM     29  C   UNL     1      -0.837  15.564  20.804  0.00  0.00    +0.000 A 
ATOM     30  C   UNL     1       0.114  14.577  20.551  0.00  0.00    +0.000 A 
ATOM     31  F   UNL     1       1.407  14.921  20.591  0.00  0.00    +0.000 F 
ENDBRANCH  21  24
ENDBRANCH   6  21
TORSDOF 4
ENDMDL
MODEL 6
REMARK VINA RESULT:      -7.4      1.009      1.788
REMARK  Name = 
REMARK  4 active torsions:
REMARK  status: ('A' for Active; 'I' for Inactive)
REMARK    1  A    between atoms: C_2  and  C_3
REMARK    2  A    between atoms: C_5  and  O_6
REMARK    3  A    between atoms: N_17  and  S_18
REMARK    4  A    between atoms: S_18  and  C_21
REMARK                            x       y       z     vdW  Elec       q    Type
REMARK                         _______ _______ _______ _____ _____    ______ ____
ROOT
ATOM      1  O   UNL     1       1.825   6.322  21.146  0.00  0.00    +0.000 OA
ATOM      2  C   UNL     1       1.960   6.922  20.080  0.00  0.00    +0.000 C 
ATOM      3  N   UNL     1       1.378   8.186  19.876  0.00  0.00    +0.000 N 
ATOM      4  C   UNL     1       0.735   8.809  21.047  0.00  0.00    +0.000 C 
ATOM      5  C   UNL     1      -0.405   9.764  20.662  0.00  0.00    +0.000 C 
ATOM      6  N   UNL     1       0.008  10.766  19.631  0.00  0.00    +0.000 NA
ATOM      7  C   UNL     1       0.493  10.042  18.419  0.00  0.00    +0.000 C 
ATOM      8  C   UNL     1       1.652   9.099  18.751  0.00  0.00    +0.000 C 
ENDROOT
BRANCH   2   9
ATOM      9  C   UNL     1       2.742   6.247  18.998  0.00  0.00    +0.000 A 
ATOM     10  C   UNL     1       3.829   6.914  18.434  0.00  0.00    +0.000 A 
ATOM     11  C   UNL     1       4.460   6.331  17.364  0.00  0.00    +0.000 A 
ATOM     12  N   UNL     1       4.191   5.102  16.919  0.00  0.00    +0.000 NA
ATOM     13  C   UNL     1       3.253   4.387  17.555  0.00  0.00    +0.000 A 
ATOM     14  C   UNL     1       3.091   3.065  17.165  0.00  0.00    +0.000 A 
ATOM     15  C   UNL     1       2.157   2.225  17.769  0.00  0.00    +0.000 A 
ATOM     16  C   UNL     1       1.328   2.728  18.759  0.00  0.00    +0.000 A 
ATOM     17  C   UNL     1       1.460   4.060  19.156  0.00  0.00    +0.000 A 
ATOM     18  C   UNL     1       2.453   4.911  18.594  0.00  0.00    +0.000 A 
BRANCH  11  19
ATOM     19  O   UNL     1       5.408   7.003  16.654  0.00  0.00    +0.000 OA
ATOM     20  H   UNL     1       5.887   7.594  17.253  0.00  0.00    +0.000 HD
ENDBRANCH  11  19
ENDBRANCH   2   9
BRANCH   6  21
ATOM     21  S   UNL     1       1.013  12.059  20.123  0.00  0.00    +0.000 S 
ATOM     22  O   UNL     1       1.907  11.599  21.161  0.00  0.00    +0.000 OA
ATOM     23  O   UNL     1       1.557  12.646  18.921  0.00  0.00    +0.000 OA
BRANCH  21  24
ATOM     24  C   UNL     1      -0.124  13.222  20.797  0.00  0.00    +0.000 A 
ATOM     25  C   UNL     1      -0.236  13.341  22.185  0.00  0.00    +0.000 A 
ATOM     26  C   UNL     1      -1.179  14.215  22.713  0.00  0.00    +0.000 A 
ATOM     27  F   UNL     1      -1.293  14.336  24.041  0.00  0.00    +0.000 F 
ATOM     28  C   UNL     1      -2.009  14.964  21.883  0.00  0.00    +0.000 A 
ATOM     29  C   UNL     1      -1.894  14.837  20.499  0.00  0.00    +0.000 A 
ATOM     30  C   UNL     1      -0.955  13.957  19.961  0.00  0.00    +0.000 A 
ATOM     31  F   UNL     1      -0.855  13.876  18.629  0.00  0.00    +0.000 F 
ENDBRANCH  21  24
ENDBRANCH   6  21
TORSDOF 4
ENDMDL
MODEL 7
REMARK VINA RESULT:      -7.4      7.401      8.621
REMARK  Name = 
REMARK  4 active torsions:
REMARK  status: ('A' for Active; 'I' for Inactive)
REMARK    1  A    between atoms: C_2  and  C_3
REMARK    2  A    between atoms: C_5  and  O_6
REMARK    3  A    between atoms: N_17  and  S_18
REMARK    4  A    between atoms: S_18  and  C_21
REMARK                            x       y       z     vdW  Elec       q    Type
REMARK                         _______ _______ _______ _____ _____    ______ ____
ROOT
ATOM      1  O   UNL     1       8.164  14.910  21.157  0.00  0.00    +0.000 OA
ATOM      2  C   UNL     1       7.881  14.939  19.960  0.00  0.00    +0.000 C 
ATOM      3  N   UNL     1       6.546  15.038  19.529  0.00  0.00    +0.000 N 
ATOM      4  C   UNL     1       5.533  15.257  20.576  0.00  0.00    +0.000 C 
ATOM      5  C   UNL     1       4.154  14.698  20.196  0.00  0.00    +0.000 C 
ATOM      6  N   UNL     1       3.698  15.159  18.848  0.00  0.00    +0.000 NA
ATOM      7  C   UNL     1       4.708  14.750  17.829  0.00  0.00    +0.000 C 
ATOM      8  C   UNL     1       6.095  15.312  18.152  0.00  0.00    +0.000 C 
ENDROOT
BRANCH   2   9
ATOM      9  C   UNL     1       9.006  14.835  18.979  0.00  0.00    +0.000 A 
ATOM     10  C   UNL     1       9.508  16.001  18.403  0.00  0.00    +0.000 A 
ATOM     11  C   UNL     1      10.457  15.877  17.419  0.00  0.00    +0.000 A 
ATOM     12  N   UNL     1      11.032  14.722  17.078  0.00  0.00    +0.000 NA
ATOM     13  C   UNL     1      10.668  13.614  17.735  0.00  0.00    +0.000 A 
ATOM     14  C   UNL     1      11.379  12.453  17.462  0.00  0.00    +0.000 A 
ATOM     15  C   UNL     1      11.098  11.246  18.100  0.00  0.00    +0.000 A 
ATOM     16  C   UNL     1      10.050  11.181  19.004  0.00  0.00    +0.000 A 
ATOM     17  C   UNL     1       9.309  12.331  19.282  0.00  0.00    +0.000 A 
ATOM     18  C   UNL     1       9.625  13.585  18.687  0.00  0.00    +0.000 A 
BRANCH  11  19
ATOM     19  O   UNL     1      10.860  16.956  16.691  0.00  0.00    +0.000 OA
ATOM     20  H   UNL     1      10.531  17.761  17.117  0.00  0.00    +0.000 HD
ENDBRANCH  11  19
ENDBRANCH   2   9
BRANCH   6  21
ATOM     21  S   UNL     1       3.159  16.773  18.691  0.00  0.00    +0.000 S 
ATOM     22  O   UNL     1       3.773  17.584  19.718  0.00  0.00    +0.000 OA
ATOM     23  O   UNL     1       3.324  17.136  17.302  0.00  0.00    +0.000 OA
BRANCH  21  24
ATOM     24  C   UNL     1       1.428  16.655  18.991  0.00  0.00    +0.000 A 
ATOM     25  C   UNL     1       0.935  15.577  19.731  0.00  0.00    +0.000 A 
ATOM     26  C   UNL     1      -0.437  15.454  19.912  0.00  0.00    +0.000 A 
ATOM     27  F   UNL     1      -0.917  14.425  20.620  0.00  0.00    +0.000 F 
ATOM     28  C   UNL     1      -1.321  16.381  19.365  0.00  0.00    +0.000 A 
ATOM     29  C   UNL     1      -0.822  17.451  18.624  0.00  0.00    +0.000 A 
ATOM     30  C   UNL     1       0.553  17.579  18.432  0.00  0.00    +0.000 A 
ATOM     31  F   UNL     1       1.000  18.631  17.735  0.00  0.00    +0.000 F 
ENDBRANCH  21  24
ENDBRANCH   6  21
TORSDOF 4
ENDMDL
MODEL 8
REMARK VINA RESULT:      -7.4      4.273      8.905
REMARK  Name = 
REMARK  4 active torsions:
REMARK  status: ('A' for Active; 'I' for Inactive)
REMARK    1  A    between atoms: C_2  and  C_3
REMARK    2  A    between atoms: C_5  and  O_6
REMARK    3  A    between atoms: N_17  and  S_18
REMARK    4  A    between atoms: S_18  and  C_21
REMARK                            x       y       z     vdW  Elec       q    Type
REMARK                         _______ _______ _______ _____ _____    ______ ____
ROOT
ATOM      1  O   UNL     1       1.913   9.340  17.684  0.00  0.00    +0.000 OA
ATOM      2  C   UNL     1       1.693   8.689  18.704  0.00  0.00    +0.000 C 
ATOM      3  N   UNL     1       2.056   7.332  18.795  0.00  0.00    +0.000 N 
ATOM      4  C   UNL     1       2.841   6.786  17.674  0.00  0.00    +0.000 C 
ATOM      5  C   UNL     1       2.628   5.278  17.476  0.00  0.00    +0.000 C 
ATOM      6  N   UNL     1       2.813   4.502  18.742  0.00  0.00    +0.000 NA
ATOM      7  C   UNL     1       1.863   5.017  19.771  0.00  0.00    +0.000 C 
ATOM      8  C   UNL     1       2.061   6.514  20.022  0.00  0.00    +0.000 C 
ENDROOT
BRANCH   2   9
ATOM      9  C   UNL     1       1.000   9.382  19.833  0.00  0.00    +0.000 A 
ATOM     10  C   UNL     1       1.500   9.232  21.126  0.00  0.00    +0.000 A 
ATOM     11  C   UNL     1       0.784   9.776  22.163  0.00  0.00    +0.000 A 
ATOM     12  N   UNL     1      -0.284  10.560  22.001  0.00  0.00    +0.000 NA
ATOM     13  C   UNL     1      -0.683  10.839  20.753  0.00  0.00    +0.000 A 
ATOM     14  C   UNL     1      -1.706  11.766  20.608  0.00  0.00    +0.000 A 
ATOM     15  C   UNL     1      -2.189  12.145  19.356  0.00  0.00    +0.000 A 
ATOM     16  C   UNL     1      -1.670  11.550  18.217  0.00  0.00    +0.000 A 
ATOM     17  C   UNL     1      -0.653  10.602  18.339  0.00  0.00    +0.000 A 
ATOM     18  C   UNL     1      -0.105  10.253  19.606  0.00  0.00    +0.000 A 
BRANCH  11  19
ATOM     19  O   UNL     1       1.116   9.519  23.459  0.00  0.00    +0.000 OA
ATOM     20  H   UNL     1       0.421   8.976  23.857  0.00  0.00    +0.000 HD
ENDBRANCH  11  19
ENDBRANCH   2   9
BRANCH   6  21
ATOM     21  S   UNL     1       4.406   4.267  19.315  0.00  0.00    +0.000 S 
ATOM     22  O   UNL     1       4.721   5.295  20.282  0.00  0.00    +0.000 OA
ATOM     23  O   UNL     1       4.515   2.877  19.690  0.00  0.00    +0.000 OA
BRANCH  21  24
ATOM     24  C   UNL     1       5.394   4.492  17.875  0.00  0.00    +0.000 A 
ATOM     25  C   UNL     1       6.275   5.575  17.812  0.00  0.00    +0.000 A 
ATOM     26  C   UNL     1       7.005   5.784  16.649  0.00  0.00    +0.000 A 
ATOM     27  F   UNL     1       7.851   6.819  16.581  0.00  0.00    +0.000 F 
ATOM     28  C   UNL     1       6.869   4.938  15.552  0.00  0.00    +0.000 A 
ATOM     29  C   UNL     1       5.985   3.861  15.620  0.00  0.00    +0.000 A 
ATOM     30  C   UNL     1       5.243   3.648  16.781  0.00  0.00    +0.000 A 
ATOM     31  F   UNL     1       4.421   2.592  16.821  0.00  0.00    +0.000 F 
ENDBRANCH  21  24
ENDBRANCH   6  21
TORSDOF 4
ENDMDL
MODEL 9
REMARK VINA RESULT:      -7.3      4.027      9.010
REMARK  Name = 
REMARK  4 active torsions:
REMARK  status: ('A' for Active; 'I' for Inactive)
REMARK    1  A    between atoms: C_2  and  C_3
REMARK    2  A    between atoms: C_5  and  O_6
REMARK    3  A    between atoms: N_17  and  S_18
REMARK    4  A    between atoms: S_18  and  C_21
REMARK                            x       y       z     vdW  Elec       q    Type
REMARK                         _______ _______ _______ _____ _____    ______ ____
ROOT
ATOM      1  O   UNL     1       0.194   9.167  21.306  0.00  0.00    +0.000 OA
ATOM      2  C   UNL     1       0.507   9.269  20.120  0.00  0.00    +0.000 C 
ATOM      3  N   UNL     1       1.428   8.385  19.531  0.00  0.00    +0.000 N 
ATOM      4  C   UNL     1       1.872   7.250  20.361  0.00  0.00    +0.000 C 
ATOM      5  C   UNL     1       3.279   6.758  19.991  0.00  0.00    +0.000 C 
ATOM      6  N   UNL     1       3.429   6.493  18.527  0.00  0.00    +0.000 NA
ATOM      7  C   UNL     1       3.116   7.743  17.773  0.00  0.00    +0.000 C 
ATOM      8  C   UNL     1       1.709   8.254  18.089  0.00  0.00    +0.000 C 
ENDROOT
BRANCH   2   9
ATOM      9  C   UNL     1      -0.104  10.386  19.336  0.00  0.00    +0.000 A 
ATOM     10  C   UNL     1      -1.265  10.140  18.603  0.00  0.00    +0.000 A 
ATOM     11  C   UNL     1      -1.743  11.142  17.796  0.00  0.00    +0.000 A 
ATOM     12  N   UNL     1      -1.252  12.382  17.776  0.00  0.00    +0.000 NA
ATOM     13  C   UNL     1      -0.232  12.675  18.594  0.00  0.00    +0.000 A 
ATOM     14  C   UNL     1       0.168  14.002  18.658  0.00  0.00    +0.000 A 
ATOM     15  C   UNL     1       1.206  14.423  19.489  0.00  0.00    +0.000 A 
ATOM     16  C   UNL     1       1.896  13.487  20.243  0.00  0.00    +0.000 A 
ATOM     17  C   UNL     1       1.524  12.143  20.181  0.00  0.00    +0.000 A 
ATOM     18  C   UNL     1       0.424  11.709  19.388  0.00  0.00    +0.000 A 
BRANCH  11  19
ATOM     19  O   UNL     1      -2.763  10.914  16.921  0.00  0.00    +0.000 OA
ATOM     20  H   UNL     1      -3.584  10.801  17.421  0.00  0.00    +0.000 HD
ENDBRANCH  11  19
ENDBRANCH   2   9
BRANCH   6  21
ATOM     21  S   UNL     1       2.697   5.088  17.885  0.00  0.00    +0.000 S 
ATOM     22  O   UNL     1       1.308   5.363  17.596  0.00  0.00    +0.000 OA
ATOM     23  O   UNL     1       3.563   4.608  16.833  0.00  0.00    +0.000 OA
BRANCH  21  24
ATOM     24  C   UNL     1       2.806   3.932  19.209  0.00  0.00    +0.000 A 
ATOM     25  C   UNL     1       1.678   3.689  19.998  0.00  0.00    +0.000 A 
ATOM     26  C   UNL     1       1.786   2.825  21.081  0.00  0.00    +0.000 A 
ATOM     27  F   UNL     1       0.711   2.586  21.841  0.00  0.00    +0.000 F 
ATOM     28  C   UNL     1       2.994   2.206  21.390  0.00  0.00    +0.000 A 
ATOM     29  C   UNL     1       4.117   2.457  20.600  0.00  0.00    +0.000 A 
ATOM     30  C   UNL     1       4.019   3.328  19.516  0.00  0.00    +0.000 A 
ATOM     31  F   UNL     1       5.109   3.528  18.766  0.00  0.00    +0.000 F 
ENDBRANCH  21  24
ENDBRANCH   6  21
TORSDOF 4
ENDMDL
