MODEL 1
REMARK VINA RESULT:      -9.2      0.000      0.000
REMARK  Name = 
REMARK  5 active torsions:
REMARK  status: ('A' for Active; 'I' for Inactive)
REMARK    1  A    between atoms: C_2  and  C_20
REMARK    2  A    between atoms: N_3  and  C_4
REMARK    3  A    between atoms: C_8  and  S_9
REMARK    4  A    between atoms: S_9  and  N_12
REMARK    5  A    between atoms: C_24  and  N_25
REMARK                            x       y       z     vdW  Elec       q    Type
REMARK                         _______ _______ _______ _____ _____    ______ ____
ROOT
ATOM      1  C   UNL     1       8.051   8.153  17.947  0.00  0.00    +0.000 A 
ATOM      2  C   UNL     1       8.462   7.355  19.018  0.00  0.00    +0.000 A 
ATOM      3  C   UNL     1       8.032   6.032  19.139  0.00  0.00    +0.000 A 
ATOM      4  C   UNL     1       7.169   5.494  18.189  0.00  0.00    +0.000 A 
ATOM      5  C   UNL     1       6.740   6.285  17.119  0.00  0.00    +0.000 A 
ATOM      6  C   UNL     1       7.159   7.620  17.008  0.00  0.00    +0.000 A 
ENDROOT
BRANCH   1   9
ATOM      7  O   UNL     1       9.237   9.981  19.926  0.00  0.00    +0.000 OA
ATOM      8  C   UNL     1       9.051  10.287  18.754  0.00  0.00    +0.000 C 
ATOM      9  N   UNL     1       8.501   9.484  17.764  0.00  0.00    +0.000 N 
ATOM     10  H   UNL     1       8.548   9.814  16.809  0.00  0.00    +0.000 HD
BRANCH   8  11
ATOM     11  C   UNL     1       9.549  11.615  18.314  0.00  0.00    +0.000 A 
ATOM     12  C   UNL     1      10.801  11.659  17.684  0.00  0.00    +0.000 A 
ATOM     13  C   UNL     1      11.322  12.870  17.234  0.00  0.00    +0.000 A 
ATOM     14  C   UNL     1      10.594  14.047  17.402  0.00  0.00    +0.000 A 
ATOM     15  C   UNL     1       9.342  14.014  18.034  0.00  0.00    +0.000 A 
ATOM     16  C   UNL     1       8.828  12.796  18.516  0.00  0.00    +0.000 A 
BRANCH  15  17
ATOM     17  N   UNL     1       8.572  15.194  18.168  0.00  0.00    +0.000 N 
ATOM     18  C   UNL     1       7.240  15.338  18.460  0.00  0.00    +0.000 A 
ATOM     19  N   UNL     1       6.951  16.616  18.550  0.00  0.00    +0.000 NA
ATOM     20  N   UNL     1       8.123  17.280  18.301  0.00  0.00    +0.000 NA
ATOM     21  N   UNL     1       9.113  16.428  18.071  0.00  0.00    +0.000 NA
ENDBRANCH  15  17
ENDBRANCH   8  11
ENDBRANCH   1   9
BRANCH   5  22
ATOM     22  S   UNL     1       5.544   5.626  15.968  0.00  0.00    +0.000 S 
ATOM     23  O   UNL     1       5.083   6.726  15.149  0.00  0.00    +0.000 OA
ATOM     24  O   UNL     1       6.136   4.444  15.369  0.00  0.00    +0.000 OA
BRANCH  22  25
ATOM     25  N   UNL     1       4.248   5.135  16.968  0.00  0.00    +0.000 NA
ATOM     26  C   UNL     1       4.144   3.699  17.286  0.00  0.00    +0.000 C 
ATOM     27  C   UNL     1       2.696   3.219  17.197  0.00  0.00    +0.000 C 
ATOM     28  C   UNL     1       1.881   3.460  18.462  0.00  0.00    +0.000 C 
ATOM     29  C   UNL     1       1.708   4.930  18.819  0.00  0.00    +0.000 C 
ATOM     30  C   UNL     1       3.028   5.609  19.166  0.00  0.00    +0.000 C 
ATOM     31  C   UNL     1       3.791   6.140  17.958  0.00  0.00    +0.000 C 
ENDBRANCH  22  25
ENDBRANCH   5  22
TORSDOF 5
ENDMDL
MODEL 2
REMARK VINA RESULT:      -9.1      0.358      1.157
REMARK  Name = 
REMARK  5 active torsions:
REMARK  status: ('A' for Active; 'I' for Inactive)
REMARK    1  A    between atoms: C_2  and  C_20
REMARK    2  A    between atoms: N_3  and  C_4
REMARK    3  A    between atoms: C_8  and  S_9
REMARK    4  A    between atoms: S_9  and  N_12
REMARK    5  A    between atoms: C_24  and  N_25
REMARK                            x       y       z     vdW  Elec       q    Type
REMARK                         _______ _______ _______ _____ _____    ______ ____
ROOT
ATOM      1  C   UNL     1       8.074   8.152  18.029  0.00  0.00    +0.000 A 
ATOM      2  C   UNL     1       8.532   7.351  19.079  0.00  0.00    +0.000 A 
ATOM      3  C   UNL     1       8.086   6.037  19.233  0.00  0.00    +0.000 A 
ATOM      4  C   UNL     1       7.159   5.510  18.339  0.00  0.00    +0.000 A 
ATOM      5  C   UNL     1       6.683   6.304  17.291  0.00  0.00    +0.000 A 
ATOM      6  C   UNL     1       7.119   7.630  17.148  0.00  0.00    +0.000 A 
ENDROOT
BRANCH   1   9
ATOM      7  O   UNL     1       9.170  10.059  19.984  0.00  0.00    +0.000 OA
ATOM      8  C   UNL     1       9.042  10.316  18.793  0.00  0.00    +0.000 C 
ATOM      9  N   UNL     1       8.537   9.472  17.813  0.00  0.00    +0.000 N 
ATOM     10  H   UNL     1       8.631   9.762  16.848  0.00  0.00    +0.000 HD
BRANCH   8  11
ATOM     11  C   UNL     1       9.566  11.623  18.322  0.00  0.00    +0.000 A 
ATOM     12  C   UNL     1      10.804  11.624  17.665  0.00  0.00    +0.000 A 
ATOM     13  C   UNL     1      11.348  12.814  17.186  0.00  0.00    +0.000 A 
ATOM     14  C   UNL     1      10.654  14.012  17.350  0.00  0.00    +0.000 A 
ATOM     15  C   UNL     1       9.416  14.023  18.009  0.00  0.00    +0.000 A 
ATOM     16  C   UNL     1       8.880  12.826  18.521  0.00  0.00    +0.000 A 
BRANCH  15  17
ATOM     17  N   UNL     1       8.681  15.225  18.141  0.00  0.00    +0.000 N 
ATOM     18  C   UNL     1       7.346  15.407  18.398  0.00  0.00    +0.000 A 
ATOM     19  N   UNL     1       7.095  16.692  18.500  0.00  0.00    +0.000 NA
ATOM     20  N   UNL     1       8.294  17.321  18.296  0.00  0.00    +0.000 NA
ATOM     21  N   UNL     1       9.263  16.442  18.078  0.00  0.00    +0.000 NA
ENDBRANCH  15  17
ENDBRANCH   8  11
ENDBRANCH   1   9
BRANCH   5  22
ATOM     22  S   UNL     1       5.410   5.662  16.216  0.00  0.00    +0.000 S 
ATOM     23  O   UNL     1       4.938   6.762  15.402  0.00  0.00    +0.000 OA
ATOM     24  O   UNL     1       5.935   4.453  15.608  0.00  0.00    +0.000 OA
BRANCH  22  25
ATOM     25  N   UNL     1       4.154   5.227  17.291  0.00  0.00    +0.000 NA
ATOM     26  C   UNL     1       3.391   6.322  17.918  0.00  0.00    +0.000 C 
ATOM     27  C   UNL     1       3.145   6.041  19.400  0.00  0.00    +0.000 C 
ATOM     28  C   UNL     1       1.929   5.163  19.675  0.00  0.00    +0.000 C 
ATOM     29  C   UNL     1       2.034   3.759  19.098  0.00  0.00    +0.000 C 
ATOM     30  C   UNL     1       2.083   3.752  17.574  0.00  0.00    +0.000 C 
ATOM     31  C   UNL     1       3.482   3.938  16.997  0.00  0.00    +0.000 C 
ENDBRANCH  22  25
ENDBRANCH   5  22
TORSDOF 5
ENDMDL
MODEL 3
REMARK VINA RESULT:      -9.0      5.237     10.351
REMARK  Name = 
REMARK  5 active torsions:
REMARK  status: ('A' for Active; 'I' for Inactive)
REMARK    1  A    between atoms: C_2  and  C_20
REMARK    2  A    between atoms: N_3  and  C_4
REMARK    3  A    between atoms: C_8  and  S_9
REMARK    4  A    between atoms: S_9  and  N_12
REMARK    5  A    between atoms: C_24  and  N_25
REMARK                            x       y       z     vdW  Elec       q    Type
REMARK                         _______ _______ _______ _____ _____    ______ ____
ROOT
ATOM      1  C   UNL     1       0.490   9.946  18.958  0.00  0.00    +0.000 A 
ATOM      2  C   UNL     1      -0.666  10.028  18.177  0.00  0.00    +0.000 A 
ATOM      3  C   UNL     1      -1.375  11.225  18.060  0.00  0.00    +0.000 A 
ATOM      4  C   UNL     1      -0.939  12.358  18.738  0.00  0.00    +0.000 A 
ATOM      5  C   UNL     1       0.209  12.288  19.533  0.00  0.00    +0.000 A 
ATOM      6  C   UNL     1       0.911  11.080  19.664  0.00  0.00    +0.000 A 
ENDROOT
BRANCH   1   9
ATOM      7  O   UNL     1       2.508   8.893  17.092  0.00  0.00    +0.000 OA
ATOM      8  C   UNL     1       2.199   8.332  18.136  0.00  0.00    +0.000 C 
ATOM      9  N   UNL     1       1.262   8.764  19.065  0.00  0.00    +0.000 N 
ATOM     10  H   UNL     1       1.220   8.279  19.952  0.00  0.00    +0.000 HD
BRANCH   8  11
ATOM     11  C   UNL     1       2.967   7.114  18.503  0.00  0.00    +0.000 A 
ATOM     12  C   UNL     1       2.470   6.328  19.551  0.00  0.00    +0.000 A 
ATOM     13  C   UNL     1       3.134   5.166  19.937  0.00  0.00    +0.000 A 
ATOM     14  C   UNL     1       4.295   4.773  19.273  0.00  0.00    +0.000 A 
ATOM     15  C   UNL     1       4.803   5.555  18.225  0.00  0.00    +0.000 A 
ATOM     16  C   UNL     1       4.150   6.745  17.854  0.00  0.00    +0.000 A 
BRANCH  15  17
ATOM     17  N   UNL     1       5.953   5.143  17.512  0.00  0.00    +0.000 N 
ATOM     18  C   UNL     1       6.261   5.301  16.184  0.00  0.00    +0.000 A 
ATOM     19  N   UNL     1       7.462   4.823  15.956  0.00  0.00    +0.000 NA
ATOM     20  N   UNL     1       7.908   4.351  17.162  0.00  0.00    +0.000 NA
ATOM     21  N   UNL     1       7.003   4.541  18.113  0.00  0.00    +0.000 NA
ENDBRANCH  15  17
ENDBRANCH   8  11
ENDBRANCH   1   9
BRANCH   5  22
ATOM     22  S   UNL     1       0.699  13.713  20.491  0.00  0.00    +0.000 S 
ATOM     23  O   UNL     1      -0.497  14.484  20.757  0.00  0.00    +0.000 OA
ATOM     24  O   UNL     1       1.535  13.232  21.575  0.00  0.00    +0.000 OA
BRANCH  22  25
ATOM     25  N   UNL     1       1.674  14.611  19.411  0.00  0.00    +0.000 NA
ATOM     26  C   UNL     1       1.663  16.079  19.551  0.00  0.00    +0.000 C 
ATOM     27  C   UNL     1       1.599  16.761  18.185  0.00  0.00    +0.000 C 
ATOM     28  C   UNL     1       2.955  16.930  17.509  0.00  0.00    +0.000 C 
ATOM     29  C   UNL     1       3.652  15.618  17.178  0.00  0.00    +0.000 C 
ATOM     30  C   UNL     1       4.024  14.820  18.422  0.00  0.00    +0.000 C 
ATOM     31  C   UNL     1       2.905  13.928  18.945  0.00  0.00    +0.000 C 
ENDBRANCH  22  25
ENDBRANCH   5  22
TORSDOF 5
ENDMDL
MODEL 4
REMARK VINA RESULT:      -9.0      6.148      9.723
REMARK  Name = 
REMARK  5 active torsions:
REMARK  status: ('A' for Active; 'I' for Inactive)
REMARK    1  A    between atoms: C_2  and  C_20
REMARK    2  A    between atoms: N_3  and  C_4
REMARK    3  A    between atoms: C_8  and  S_9
REMARK    4  A    between atoms: S_9  and  N_12
REMARK    5  A    between atoms: C_24  and  N_25
REMARK                            x       y       z     vdW  Elec       q    Type
REMARK                         _______ _______ _______ _____ _____    ______ ____
ROOT
ATOM      1  C   UNL     1       1.203   8.718  20.287  0.00  0.00    +0.000 A 
ATOM      2  C   UNL     1       0.896   8.540  21.639  0.00  0.00    +0.000 A 
ATOM      3  C   UNL     1       0.147   9.488  22.340  0.00  0.00    +0.000 A 
ATOM      4  C   UNL     1      -0.296  10.637  21.694  0.00  0.00    +0.000 A 
ATOM      5  C   UNL     1       0.014  10.834  20.344  0.00  0.00    +0.000 A 
ATOM      6  C   UNL     1       0.782   9.889  19.646  0.00  0.00    +0.000 A 
ENDROOT
BRANCH   1   9
ATOM      7  O   UNL     1       1.482   5.828  20.772  0.00  0.00    +0.000 OA
ATOM      8  C   UNL     1       2.005   6.406  19.826  0.00  0.00    +0.000 C 
ATOM      9  N   UNL     1       1.919   7.759  19.530  0.00  0.00    +0.000 N 
ATOM     10  H   UNL     1       2.276   8.069  18.635  0.00  0.00    +0.000 HD
BRANCH   8  11
ATOM     11  C   UNL     1       2.727   5.566  18.836  0.00  0.00    +0.000 A 
ATOM     12  C   UNL     1       2.125   4.360  18.451  0.00  0.00    +0.000 A 
ATOM     13  C   UNL     1       2.741   3.530  17.517  0.00  0.00    +0.000 A 
ATOM     14  C   UNL     1       3.960   3.903  16.951  0.00  0.00    +0.000 A 
ATOM     15  C   UNL     1       4.572   5.106  17.333  0.00  0.00    +0.000 A 
ATOM     16  C   UNL     1       3.966   5.930  18.299  0.00  0.00    +0.000 A 
BRANCH  15  17
ATOM     17  N   UNL     1       5.785   5.517  16.731  0.00  0.00    +0.000 N 
ATOM     18  C   UNL     1       6.651   6.514  17.106  0.00  0.00    +0.000 A 
ATOM     19  N   UNL     1       7.688   6.512  16.301  0.00  0.00    +0.000 NA
ATOM     20  N   UNL     1       7.462   5.502  15.405  0.00  0.00    +0.000 NA
ATOM     21  N   UNL     1       6.313   4.890  15.657  0.00  0.00    +0.000 NA
ENDBRANCH  15  17
ENDBRANCH   8  11
ENDBRANCH   1   9
BRANCH   5  22
ATOM     22  S   UNL     1      -0.458  12.363  19.552  0.00  0.00    +0.000 S 
ATOM     23  O   UNL     1      -0.808  13.300  20.598  0.00  0.00    +0.000 OA
ATOM     24  O   UNL     1       0.574  12.677  18.582  0.00  0.00    +0.000 OA
BRANCH  22  25
ATOM     25  N   UNL     1      -1.889  11.958  18.709  0.00  0.00    +0.000 NA
ATOM     26  C   UNL     1      -1.842  10.777  17.827  0.00  0.00    +0.000 C 
ATOM     27  C   UNL     1      -2.555  11.051  16.503  0.00  0.00    +0.000 C 
ATOM     28  C   UNL     1      -4.064  10.838  16.551  0.00  0.00    +0.000 C 
ATOM     29  C   UNL     1      -4.793  11.773  17.506  0.00  0.00    +0.000 C 
ATOM     30  C   UNL     1      -4.401  11.549  18.962  0.00  0.00    +0.000 C 
ATOM     31  C   UNL     1      -3.154  12.312  19.394  0.00  0.00    +0.000 C 
ENDBRANCH  22  25
ENDBRANCH   5  22
TORSDOF 5
ENDMDL
MODEL 5
REMARK VINA RESULT:      -8.9      6.113     10.179
REMARK  Name = 
REMARK  5 active torsions:
REMARK  status: ('A' for Active; 'I' for Inactive)
REMARK    1  A    between atoms: C_2  and  C_20
REMARK    2  A    between atoms: N_3  and  C_4
REMARK    3  A    between atoms: C_8  and  S_9
REMARK    4  A    between atoms: S_9  and  N_12
REMARK    5  A    between atoms: C_24  and  N_25
REMARK                            x       y       z     vdW  Elec       q    Type
REMARK                         _______ _______ _______ _____ _____    ______ ____
ROOT
ATOM      1  C   UNL     1       1.406   8.399  20.375  0.00  0.00    +0.000 A 
ATOM      2  C   UNL     1       1.474   8.562  21.762  0.00  0.00    +0.000 A 
ATOM      3  C   UNL     1       0.777   9.588  22.402  0.00  0.00    +0.000 A 
ATOM      4  C   UNL     1       0.009  10.476  21.656  0.00  0.00    +0.000 A 
ATOM      5  C   UNL     1      -0.059  10.332  20.267  0.00  0.00    +0.000 A 
ATOM      6  C   UNL     1       0.657   9.311  19.622  0.00  0.00    +0.000 A 
ENDROOT
BRANCH   1   9
ATOM      7  O   UNL     1       1.079   5.496  20.733  0.00  0.00    +0.000 OA
ATOM      8  C   UNL     1       1.852   5.992  19.921  0.00  0.00    +0.000 C 
ATOM      9  N   UNL     1       2.061   7.345  19.693  0.00  0.00    +0.000 N 
ATOM     10  H   UNL     1       2.616   7.607  18.889  0.00  0.00    +0.000 HD
BRANCH   8  11
ATOM     11  C   UNL     1       2.573   5.059  19.018  0.00  0.00    +0.000 A 
ATOM     12  C   UNL     1       1.813   4.086  18.353  0.00  0.00    +0.000 A 
ATOM     13  C   UNL     1       2.422   3.187  17.481  0.00  0.00    +0.000 A 
ATOM     14  C   UNL     1       3.797   3.259  17.257  0.00  0.00    +0.000 A 
ATOM     15  C   UNL     1       4.567   4.226  17.919  0.00  0.00    +0.000 A 
ATOM     16  C   UNL     1       3.957   5.114  18.824  0.00  0.00    +0.000 A 
BRANCH  15  17
ATOM     17  N   UNL     1       5.955   4.339  17.664  0.00  0.00    +0.000 N 
ATOM     18  C   UNL     1       6.619   4.400  16.465  0.00  0.00    +0.000 A 
ATOM     19  N   UNL     1       7.902   4.567  16.688  0.00  0.00    +0.000 NA
ATOM     20  N   UNL     1       8.041   4.603  18.050  0.00  0.00    +0.000 NA
ATOM     21  N   UNL     1       6.867   4.468  18.652  0.00  0.00    +0.000 NA
ENDBRANCH  15  17
ENDBRANCH   8  11
ENDBRANCH   1   9
BRANCH   5  22
ATOM     22  S   UNL     1      -0.952  11.542  19.304  0.00  0.00    +0.000 S 
ATOM     23  O   UNL     1      -1.153  10.980  17.986  0.00  0.00    +0.000 OA
ATOM     24  O   UNL     1      -2.077  11.981  20.109  0.00  0.00    +0.000 OA
BRANCH  22  25
ATOM     25  N   UNL     1       0.151  12.840  19.160  0.00  0.00    +0.000 NA
ATOM     26  C   UNL     1      -0.083  14.023  20.009  0.00  0.00    +0.000 C 
ATOM     27  C   UNL     1       0.130  15.316  19.220  0.00  0.00    +0.000 C 
ATOM     28  C   UNL     1       1.583  15.771  19.150  0.00  0.00    +0.000 C 
ATOM     29  C   UNL     1       2.503  14.799  18.424  0.00  0.00    +0.000 C 
ATOM     30  C   UNL     1       2.632  13.462  19.144  0.00  0.00    +0.000 C 
ATOM     31  C   UNL     1       1.537  12.461  18.796  0.00  0.00    +0.000 C 
ENDBRANCH  22  25
ENDBRANCH   5  22
TORSDOF 5
ENDMDL
MODEL 6
REMARK VINA RESULT:      -8.9      6.638      9.604
REMARK  Name = 
REMARK  5 active torsions:
REMARK  status: ('A' for Active; 'I' for Inactive)
REMARK    1  A    between atoms: C_2  and  C_20
REMARK    2  A    between atoms: N_3  and  C_4
REMARK    3  A    between atoms: C_8  and  S_9
REMARK    4  A    between atoms: S_9  and  N_12
REMARK    5  A    between atoms: C_24  and  N_25
REMARK                            x       y       z     vdW  Elec       q    Type
REMARK                         _______ _______ _______ _____ _____    ______ ____
ROOT
ATOM      1  C   UNL     1       1.048   8.740  21.029  0.00  0.00    +0.000 A 
ATOM      2  C   UNL     1       0.509   8.807  22.317  0.00  0.00    +0.000 A 
ATOM      3  C   UNL     1      -0.305   9.872  22.704  0.00  0.00    +0.000 A 
ATOM      4  C   UNL     1      -0.581  10.897  21.805  0.00  0.00    +0.000 A 
ATOM      5  C   UNL     1      -0.039  10.850  20.517  0.00  0.00    +0.000 A 
ATOM      6  C   UNL     1       0.794   9.787  20.134  0.00  0.00    +0.000 A 
ENDROOT
BRANCH   1   9
ATOM      7  O   UNL     1       1.985   8.147  18.302  0.00  0.00    +0.000 OA
ATOM      8  C   UNL     1       2.242   7.442  19.271  0.00  0.00    +0.000 C 
ATOM      9  N   UNL     1       1.840   7.655  20.582  0.00  0.00    +0.000 N 
ATOM     10  H   UNL     1       2.253   7.075  21.302  0.00  0.00    +0.000 HD
BRANCH   8  11
ATOM     11  C   UNL     1       3.157   6.292  19.047  0.00  0.00    +0.000 A 
ATOM     12  C   UNL     1       2.954   5.144  19.825  0.00  0.00    +0.000 A 
ATOM     13  C   UNL     1       3.766   4.025  19.658  0.00  0.00    +0.000 A 
ATOM     14  C   UNL     1       4.782   4.040  18.704  0.00  0.00    +0.000 A 
ATOM     15  C   UNL     1       4.996   5.185  17.922  0.00  0.00    +0.000 A 
ATOM     16  C   UNL     1       4.196   6.326  18.112  0.00  0.00    +0.000 A 
BRANCH  15  17
ATOM     17  N   UNL     1       5.993   5.194  16.918  0.00  0.00    +0.000 N 
ATOM     18  C   UNL     1       6.301   4.237  15.985  0.00  0.00    +0.000 A 
ATOM     19  N   UNL     1       7.258   4.683  15.205  0.00  0.00    +0.000 NA
ATOM     20  N   UNL     1       7.556   5.939  15.664  0.00  0.00    +0.000 NA
ATOM     21  N   UNL     1       6.795   6.260  16.701  0.00  0.00    +0.000 NA
ENDBRANCH  15  17
ENDBRANCH   8  11
ENDBRANCH   1   9
BRANCH   5  22
ATOM     22  S   UNL     1      -0.302  12.224  19.407  0.00  0.00    +0.000 S 
ATOM     23  O   UNL     1      -0.639  13.374  20.217  0.00  0.00    +0.000 OA
ATOM     24  O   UNL     1       0.826  12.256  18.494  0.00  0.00    +0.000 OA
BRANCH  22  25
ATOM     25  N   UNL     1      -1.697  11.772  18.528  0.00  0.00    +0.000 NA
ATOM     26  C   UNL     1      -1.667  10.472  17.832  0.00  0.00    +0.000 C 
ATOM     27  C   UNL     1      -2.273  10.583  16.433  0.00  0.00    +0.000 C 
ATOM     28  C   UNL     1      -3.792  10.458  16.401  0.00  0.00    +0.000 C 
ATOM     29  C   UNL     1      -4.522  11.562  17.153  0.00  0.00    +0.000 C 
ATOM     30  C   UNL     1      -4.241  11.537  18.651  0.00  0.00    +0.000 C 
ATOM     31  C   UNL     1      -2.980  12.290  19.059  0.00  0.00    +0.000 C 
ENDBRANCH  22  25
ENDBRANCH   5  22
TORSDOF 5
ENDMDL
MODEL 7
REMARK VINA RESULT:      -8.9      6.780     10.137
REMARK  Name = 
REMARK  5 active torsions:
REMARK  status: ('A' for Active; 'I' for Inactive)
REMARK    1  A    between atoms: C_2  and  C_20
REMARK    2  A    between atoms: N_3  and  C_4
REMARK    3  A    between atoms: C_8  and  S_9
REMARK    4  A    between atoms: S_9  and  N_12
REMARK    5  A    between atoms: C_24  and  N_25
REMARK                            x       y       z     vdW  Elec       q    Type
REMARK                         _______ _______ _______ _____ _____    ______ ____
ROOT
ATOM      1  C   UNL     1       1.359   8.680  20.416  0.00  0.00    +0.000 A 
ATOM      2  C   UNL     1       1.213   8.549  21.800  0.00  0.00    +0.000 A 
ATOM      3  C   UNL     1       0.507   9.495  22.544  0.00  0.00    +0.000 A 
ATOM      4  C   UNL     1      -0.054  10.599  21.909  0.00  0.00    +0.000 A 
ATOM      5  C   UNL     1       0.095  10.750  20.527  0.00  0.00    +0.000 A 
ATOM      6  C   UNL     1       0.820   9.806  19.782  0.00  0.00    +0.000 A 
ENDROOT
BRANCH   1   9
ATOM      7  O   UNL     1       1.491   5.763  20.781  0.00  0.00    +0.000 OA
ATOM      8  C   UNL     1       2.044   6.352  19.860  0.00  0.00    +0.000 C 
ATOM      9  N   UNL     1       2.028   7.719  19.620  0.00  0.00    +0.000 N 
ATOM     10  H   UNL     1       2.400   8.047  18.739  0.00  0.00    +0.000 HD
BRANCH   8  11
ATOM     11  C   UNL     1       2.724   5.518  18.836  0.00  0.00    +0.000 A 
ATOM     12  C   UNL     1       2.060   4.364  18.397  0.00  0.00    +0.000 A 
ATOM     13  C   UNL     1       2.634   3.544  17.429  0.00  0.00    +0.000 A 
ATOM     14  C   UNL     1       3.874   3.874  16.883  0.00  0.00    +0.000 A 
ATOM     15  C   UNL     1       4.549   5.024  17.318  0.00  0.00    +0.000 A 
ATOM     16  C   UNL     1       3.984   5.836  18.318  0.00  0.00    +0.000 A 
BRANCH  15  17
ATOM     17  N   UNL     1       5.785   5.395  16.738  0.00  0.00    +0.000 N 
ATOM     18  C   UNL     1       6.465   4.822  15.693  0.00  0.00    +0.000 A 
ATOM     19  N   UNL     1       7.545   5.525  15.441  0.00  0.00    +0.000 NA
ATOM     20  N   UNL     1       7.541   6.550  16.349  0.00  0.00    +0.000 NA
ATOM     21  N   UNL     1       6.479   6.483  17.139  0.00  0.00    +0.000 NA
ENDBRANCH  15  17
ENDBRANCH   8  11
ENDBRANCH   1   9
BRANCH   5  22
ATOM     22  S   UNL     1      -0.528  12.225  19.736  0.00  0.00    +0.000 S 
ATOM     23  O   UNL     1       0.413  13.290  20.009  0.00  0.00    +0.000 OA
ATOM     24  O   UNL     1      -0.875  11.864  18.374  0.00  0.00    +0.000 OA
BRANCH  22  25
ATOM     25  N   UNL     1      -1.969  12.565  20.590  0.00  0.00    +0.000 NA
ATOM     26  C   UNL     1      -1.915  13.626  21.613  0.00  0.00    +0.000 C 
ATOM     27  C   UNL     1      -2.669  13.211  22.876  0.00  0.00    +0.000 C 
ATOM     28  C   UNL     1      -4.170  13.473  22.820  0.00  0.00    +0.000 C 
ATOM     29  C   UNL     1      -4.898  12.684  21.740  0.00  0.00    +0.000 C 
ATOM     30  C   UNL     1      -4.463  13.075  20.333  0.00  0.00    +0.000 C 
ATOM     31  C   UNL     1      -3.225  12.335  19.837  0.00  0.00    +0.000 C 
ENDBRANCH  22  25
ENDBRANCH   5  22
TORSDOF 5
ENDMDL
MODEL 8
REMARK VINA RESULT:      -8.9      7.017     10.375
REMARK  Name = 
REMARK  5 active torsions:
REMARK  status: ('A' for Active; 'I' for Inactive)
REMARK    1  A    between atoms: C_2  and  C_20
REMARK    2  A    between atoms: N_3  and  C_4
REMARK    3  A    between atoms: C_8  and  S_9
REMARK    4  A    between atoms: S_9  and  N_12
REMARK    5  A    between atoms: C_24  and  N_25
REMARK                            x       y       z     vdW  Elec       q    Type
REMARK                         _______ _______ _______ _____ _____    ______ ____
ROOT
ATOM      1  C   UNL     1       1.176   8.787  20.196  0.00  0.00    +0.000 A 
ATOM      2  C   UNL     1       1.157   8.894  21.590  0.00  0.00    +0.000 A 
ATOM      3  C   UNL     1       0.441   9.909  22.226  0.00  0.00    +0.000 A 
ATOM      4  C   UNL     1      -0.259  10.844  21.470  0.00  0.00    +0.000 A 
ATOM      5  C   UNL     1      -0.239  10.756  20.074  0.00  0.00    +0.000 A 
ATOM      6  C   UNL     1       0.496   9.746  19.435  0.00  0.00    +0.000 A 
ENDROOT
BRANCH   1   9
ATOM      7  O   UNL     1       1.296   5.925  20.871  0.00  0.00    +0.000 OA
ATOM      8  C   UNL     1       1.862   6.412  19.898  0.00  0.00    +0.000 C 
ATOM      9  N   UNL     1       1.852   7.746  19.515  0.00  0.00    +0.000 N 
ATOM     10  H   UNL     1       2.236   7.978  18.608  0.00  0.00    +0.000 HD
BRANCH   8  11
ATOM     11  C   UNL     1       2.552   5.473  18.977  0.00  0.00    +0.000 A 
ATOM     12  C   UNL     1       1.751   4.639  18.186  0.00  0.00    +0.000 A 
ATOM     13  C   UNL     1       2.332   3.744  17.291  0.00  0.00    +0.000 A 
ATOM     14  C   UNL     1       3.720   3.682  17.171  0.00  0.00    +0.000 A 
ATOM     15  C   UNL     1       4.531   4.509  17.961  0.00  0.00    +0.000 A 
ATOM     16  C   UNL     1       3.945   5.392  18.887  0.00  0.00    +0.000 A 
BRANCH  15  17
ATOM     17  N   UNL     1       5.938   4.489  17.814  0.00  0.00    +0.000 N 
ATOM     18  C   UNL     1       6.695   4.410  16.673  0.00  0.00    +0.000 A 
ATOM     19  N   UNL     1       7.967   4.485  16.990  0.00  0.00    +0.000 NA
ATOM     20  N   UNL     1       8.003   4.606  18.354  0.00  0.00    +0.000 NA
ATOM     21  N   UNL     1       6.779   4.612  18.864  0.00  0.00    +0.000 NA
ENDBRANCH  15  17
ENDBRANCH   8  11
ENDBRANCH   1   9
BRANCH   5  22
ATOM     22  S   UNL     1      -1.043  12.024  19.107  0.00  0.00    +0.000 S 
ATOM     23  O   UNL     1      -0.232  13.218  19.202  0.00  0.00    +0.000 OA
ATOM     24  O   UNL     1      -1.364  11.438  17.819  0.00  0.00    +0.000 OA
BRANCH  22  25
ATOM     25  N   UNL     1      -2.503  12.311  19.949  0.00  0.00    +0.000 NA
ATOM     26  C   UNL     1      -2.496  13.376  20.969  0.00  0.00    +0.000 C 
ATOM     27  C   UNL     1      -3.243  12.936  22.228  0.00  0.00    +0.000 C 
ATOM     28  C   UNL     1      -4.752  13.141  22.161  0.00  0.00    +0.000 C 
ATOM     29  C   UNL     1      -5.442  12.322  21.078  0.00  0.00    +0.000 C 
ATOM     30  C   UNL     1      -5.012  12.725  19.673  0.00  0.00    +0.000 C 
ATOM     31  C   UNL     1      -3.744  12.032  19.189  0.00  0.00    +0.000 C 
ENDBRANCH  22  25
ENDBRANCH   5  22
TORSDOF 5
ENDMDL
MODEL 9
REMARK VINA RESULT:      -8.9      6.453      9.577
REMARK  Name = 
REMARK  5 active torsions:
REMARK  status: ('A' for Active; 'I' for Inactive)
REMARK    1  A    between atoms: C_2  and  C_20
REMARK    2  A    between atoms: N_3  and  C_4
REMARK    3  A    between atoms: C_8  and  S_9
REMARK    4  A    between atoms: S_9  and  N_12
REMARK    5  A    between atoms: C_24  and  N_25
REMARK                            x       y       z     vdW  Elec       q    Type
REMARK                         _______ _______ _______ _____ _____    ______ ____
ROOT
ATOM      1  C   UNL     1       2.149   8.400  18.586  0.00  0.00    +0.000 A 
ATOM      2  C   UNL     1       1.342   8.971  17.599  0.00  0.00    +0.000 A 
ATOM      3  C   UNL     1       0.220   9.732  17.934  0.00  0.00    +0.000 A 
ATOM      4  C   UNL     1      -0.116   9.920  19.271  0.00  0.00    +0.000 A 
ATOM      5  C   UNL     1       0.676   9.345  20.269  0.00  0.00    +0.000 A 
ATOM      6  C   UNL     1       1.793   8.566  19.931  0.00  0.00    +0.000 A 
ENDROOT
BRANCH   1   9
ATOM      7  O   UNL     1       2.410   5.530  17.989  0.00  0.00    +0.000 OA
ATOM      8  C   UNL     1       3.362   6.301  18.018  0.00  0.00    +0.000 C 
ATOM      9  N   UNL     1       3.320   7.662  18.289  0.00  0.00    +0.000 N 
ATOM     10  H   UNL     1       4.161   8.200  18.128  0.00  0.00    +0.000 HD
BRANCH   8  11
ATOM     11  C   UNL     1       4.687   5.753  17.630  0.00  0.00    +0.000 A 
ATOM     12  C   UNL     1       5.573   5.413  18.663  0.00  0.00    +0.000 A 
ATOM     13  C   UNL     1       6.827   4.882  18.371  0.00  0.00    +0.000 A 
ATOM     14  C   UNL     1       7.204   4.676  17.044  0.00  0.00    +0.000 A 
ATOM     15  C   UNL     1       6.327   5.016  16.004  0.00  0.00    +0.000 A 
ATOM     16  C   UNL     1       5.072   5.582  16.297  0.00  0.00    +0.000 A 
BRANCH  15  17
ATOM     17  N   UNL     1       6.679   4.768  14.656  0.00  0.00    +0.000 N 
ATOM     18  C   UNL     1       6.146   3.871  13.765  0.00  0.00    +0.000 A 
ATOM     19  N   UNL     1       6.730   4.018  12.599  0.00  0.00    +0.000 NA
ATOM     20  N   UNL     1       7.648   5.019  12.767  0.00  0.00    +0.000 NA
ATOM     21  N   UNL     1       7.625   5.484  14.009  0.00  0.00    +0.000 NA
ENDBRANCH  15  17
ENDBRANCH   8  11
ENDBRANCH   1   9
BRANCH   5  22
ATOM     22  S   UNL     1       0.175   9.494  21.977  0.00  0.00    +0.000 S 
ATOM     23  O   UNL     1      -0.868   8.517  22.207  0.00  0.00    +0.000 OA
ATOM     24  O   UNL     1       1.386   9.497  22.777  0.00  0.00    +0.000 OA
BRANCH  22  25
ATOM     25  N   UNL     1      -0.532  11.048  22.058  0.00  0.00    +0.000 NA
ATOM     26  C   UNL     1      -1.440  11.320  23.188  0.00  0.00    +0.000 C 
ATOM     27  C   UNL     1      -2.681  12.082  22.724  0.00  0.00    +0.000 C 
ATOM     28  C   UNL     1      -2.489  13.592  22.637  0.00  0.00    +0.000 C 
ATOM     29  C   UNL     1      -1.448  14.028  21.616  0.00  0.00    +0.000 C 
ATOM     30  C   UNL     1      -0.043  13.557  21.972  0.00  0.00    +0.000 C 
ATOM     31  C   UNL     1       0.282  12.149  21.489  0.00  0.00    +0.000 C 
ENDBRANCH  22  25
ENDBRANCH   5  22
TORSDOF 5
ENDMDL
