MODEL 1
REMARK VINA RESULT:      -9.0      0.000      0.000
REMARK  Name = 
REMARK  4 active torsions:
REMARK  status: ('A' for Active; 'I' for Inactive)
REMARK    1  A    between atoms: C_2  and  C_15
REMARK    2  A    between atoms: N_3  and  C_4
REMARK    3  A    between atoms: C_8  and  N_9
REMARK    4  A    between atoms: C_17  and  C_18
REMARK                            x       y       z     vdW  Elec       q    Type
REMARK                         _______ _______ _______ _____ _____    ______ ____
ROOT
ATOM      1  C   UNL     1       2.946   6.563  18.168  0.00  0.00    +0.000 A 
ATOM      2  N   UNL     1       3.942   6.559  17.234  0.00  0.00    +0.000 NA
ATOM      3  C   UNL     1       4.403   5.302  17.129  0.00  0.00    +0.000 A 
ATOM      4  N   UNL     1       3.766   4.500  18.090  0.00  0.00    +0.000 N 
ATOM      5  C   UNL     1       2.750   5.285  18.596  0.00  0.00    +0.000 A 
ATOM      6  C   UNL     1       1.821   4.808  19.631  0.00  0.00    +0.000 C 
ATOM      7  C   UNL     1       1.741   4.364  21.054  0.00  0.00    +0.000 C 
ATOM      8  C   UNL     1       2.403   2.969  21.083  0.00  0.00    +0.000 C 
ATOM      9  C   UNL     1       3.654   2.669  20.137  0.00  0.00    +0.000 C 
ATOM     10  C   UNL     1       3.952   3.132  18.597  0.00  0.00    +0.000 C 
ENDROOT
BRANCH   3  11
ATOM     11  C   UNL     1       5.431   5.004  16.098  0.00  0.00    +0.000 A 
ATOM     12  C   UNL     1       6.775   5.403  16.119  0.00  0.00    +0.000 A 
ATOM     13  C   UNL     1       7.614   5.138  15.025  0.00  0.00    +0.000 A 
ATOM     14  C   UNL     1       7.152   4.466  13.898  0.00  0.00    +0.000 A 
ATOM     15  C   UNL     1       5.841   4.013  13.864  0.00  0.00    +0.000 A 
ATOM     16  C   UNL     1       5.003   4.281  14.953  0.00  0.00    +0.000 A 
ENDBRANCH   3  11
BRANCH   1  18
ATOM     17  O   UNL     1       2.138   7.817  19.966  0.00  0.00    +0.000 OA
ATOM     18  C   UNL     1       2.240   7.697  18.747  0.00  0.00    +0.000 C 
ATOM     19  N   UNL     1       1.728   8.575  17.826  0.00  0.00    +0.000 N 
ATOM     20  H   UNL     1       1.734   8.245  16.866  0.00  0.00    +0.000 HD
BRANCH  19  21
ATOM     21  C   UNL     1       1.090   9.784  18.164  0.00  0.00    +0.000 A 
ATOM     22  C   UNL     1       1.788  10.910  18.606  0.00  0.00    +0.000 A 
ATOM     23  C   UNL     1       1.108  12.067  18.985  0.00  0.00    +0.000 A 
ATOM     24  C   UNL     1      -0.276  12.108  18.912  0.00  0.00    +0.000 A 
ATOM     25  C   UNL     1      -0.985  10.998  18.439  0.00  0.00    +0.000 A 
ATOM     26  C   UNL     1      -0.298   9.837  18.051  0.00  0.00    +0.000 A 
BRANCH  25  27
ATOM     27  N   UNL     1      -2.407  11.038  18.365  0.00  0.00    +0.000 N 
ATOM     28  C   UNL     1      -3.244  10.191  17.688  0.00  0.00    +0.000 A 
ATOM     29  N   UNL     1      -4.497  10.544  17.864  0.00  0.00    +0.000 NA
ATOM     30  N   UNL     1      -4.502  11.650  18.676  0.00  0.00    +0.000 NA
ATOM     31  C   UNL     1      -3.254  11.927  18.973  0.00  0.00    +0.000 A 
ENDBRANCH  25  27
ENDBRANCH  19  21
ENDBRANCH   1  18
TORSDOF 4
ENDMDL
MODEL 2
REMARK VINA RESULT:      -8.8      2.117      3.195
REMARK  Name = 
REMARK  4 active torsions:
REMARK  status: ('A' for Active; 'I' for Inactive)
REMARK    1  A    between atoms: C_2  and  C_15
REMARK    2  A    between atoms: N_3  and  C_4
REMARK    3  A    between atoms: C_8  and  N_9
REMARK    4  A    between atoms: C_17  and  C_18
REMARK                            x       y       z     vdW  Elec       q    Type
REMARK                         _______ _______ _______ _____ _____    ______ ____
ROOT
ATOM      1  C   UNL     1       2.884   6.576  18.125  0.00  0.00    +0.000 A 
ATOM      2  N   UNL     1       3.938   6.578  17.258  0.00  0.00    +0.000 NA
ATOM      3  C   UNL     1       4.328   5.305  17.081  0.00  0.00    +0.000 A 
ATOM      4  N   UNL     1       3.579   4.476  17.934  0.00  0.00    +0.000 N 
ATOM      5  C   UNL     1       2.582   5.285  18.436  0.00  0.00    +0.000 A 
ATOM      6  C   UNL     1       1.558   4.793  19.370  0.00  0.00    +0.000 C 
ATOM      7  C   UNL     1       1.356   4.249  20.745  0.00  0.00    +0.000 C 
ATOM      8  C   UNL     1       1.928   2.815  20.704  0.00  0.00    +0.000 C 
ATOM      9  C   UNL     1       3.220   2.506  19.816  0.00  0.00    +0.000 C 
ATOM     10  C   UNL     1       3.647   3.064  18.340  0.00  0.00    +0.000 C 
ENDROOT
BRANCH   3  11
ATOM     11  C   UNL     1       5.401   5.019  16.095  0.00  0.00    +0.000 A 
ATOM     12  C   UNL     1       6.735   5.448  16.164  0.00  0.00    +0.000 A 
ATOM     13  C   UNL     1       7.622   5.190  15.108  0.00  0.00    +0.000 A 
ATOM     14  C   UNL     1       7.221   4.496  13.972  0.00  0.00    +0.000 A 
ATOM     15  C   UNL     1       5.923   4.013  13.891  0.00  0.00    +0.000 A 
ATOM     16  C   UNL     1       5.036   4.273  14.942  0.00  0.00    +0.000 A 
ENDBRANCH   3  11
BRANCH   1  18
ATOM     17  O   UNL     1       2.114   7.784  19.971  0.00  0.00    +0.000 OA
ATOM     18  C   UNL     1       2.210   7.707  18.748  0.00  0.00    +0.000 C 
ATOM     19  N   UNL     1       1.722   8.634  17.862  0.00  0.00    +0.000 N 
ATOM     20  H   UNL     1       1.718   8.340  16.891  0.00  0.00    +0.000 HD
BRANCH  19  21
ATOM     21  C   UNL     1       1.119   9.846  18.247  0.00  0.00    +0.000 A 
ATOM     22  C   UNL     1      -0.264  10.000  18.360  0.00  0.00    +0.000 A 
ATOM     23  C   UNL     1      -0.820  11.237  18.688  0.00  0.00    +0.000 A 
ATOM     24  C   UNL     1       0.009  12.324  18.919  0.00  0.00    +0.000 A 
ATOM     25  C   UNL     1       1.398  12.175  18.842  0.00  0.00    +0.000 A 
ATOM     26  C   UNL     1       1.955  10.928  18.518  0.00  0.00    +0.000 A 
BRANCH  25  27
ATOM     27  N   UNL     1       2.249  13.292  19.077  0.00  0.00    +0.000 N 
ATOM     28  C   UNL     1       2.756  14.177  18.161  0.00  0.00    +0.000 A 
ATOM     29  N   UNL     1       3.498  15.082  18.758  0.00  0.00    +0.000 NA
ATOM     30  N   UNL     1       3.490  14.799  20.101  0.00  0.00    +0.000 NA
ATOM     31  C   UNL     1       2.737  13.739  20.276  0.00  0.00    +0.000 A 
ENDBRANCH  25  27
ENDBRANCH  19  21
ENDBRANCH   1  18
TORSDOF 4
ENDMDL
MODEL 3
REMARK VINA RESULT:      -8.7      2.816      9.019
REMARK  Name = 
REMARK  4 active torsions:
REMARK  status: ('A' for Active; 'I' for Inactive)
REMARK    1  A    between atoms: C_2  and  C_15
REMARK    2  A    between atoms: N_3  and  C_4
REMARK    3  A    between atoms: C_8  and  N_9
REMARK    4  A    between atoms: C_17  and  C_18
REMARK                            x       y       z     vdW  Elec       q    Type
REMARK                         _______ _______ _______ _____ _____    ______ ____
ROOT
ATOM      1  C   UNL     1       1.568  10.347  18.886  0.00  0.00    +0.000 A 
ATOM      2  N   UNL     1       1.761  11.570  18.311  0.00  0.00    +0.000 NA
ATOM      3  C   UNL     1       1.472  12.507  19.228  0.00  0.00    +0.000 A 
ATOM      4  N   UNL     1       0.979  11.877  20.383  0.00  0.00    +0.000 N 
ATOM      5  C   UNL     1       1.216  10.533  20.188  0.00  0.00    +0.000 A 
ATOM      6  C   UNL     1       0.859   9.512  21.185  0.00  0.00    +0.000 C 
ATOM      7  C   UNL     1      -0.297   8.872  21.879  0.00  0.00    +0.000 C 
ATOM      8  C   UNL     1      -0.824   9.939  22.864  0.00  0.00    +0.000 C 
ATOM      9  C   UNL     1      -0.792  11.481  22.448  0.00  0.00    +0.000 C 
ATOM     10  C   UNL     1       0.337  12.332  21.626  0.00  0.00    +0.000 C 
ENDROOT
BRANCH   3  11
ATOM     11  C   UNL     1       1.701  13.934  18.886  0.00  0.00    +0.000 A 
ATOM     12  C   UNL     1       0.817  14.999  19.111  0.00  0.00    +0.000 A 
ATOM     13  C   UNL     1       1.119  16.288  18.644  0.00  0.00    +0.000 A 
ATOM     14  C   UNL     1       2.299  16.556  17.958  0.00  0.00    +0.000 A 
ATOM     15  C   UNL     1       3.219  15.537  17.760  0.00  0.00    +0.000 A 
ATOM     16  C   UNL     1       2.916  14.251  18.223  0.00  0.00    +0.000 A 
ENDBRANCH   3  11
BRANCH   1  18
ATOM     17  O   UNL     1       0.821   8.743  17.359  0.00  0.00    +0.000 OA
ATOM     18  C   UNL     1       1.599   9.029  18.266  0.00  0.00    +0.000 C 
ATOM     19  N   UNL     1       2.550   8.184  18.781  0.00  0.00    +0.000 N 
ATOM     20  H   UNL     1       2.985   8.500  19.642  0.00  0.00    +0.000 HD
BRANCH  19  21
ATOM     21  C   UNL     1       2.816   6.899  18.272  0.00  0.00    +0.000 A 
ATOM     22  C   UNL     1       1.917   5.837  18.391  0.00  0.00    +0.000 A 
ATOM     23  C   UNL     1       2.249   4.567  17.922  0.00  0.00    +0.000 A 
ATOM     24  C   UNL     1       3.479   4.355  17.318  0.00  0.00    +0.000 A 
ATOM     25  C   UNL     1       4.375   5.418  17.163  0.00  0.00    +0.000 A 
ATOM     26  C   UNL     1       4.036   6.698  17.629  0.00  0.00    +0.000 A 
BRANCH  25  27
ATOM     27  N   UNL     1       5.639   5.201  16.545  0.00  0.00    +0.000 N 
ATOM     28  C   UNL     1       6.777   4.680  17.105  0.00  0.00    +0.000 A 
ATOM     29  N   UNL     1       7.744   4.627  16.218  0.00  0.00    +0.000 NA
ATOM     30  N   UNL     1       7.246   5.119  15.038  0.00  0.00    +0.000 NA
ATOM     31  C   UNL     1       5.993   5.448  15.245  0.00  0.00    +0.000 A 
ENDBRANCH  25  27
ENDBRANCH  19  21
ENDBRANCH   1  18
TORSDOF 4
ENDMDL
MODEL 4
REMARK VINA RESULT:      -8.7      0.535      1.024
REMARK  Name = 
REMARK  4 active torsions:
REMARK  status: ('A' for Active; 'I' for Inactive)
REMARK    1  A    between atoms: C_2  and  C_15
REMARK    2  A    between atoms: N_3  and  C_4
REMARK    3  A    between atoms: C_8  and  N_9
REMARK    4  A    between atoms: C_17  and  C_18
REMARK                            x       y       z     vdW  Elec       q    Type
REMARK                         _______ _______ _______ _____ _____    ______ ____
ROOT
ATOM      1  C   UNL     1       2.809   6.593  18.232  0.00  0.00    +0.000 A 
ATOM      2  N   UNL     1       3.754   6.614  17.248  0.00  0.00    +0.000 NA
ATOM      3  C   UNL     1       4.238   5.368  17.116  0.00  0.00    +0.000 A 
ATOM      4  N   UNL     1       3.670   4.550  18.107  0.00  0.00    +0.000 N 
ATOM      5  C   UNL     1       2.665   5.311  18.666  0.00  0.00    +0.000 A 
ATOM      6  C   UNL     1       1.801   4.811  19.747  0.00  0.00    +0.000 C 
ATOM      7  C   UNL     1       1.806   4.364  21.171  0.00  0.00    +0.000 C 
ATOM      8  C   UNL     1       2.500   2.985  21.163  0.00  0.00    +0.000 C 
ATOM      9  C   UNL     1       3.707   2.715  20.152  0.00  0.00    +0.000 C 
ATOM     10  C   UNL     1       3.913   3.186  18.600  0.00  0.00    +0.000 C 
ENDROOT
BRANCH   3  11
ATOM     11  C   UNL     1       5.217   5.095  16.032  0.00  0.00    +0.000 A 
ATOM     12  C   UNL     1       4.978   4.373  14.854  0.00  0.00    +0.000 A 
ATOM     13  C   UNL     1       6.025   4.102  13.959  0.00  0.00    +0.000 A 
ATOM     14  C   UNL     1       7.322   4.545  14.199  0.00  0.00    +0.000 A 
ATOM     15  C   UNL     1       7.585   5.303  15.330  0.00  0.00    +0.000 A 
ATOM     16  C   UNL     1       6.542   5.571  16.224  0.00  0.00    +0.000 A 
ENDBRANCH   3  11
BRANCH   1  18
ATOM     17  O   UNL     1       2.089   7.841  20.072  0.00  0.00    +0.000 OA
ATOM     18  C   UNL     1       2.107   7.710  18.850  0.00  0.00    +0.000 C 
ATOM     19  N   UNL     1       1.501   8.560  17.959  0.00  0.00    +0.000 N 
ATOM     20  H   UNL     1       1.450   8.219  17.005  0.00  0.00    +0.000 HD
BRANCH  19  21
ATOM     21  C   UNL     1       0.848   9.750  18.331  0.00  0.00    +0.000 A 
ATOM     22  C   UNL     1       1.438  10.711  19.155  0.00  0.00    +0.000 A 
ATOM     23  C   UNL     1       0.731  11.848  19.544  0.00  0.00    +0.000 A 
ATOM     24  C   UNL     1      -0.568  12.037  19.099  0.00  0.00    +0.000 A 
ATOM     25  C   UNL     1      -1.159  11.099  18.246  0.00  0.00    +0.000 A 
ATOM     26  C   UNL     1      -0.443   9.958  17.850  0.00  0.00    +0.000 A 
BRANCH  25  27
ATOM     27  N   UNL     1      -2.495  11.290  17.791  0.00  0.00    +0.000 N 
ATOM     28  C   UNL     1      -2.993  11.109  16.527  0.00  0.00    +0.000 A 
ATOM     29  N   UNL     1      -4.278  11.380  16.495  0.00  0.00    +0.000 NA
ATOM     30  N   UNL     1      -4.651  11.749  17.763  0.00  0.00    +0.000 NA
ATOM     31  C   UNL     1      -3.584  11.682  18.523  0.00  0.00    +0.000 A 
ENDBRANCH  25  27
ENDBRANCH  19  21
ENDBRANCH   1  18
TORSDOF 4
ENDMDL
MODEL 5
REMARK VINA RESULT:      -8.6      2.801      9.052
REMARK  Name = 
REMARK  4 active torsions:
REMARK  status: ('A' for Active; 'I' for Inactive)
REMARK    1  A    between atoms: C_2  and  C_15
REMARK    2  A    between atoms: N_3  and  C_4
REMARK    3  A    between atoms: C_8  and  N_9
REMARK    4  A    between atoms: C_17  and  C_18
REMARK                            x       y       z     vdW  Elec       q    Type
REMARK                         _______ _______ _______ _____ _____    ______ ____
ROOT
ATOM      1  C   UNL     1       1.520  10.280  18.856  0.00  0.00    +0.000 A 
ATOM      2  N   UNL     1       1.692  11.491  18.250  0.00  0.00    +0.000 NA
ATOM      3  C   UNL     1       1.412  12.446  19.151  0.00  0.00    +0.000 A 
ATOM      4  N   UNL     1       0.947  11.839  20.330  0.00  0.00    +0.000 N 
ATOM      5  C   UNL     1       1.191  10.493  20.160  0.00  0.00    +0.000 A 
ATOM      6  C   UNL     1       0.862   9.492  21.187  0.00  0.00    +0.000 C 
ATOM      7  C   UNL     1      -0.274   8.859  21.918  0.00  0.00    +0.000 C 
ATOM      8  C   UNL     1      -0.791   9.944  22.888  0.00  0.00    +0.000 C 
ATOM      9  C   UNL     1      -0.780  11.476  22.436  0.00  0.00    +0.000 C 
ATOM     10  C   UNL     1       0.326  12.317  21.574  0.00  0.00    +0.000 C 
ENDROOT
BRANCH   3  11
ATOM     11  C   UNL     1       1.622  13.867  18.772  0.00  0.00    +0.000 A 
ATOM     12  C   UNL     1       2.793  14.424  18.236  0.00  0.00    +0.000 A 
ATOM     13  C   UNL     1       2.889  15.807  18.018  0.00  0.00    +0.000 A 
ATOM     14  C   UNL     1       1.835  16.666  18.310  0.00  0.00    +0.000 A 
ATOM     15  C   UNL     1       0.645  16.144  18.795  0.00  0.00    +0.000 A 
ATOM     16  C   UNL     1       0.549  14.765  19.016  0.00  0.00    +0.000 A 
ENDBRANCH   3  11
BRANCH   1  18
ATOM     17  O   UNL     1       0.711   8.611  17.434  0.00  0.00    +0.000 OA
ATOM     18  C   UNL     1       1.550   8.949  18.266  0.00  0.00    +0.000 C 
ATOM     19  N   UNL     1       2.573   8.153  18.719  0.00  0.00    +0.000 N 
ATOM     20  H   UNL     1       3.065   8.506  19.532  0.00  0.00    +0.000 HD
BRANCH  19  21
ATOM     21  C   UNL     1       2.845   6.866  18.218  0.00  0.00    +0.000 A 
ATOM     22  C   UNL     1       1.955   5.798  18.351  0.00  0.00    +0.000 A 
ATOM     23  C   UNL     1       2.292   4.526  17.890  0.00  0.00    +0.000 A 
ATOM     24  C   UNL     1       3.520   4.318  17.281  0.00  0.00    +0.000 A 
ATOM     25  C   UNL     1       4.408   5.386  17.112  0.00  0.00    +0.000 A 
ATOM     26  C   UNL     1       4.063   6.667  17.570  0.00  0.00    +0.000 A 
BRANCH  25  27
ATOM     27  N   UNL     1       5.671   5.173  16.489  0.00  0.00    +0.000 N 
ATOM     28  C   UNL     1       6.061   5.526  15.224  0.00  0.00    +0.000 A 
ATOM     29  N   UNL     1       7.307   5.167  15.010  0.00  0.00    +0.000 NA
ATOM     30  N   UNL     1       7.762   4.562  16.154  0.00  0.00    +0.000 NA
ATOM     31  C   UNL     1       6.783   4.581  17.026  0.00  0.00    +0.000 A 
ENDBRANCH  25  27
ENDBRANCH  19  21
ENDBRANCH   1  18
TORSDOF 4
ENDMDL
MODEL 6
REMARK VINA RESULT:      -8.5      2.074      3.203
REMARK  Name = 
REMARK  4 active torsions:
REMARK  status: ('A' for Active; 'I' for Inactive)
REMARK    1  A    between atoms: C_2  and  C_15
REMARK    2  A    between atoms: N_3  and  C_4
REMARK    3  A    between atoms: C_8  and  N_9
REMARK    4  A    between atoms: C_17  and  C_18
REMARK                            x       y       z     vdW  Elec       q    Type
REMARK                         _______ _______ _______ _____ _____    ______ ____
ROOT
ATOM      1  C   UNL     1       2.817   6.604  18.372  0.00  0.00    +0.000 A 
ATOM      2  N   UNL     1       3.761   6.635  17.387  0.00  0.00    +0.000 NA
ATOM      3  C   UNL     1       4.211   5.383  17.208  0.00  0.00    +0.000 A 
ATOM      4  N   UNL     1       3.623   4.545  18.170  0.00  0.00    +0.000 N 
ATOM      5  C   UNL     1       2.639   5.312  18.760  0.00  0.00    +0.000 A 
ATOM      6  C   UNL     1       1.764   4.796  19.824  0.00  0.00    +0.000 C 
ATOM      7  C   UNL     1       1.760   4.297  21.231  0.00  0.00    +0.000 C 
ATOM      8  C   UNL     1       2.416   2.901  21.170  0.00  0.00    +0.000 C 
ATOM      9  C   UNL     1       3.614   2.636  20.147  0.00  0.00    +0.000 C 
ATOM     10  C   UNL     1       3.830   3.158  18.612  0.00  0.00    +0.000 C 
ENDROOT
BRANCH   3  11
ATOM     11  C   UNL     1       5.180   5.123  16.112  0.00  0.00    +0.000 A 
ATOM     12  C   UNL     1       4.925   4.434  14.918  0.00  0.00    +0.000 A 
ATOM     13  C   UNL     1       5.963   4.171  14.011  0.00  0.00    +0.000 A 
ATOM     14  C   UNL     1       7.267   4.590  14.254  0.00  0.00    +0.000 A 
ATOM     15  C   UNL     1       7.546   5.318  15.402  0.00  0.00    +0.000 A 
ATOM     16  C   UNL     1       6.512   5.577  16.308  0.00  0.00    +0.000 A 
ENDBRANCH   3  11
BRANCH   1  18
ATOM     17  O   UNL     1       2.104   7.784  20.259  0.00  0.00    +0.000 OA
ATOM     18  C   UNL     1       2.147   7.716  19.032  0.00  0.00    +0.000 C 
ATOM     19  N   UNL     1       1.598   8.636  18.175  0.00  0.00    +0.000 N 
ATOM     20  H   UNL     1       1.556   8.347  17.203  0.00  0.00    +0.000 HD
BRANCH  19  21
ATOM     21  C   UNL     1       0.986   9.832  18.594  0.00  0.00    +0.000 A 
ATOM     22  C   UNL     1      -0.310   9.877  19.113  0.00  0.00    +0.000 A 
ATOM     23  C   UNL     1      -0.897  11.093  19.462  0.00  0.00    +0.000 A 
ATOM     24  C   UNL     1      -0.184  12.272  19.305  0.00  0.00    +0.000 A 
ATOM     25  C   UNL     1       1.127  12.238  18.817  0.00  0.00    +0.000 A 
ATOM     26  C   UNL     1       1.718  11.012  18.473  0.00  0.00    +0.000 A 
BRANCH  25  27
ATOM     27  N   UNL     1       1.859  13.448  18.653  0.00  0.00    +0.000 N 
ATOM     28  C   UNL     1       1.457  14.726  18.943  0.00  0.00    +0.000 A 
ATOM     29  N   UNL     1       2.413  15.583  18.662  0.00  0.00    +0.000 NA
ATOM     30  N   UNL     1       3.477  14.867  18.174  0.00  0.00    +0.000 NA
ATOM     31  C   UNL     1       3.136  13.600  18.183  0.00  0.00    +0.000 A 
ENDBRANCH  25  27
ENDBRANCH  19  21
ENDBRANCH   1  18
TORSDOF 4
ENDMDL
MODEL 7
REMARK VINA RESULT:      -8.5      2.048      2.221
REMARK  Name = 
REMARK  4 active torsions:
REMARK  status: ('A' for Active; 'I' for Inactive)
REMARK    1  A    between atoms: C_2  and  C_15
REMARK    2  A    between atoms: N_3  and  C_4
REMARK    3  A    between atoms: C_8  and  N_9
REMARK    4  A    between atoms: C_17  and  C_18
REMARK                            x       y       z     vdW  Elec       q    Type
REMARK                         _______ _______ _______ _____ _____    ______ ____
ROOT
ATOM      1  C   UNL     1       2.990   6.475  18.103  0.00  0.00    +0.000 A 
ATOM      2  N   UNL     1       4.038   6.452  17.229  0.00  0.00    +0.000 NA
ATOM      3  C   UNL     1       4.291   5.169  16.924  0.00  0.00    +0.000 A 
ATOM      4  N   UNL     1       3.460   4.343  17.699  0.00  0.00    +0.000 N 
ATOM      5  C   UNL     1       2.553   5.199  18.289  0.00  0.00    +0.000 A 
ATOM      6  C   UNL     1       1.483   4.727  19.180  0.00  0.00    +0.000 C 
ATOM      7  C   UNL     1       1.225   4.074  20.497  0.00  0.00    +0.000 C 
ATOM      8  C   UNL     1       1.642   2.599  20.309  0.00  0.00    +0.000 C 
ATOM      9  C   UNL     1       2.894   2.245  19.382  0.00  0.00    +0.000 C 
ATOM     10  C   UNL     1       3.378   2.898  17.963  0.00  0.00    +0.000 C 
ENDROOT
BRANCH   3  11
ATOM     11  C   UNL     1       5.329   4.870  15.904  0.00  0.00    +0.000 A 
ATOM     12  C   UNL     1       6.692   5.190  15.981  0.00  0.00    +0.000 A 
ATOM     13  C   UNL     1       7.546   4.939  14.895  0.00  0.00    +0.000 A 
ATOM     14  C   UNL     1       7.079   4.358  13.721  0.00  0.00    +0.000 A 
ATOM     15  C   UNL     1       5.747   3.983  13.628  0.00  0.00    +0.000 A 
ATOM     16  C   UNL     1       4.895   4.237  14.709  0.00  0.00    +0.000 A 
ENDBRANCH   3  11
BRANCH   1  18
ATOM     17  O   UNL     1       2.231   7.521  20.050  0.00  0.00    +0.000 OA
ATOM     18  C   UNL     1       2.439   7.603  18.842  0.00  0.00    +0.000 C 
ATOM     19  N   UNL     1       2.194   8.715  18.076  0.00  0.00    +0.000 N 
ATOM     20  H   UNL     1       2.243   8.567  17.073  0.00  0.00    +0.000 HD
BRANCH  19  21
ATOM     21  C   UNL     1       1.750   9.945  18.598  0.00  0.00    +0.000 A 
ATOM     22  C   UNL     1       2.097  11.175  18.036  0.00  0.00    +0.000 A 
ATOM     23  C   UNL     1       1.680  12.370  18.622  0.00  0.00    +0.000 A 
ATOM     24  C   UNL     1       0.902  12.340  19.769  0.00  0.00    +0.000 A 
ATOM     25  C   UNL     1       0.519  11.113  20.323  0.00  0.00    +0.000 A 
ATOM     26  C   UNL     1       0.933   9.912  19.727  0.00  0.00    +0.000 A 
BRANCH  25  27
ATOM     27  N   UNL     1      -0.279  11.081  21.502  0.00  0.00    +0.000 N 
ATOM     28  C   UNL     1      -0.251  10.163  22.519  0.00  0.00    +0.000 A 
ATOM     29  N   UNL     1      -1.132  10.472  23.442  0.00  0.00    +0.000 NA
ATOM     30  N   UNL     1      -1.764  11.621  23.039  0.00  0.00    +0.000 NA
ATOM     31  C   UNL     1      -1.241  11.976  21.890  0.00  0.00    +0.000 A 
ENDBRANCH  25  27
ENDBRANCH  19  21
ENDBRANCH   1  18
TORSDOF 4
ENDMDL
MODEL 8
REMARK VINA RESULT:      -8.4      1.987      2.912
REMARK  Name = 
REMARK  4 active torsions:
REMARK  status: ('A' for Active; 'I' for Inactive)
REMARK    1  A    between atoms: C_2  and  C_15
REMARK    2  A    between atoms: N_3  and  C_4
REMARK    3  A    between atoms: C_8  and  N_9
REMARK    4  A    between atoms: C_17  and  C_18
REMARK                            x       y       z     vdW  Elec       q    Type
REMARK                         _______ _______ _______ _____ _____    ______ ____
ROOT
ATOM      1  C   UNL     1       2.726   6.631  18.255  0.00  0.00    +0.000 A 
ATOM      2  N   UNL     1       3.785   6.689  17.397  0.00  0.00    +0.000 NA
ATOM      3  C   UNL     1       4.263   5.443  17.248  0.00  0.00    +0.000 A 
ATOM      4  N   UNL     1       3.565   4.581  18.110  0.00  0.00    +0.000 N 
ATOM      5  C   UNL     1       2.510   5.329  18.589  0.00  0.00    +0.000 A 
ATOM      6  C   UNL     1       1.513   4.785  19.523  0.00  0.00    +0.000 C 
ATOM      7  C   UNL     1       1.336   4.254  20.906  0.00  0.00    +0.000 C 
ATOM      8  C   UNL     1       2.005   2.862  20.898  0.00  0.00    +0.000 C 
ATOM      9  C   UNL     1       3.323   2.626  20.027  0.00  0.00    +0.000 C 
ATOM     10  C   UNL     1       3.725   3.184  18.543  0.00  0.00    +0.000 C 
ENDROOT
BRANCH   3  11
ATOM     11  C   UNL     1       5.363   5.213  16.277  0.00  0.00    +0.000 A 
ATOM     12  C   UNL     1       6.643   5.784  16.314  0.00  0.00    +0.000 A 
ATOM     13  C   UNL     1       7.556   5.558  15.272  0.00  0.00    +0.000 A 
ATOM     14  C   UNL     1       7.232   4.758  14.181  0.00  0.00    +0.000 A 
ATOM     15  C   UNL     1       5.993   4.136  14.135  0.00  0.00    +0.000 A 
ATOM     16  C   UNL     1       5.082   4.364  15.173  0.00  0.00    +0.000 A 
ENDBRANCH   3  11
BRANCH   1  18
ATOM     17  O   UNL     1       1.948   7.881  20.070  0.00  0.00    +0.000 OA
ATOM     18  C   UNL     1       1.970   7.724  18.851  0.00  0.00    +0.000 C 
ATOM     19  N   UNL     1       1.320   8.524  17.945  0.00  0.00    +0.000 N 
ATOM     20  H   UNL     1       1.284   8.159  16.998  0.00  0.00    +0.000 HD
BRANCH  19  21
ATOM     21  C   UNL     1       0.609   9.688  18.293  0.00  0.00    +0.000 A 
ATOM     22  C   UNL     1      -0.663   9.975  17.793  0.00  0.00    +0.000 A 
ATOM     23  C   UNL     1      -1.305  11.169  18.121  0.00  0.00    +0.000 A 
ATOM     24  C   UNL     1      -0.681  12.077  18.963  0.00  0.00    +0.000 A 
ATOM     25  C   UNL     1       0.579  11.787  19.497  0.00  0.00    +0.000 A 
ATOM     26  C   UNL     1       1.220  10.581  19.171  0.00  0.00    +0.000 A 
BRANCH  25  27
ATOM     27  N   UNL     1       1.221  12.720  20.359  0.00  0.00    +0.000 N 
ATOM     28  C   UNL     1       0.677  13.421  21.403  0.00  0.00    +0.000 A 
ATOM     29  N   UNL     1       1.585  14.183  21.969  0.00  0.00    +0.000 NA
ATOM     30  N   UNL     1       2.763  13.989  21.292  0.00  0.00    +0.000 NA
ATOM     31  C   UNL     1       2.533  13.112  20.345  0.00  0.00    +0.000 A 
ENDBRANCH  25  27
ENDBRANCH  19  21
ENDBRANCH   1  18
TORSDOF 4
ENDMDL
MODEL 9
REMARK VINA RESULT:      -8.3      1.926      9.700
REMARK  Name = 
REMARK  4 active torsions:
REMARK  status: ('A' for Active; 'I' for Inactive)
REMARK    1  A    between atoms: C_2  and  C_15
REMARK    2  A    between atoms: N_3  and  C_4
REMARK    3  A    between atoms: C_8  and  N_9
REMARK    4  A    between atoms: C_17  and  C_18
REMARK                            x       y       z     vdW  Elec       q    Type
REMARK                         _______ _______ _______ _____ _____    ______ ____
ROOT
ATOM      1  C   UNL     1       0.105  10.493  19.016  0.00  0.00    +0.000 A 
ATOM      2  N   UNL     1      -1.256  10.411  18.975  0.00  0.00    +0.000 NA
ATOM      3  C   UNL     1      -1.734  11.633  18.688  0.00  0.00    +0.000 A 
ATOM      4  N   UNL     1      -0.665  12.543  18.648  0.00  0.00    +0.000 N 
ATOM      5  C   UNL     1       0.472  11.763  18.689  0.00  0.00    +0.000 A 
ATOM      6  C   UNL     1       1.826  12.335  18.651  0.00  0.00    +0.000 C 
ATOM      7  C   UNL     1       2.784  13.192  19.409  0.00  0.00    +0.000 C 
ATOM      8  C   UNL     1       2.234  14.629  19.282  0.00  0.00    +0.000 C 
ATOM      9  C   UNL     1       0.655  14.872  19.271  0.00  0.00    +0.000 C 
ATOM     10  C   UNL     1      -0.544  14.007  18.571  0.00  0.00    +0.000 C 
ENDROOT
BRANCH   3  11
ATOM     11  C   UNL     1      -3.197  11.796  18.482  0.00  0.00    +0.000 A 
ATOM     12  C   UNL     1      -4.129  12.239  19.432  0.00  0.00    +0.000 A 
ATOM     13  C   UNL     1      -5.500  12.249  19.134  0.00  0.00    +0.000 A 
ATOM     14  C   UNL     1      -5.980  11.836  17.895  0.00  0.00    +0.000 A 
ATOM     15  C   UNL     1      -5.082  11.439  16.915  0.00  0.00    +0.000 A 
ATOM     16  C   UNL     1      -3.715  11.426  17.213  0.00  0.00    +0.000 A 
ENDBRANCH   3  11
BRANCH   1  18
ATOM     17  O   UNL     1       1.420   9.400  20.609  0.00  0.00    +0.000 OA
ATOM     18  C   UNL     1       1.071   9.486  19.433  0.00  0.00    +0.000 C 
ATOM     19  N   UNL     1       1.523   8.681  18.418  0.00  0.00    +0.000 N 
ATOM     20  H   UNL     1       1.284   8.993  17.483  0.00  0.00    +0.000 HD
BRANCH  19  21
ATOM     21  C   UNL     1       2.387   7.586  18.611  0.00  0.00    +0.000 A 
ATOM     22  C   UNL     1       2.239   6.683  19.665  0.00  0.00    +0.000 A 
ATOM     23  C   UNL     1       3.154   5.646  19.849  0.00  0.00    +0.000 A 
ATOM     24  C   UNL     1       4.216   5.501  18.970  0.00  0.00    +0.000 A 
ATOM     25  C   UNL     1       4.356   6.379  17.890  0.00  0.00    +0.000 A 
ATOM     26  C   UNL     1       3.430   7.417  17.702  0.00  0.00    +0.000 A 
BRANCH  25  27
ATOM     27  N   UNL     1       5.448   6.232  16.988  0.00  0.00    +0.000 N 
ATOM     28  C   UNL     1       5.434   5.713  15.719  0.00  0.00    +0.000 A 
ATOM     29  N   UNL     1       6.637   5.750  15.194  0.00  0.00    +0.000 NA
ATOM     30  N   UNL     1       7.476   6.304  16.127  0.00  0.00    +0.000 NA
ATOM     31  C   UNL     1       6.754   6.593  17.184  0.00  0.00    +0.000 A 
ENDBRANCH  25  27
ENDBRANCH  19  21
ENDBRANCH   1  18
TORSDOF 4
ENDMDL
