MODEL 1
REMARK VINA RESULT:      -8.2      0.000      0.000
REMARK  Name = 
REMARK  4 active torsions:
REMARK  status: ('A' for Active; 'I' for Inactive)
REMARK    1  A    between atoms: C_1  and  C_2
REMARK    2  A    between atoms: C_7  and  C_8
REMARK    3  A    between atoms: C_15  and  C_16
REMARK    4  A    between atoms: N_18  and  C_19
REMARK                            x       y       z     vdW  Elec       q    Type
REMARK                         _______ _______ _______ _____ _____    ______ ____
ROOT
ATOM      1  C   UNL     1       3.541   1.621  19.165  0.00  0.00    +0.000 C 
ATOM      2  C   UNL     1       2.705   2.655  19.819  0.00  0.00    +0.000 A 
ATOM      3  N   UNL     1       1.730   2.267  20.654  0.00  0.00    +0.000 NA
ATOM      4  O   UNL     1       1.130   3.430  21.101  0.00  0.00    +0.000 OA
ATOM      5  C   UNL     1       1.745   4.508  20.546  0.00  0.00    +0.000 A 
ATOM      6  N   UNL     1       1.370   5.775  20.787  0.00  0.00    +0.000 NA
ATOM      7  C   UNL     1       2.076   6.716  20.121  0.00  0.00    +0.000 A 
ATOM      8  C   UNL     1       3.158   6.412  19.294  0.00  0.00    +0.000 A 
ATOM      9  C   UNL     1       3.515   5.076  19.085  0.00  0.00    +0.000 A 
ATOM     10  C   UNL     1       2.769   4.073  19.721  0.00  0.00    +0.000 A 
ENDROOT
BRANCH   7  11
ATOM     11  C   UNL     1       1.596   8.105  20.309  0.00  0.00    +0.000 A 
ATOM     12  C   UNL     1       1.197   8.558  21.579  0.00  0.00    +0.000 A 
ATOM     13  C   UNL     1       0.705   9.852  21.767  0.00  0.00    +0.000 A 
ATOM     14  C   UNL     1       0.591  10.716  20.683  0.00  0.00    +0.000 A 
ATOM     15  C   UNL     1       0.973  10.291  19.414  0.00  0.00    +0.000 A 
ATOM     16  C   UNL     1       1.471   8.997  19.228  0.00  0.00    +0.000 A 
ENDBRANCH   7  11
BRANCH   9  17
ATOM     17  C   UNL     1       4.584   4.751  18.129  0.00  0.00    +0.000 C 
ATOM     18  O   UNL     1       5.547   4.108  18.528  0.00  0.00    +0.000 OA
ATOM     19  N   UNL     1       4.414   5.253  16.852  0.00  0.00    +0.000 N 
ATOM     20  H   UNL     1       3.809   6.062  16.739  0.00  0.00    +0.000 HD
BRANCH  19  21
ATOM     21  C   UNL     1       5.360   5.045  15.819  0.00  0.00    +0.000 A 
ATOM     22  C   UNL     1       5.101   4.155  14.769  0.00  0.00    +0.000 A 
ATOM     23  C   UNL     1       6.056   3.938  13.773  0.00  0.00    +0.000 A 
ATOM     24  C   UNL     1       7.284   4.596  13.826  0.00  0.00    +0.000 A 
ATOM     25  C   UNL     1       7.548   5.495  14.861  0.00  0.00    +0.000 A 
ATOM     26  C   UNL     1       6.580   5.738  15.839  0.00  0.00    +0.000 A 
ATOM     27 CL   UNL     1       6.956   6.837  17.120  0.00  0.00    +0.000 Cl
ENDBRANCH  19  21
ENDBRANCH   9  17
TORSDOF 3
ENDMDL
MODEL 2
REMARK VINA RESULT:      -7.7      0.811      1.241
REMARK  Name = 
REMARK  4 active torsions:
REMARK  status: ('A' for Active; 'I' for Inactive)
REMARK    1  A    between atoms: C_1  and  C_2
REMARK    2  A    between atoms: C_7  and  C_8
REMARK    3  A    between atoms: C_15  and  C_16
REMARK    4  A    between atoms: N_18  and  C_19
REMARK                            x       y       z     vdW  Elec       q    Type
REMARK                         _______ _______ _______ _____ _____    ______ ____
ROOT
ATOM      1  C   UNL     1       3.767   1.772  19.405  0.00  0.00    +0.000 C 
ATOM      2  C   UNL     1       3.115   2.833  20.208  0.00  0.00    +0.000 A 
ATOM      3  N   UNL     1       2.680   2.537  21.441  0.00  0.00    +0.000 NA
ATOM      4  O   UNL     1       2.124   3.702  21.936  0.00  0.00    +0.000 OA
ATOM      5  C   UNL     1       2.231   4.693  21.011  0.00  0.00    +0.000 A 
ATOM      6  N   UNL     1       1.768   5.938  21.208  0.00  0.00    +0.000 NA
ATOM      7  C   UNL     1       1.934   6.780  20.164  0.00  0.00    +0.000 A 
ATOM      8  C   UNL     1       2.595   6.416  18.990  0.00  0.00    +0.000 A 
ATOM      9  C   UNL     1       3.070   5.109  18.840  0.00  0.00    +0.000 A 
ATOM     10  C   UNL     1       2.866   4.196  19.884  0.00  0.00    +0.000 A 
ENDROOT
BRANCH   7  11
ATOM     11  C   UNL     1       1.332   8.123  20.343  0.00  0.00    +0.000 A 
ATOM     12  C   UNL     1       1.361   9.064  19.300  0.00  0.00    +0.000 A 
ATOM     13  C   UNL     1       0.834  10.348  19.466  0.00  0.00    +0.000 A 
ATOM     14  C   UNL     1       0.277  10.717  20.685  0.00  0.00    +0.000 A 
ATOM     15  C   UNL     1       0.240   9.806  21.736  0.00  0.00    +0.000 A 
ATOM     16  C   UNL     1       0.764   8.519  21.567  0.00  0.00    +0.000 A 
ENDBRANCH   7  11
BRANCH   9  17
ATOM     17  C   UNL     1       3.668   4.696  17.562  0.00  0.00    +0.000 C 
ATOM     18  O   UNL     1       3.132   3.792  16.933  0.00  0.00    +0.000 OA
ATOM     19  N   UNL     1       4.831   5.355  17.208  0.00  0.00    +0.000 N 
ATOM     20  H   UNL     1       5.375   5.784  17.951  0.00  0.00    +0.000 HD
BRANCH  19  21
ATOM     21  C   UNL     1       5.540   5.062  16.017  0.00  0.00    +0.000 A 
ATOM     22  C   UNL     1       4.974   4.263  15.016  0.00  0.00    +0.000 A 
ATOM     23  C   UNL     1       5.696   3.960  13.859  0.00  0.00    +0.000 A 
ATOM     24  C   UNL     1       6.995   4.439  13.701  0.00  0.00    +0.000 A 
ATOM     25  C   UNL     1       7.565   5.247  14.686  0.00  0.00    +0.000 A 
ATOM     26  C   UNL     1       6.831   5.579  15.828  0.00  0.00    +0.000 A 
ATOM     27 CL   UNL     1       7.582   6.558  17.038  0.00  0.00    +0.000 Cl
ENDBRANCH  19  21
ENDBRANCH   9  17
TORSDOF 3
ENDMDL
MODEL 3
REMARK VINA RESULT:      -7.7      4.700      8.951
REMARK  Name = 
REMARK  4 active torsions:
REMARK  status: ('A' for Active; 'I' for Inactive)
REMARK    1  A    between atoms: C_1  and  C_2
REMARK    2  A    between atoms: C_7  and  C_8
REMARK    3  A    between atoms: C_15  and  C_16
REMARK    4  A    between atoms: N_18  and  C_19
REMARK                            x       y       z     vdW  Elec       q    Type
REMARK                         _______ _______ _______ _____ _____    ______ ____
ROOT
ATOM      1  C   UNL     1      -1.795  11.849  22.435  0.00  0.00    +0.000 C 
ATOM      2  C   UNL     1      -0.724  10.826  22.368  0.00  0.00    +0.000 A 
ATOM      3  N   UNL     1      -0.137  10.429  23.507  0.00  0.00    +0.000 NA
ATOM      4  O   UNL     1       0.807   9.488  23.138  0.00  0.00    +0.000 OA
ATOM      5  C   UNL     1       0.782   9.316  21.789  0.00  0.00    +0.000 A 
ATOM      6  N   UNL     1       1.599   8.471  21.139  0.00  0.00    +0.000 NA
ATOM      7  C   UNL     1       1.454   8.457  19.795  0.00  0.00    +0.000 A 
ATOM      8  C   UNL     1       0.487   9.209  19.126  0.00  0.00    +0.000 A 
ATOM      9  C   UNL     1      -0.347  10.066  19.852  0.00  0.00    +0.000 A 
ATOM     10  C   UNL     1      -0.186  10.143  21.243  0.00  0.00    +0.000 A 
ENDROOT
BRANCH   7  11
ATOM     11  C   UNL     1       2.423   7.601  19.072  0.00  0.00    +0.000 A 
ATOM     12  C   UNL     1       2.984   8.027  17.855  0.00  0.00    +0.000 A 
ATOM     13  C   UNL     1       3.868   7.215  17.140  0.00  0.00    +0.000 A 
ATOM     14  C   UNL     1       4.200   5.954  17.625  0.00  0.00    +0.000 A 
ATOM     15  C   UNL     1       3.655   5.507  18.824  0.00  0.00    +0.000 A 
ATOM     16  C   UNL     1       2.773   6.322  19.541  0.00  0.00    +0.000 A 
ENDBRANCH   7  11
BRANCH   9  17
ATOM     17  C   UNL     1      -1.290  10.939  19.137  0.00  0.00    +0.000 C 
ATOM     18  O   UNL     1      -0.914  12.056  18.807  0.00  0.00    +0.000 OA
ATOM     19  N   UNL     1      -2.555  10.416  18.941  0.00  0.00    +0.000 N 
ATOM     20  H   UNL     1      -2.863   9.679  19.568  0.00  0.00    +0.000 HD
BRANCH  19  21
ATOM     21  C   UNL     1      -3.584  11.135  18.286  0.00  0.00    +0.000 A 
ATOM     22  C   UNL     1      -4.479  11.935  19.006  0.00  0.00    +0.000 A 
ATOM     23  C   UNL     1      -5.506  12.617  18.348  0.00  0.00    +0.000 A 
ATOM     24  C   UNL     1      -5.657  12.492  16.969  0.00  0.00    +0.000 A 
ATOM     25  C   UNL     1      -4.762  11.707  16.239  0.00  0.00    +0.000 A 
ATOM     26  C   UNL     1      -3.715  11.052  16.891  0.00  0.00    +0.000 A 
ATOM     27 CL   UNL     1      -2.645  10.067  15.956  0.00  0.00    +0.000 Cl
ENDBRANCH  19  21
ENDBRANCH   9  17
TORSDOF 3
ENDMDL
MODEL 4
REMARK VINA RESULT:      -7.6      4.484      8.770
REMARK  Name = 
REMARK  4 active torsions:
REMARK  status: ('A' for Active; 'I' for Inactive)
REMARK    1  A    between atoms: C_1  and  C_2
REMARK    2  A    between atoms: C_7  and  C_8
REMARK    3  A    between atoms: C_15  and  C_16
REMARK    4  A    between atoms: N_18  and  C_19
REMARK                            x       y       z     vdW  Elec       q    Type
REMARK                         _______ _______ _______ _____ _____    ______ ____
ROOT
ATOM      1  C   UNL     1      -1.087  12.625  22.471  0.00  0.00    +0.000 C 
ATOM      2  C   UNL     1      -0.492  11.273  22.351  0.00  0.00    +0.000 A 
ATOM      3  N   UNL     1      -0.532  10.452  23.410  0.00  0.00    +0.000 NA
ATOM      4  O   UNL     1       0.091   9.285  23.007  0.00  0.00    +0.000 OA
ATOM      5  C   UNL     1       0.495   9.401  21.713  0.00  0.00    +0.000 A 
ATOM      6  N   UNL     1       1.141   8.426  21.053  0.00  0.00    +0.000 NA
ATOM      7  C   UNL     1       1.493   8.733  19.784  0.00  0.00    +0.000 A 
ATOM      8  C   UNL     1       1.159   9.942  19.173  0.00  0.00    +0.000 A 
ATOM      9  C   UNL     1       0.474  10.920  19.902  0.00  0.00    +0.000 A 
ATOM     10  C   UNL     1       0.140  10.653  21.237  0.00  0.00    +0.000 A 
ENDROOT
BRANCH   7  11
ATOM     11  C   UNL     1       2.295   7.697  19.091  0.00  0.00    +0.000 A 
ATOM     12  C   UNL     1       2.425   6.410  19.641  0.00  0.00    +0.000 A 
ATOM     13  C   UNL     1       3.209   5.432  19.021  0.00  0.00    +0.000 A 
ATOM     14  C   UNL     1       3.888   5.730  17.844  0.00  0.00    +0.000 A 
ATOM     15  C   UNL     1       3.779   6.998  17.283  0.00  0.00    +0.000 A 
ATOM     16  C   UNL     1       2.990   7.974  17.901  0.00  0.00    +0.000 A 
ENDBRANCH   7  11
BRANCH   9  17
ATOM     17  C   UNL     1       0.218  12.234  19.292  0.00  0.00    +0.000 C 
ATOM     18  O   UNL     1      -0.614  12.308  18.398  0.00  0.00    +0.000 OA
ATOM     19  N   UNL     1       0.994  13.274  19.772  0.00  0.00    +0.000 N 
ATOM     20  H   UNL     1       1.880  13.039  20.209  0.00  0.00    +0.000 HD
BRANCH  19  21
ATOM     21  C   UNL     1       0.883  14.596  19.278  0.00  0.00    +0.000 A 
ATOM     22  C   UNL     1      -0.306  15.323  19.417  0.00  0.00    +0.000 A 
ATOM     23  C   UNL     1      -0.409  16.617  18.899  0.00  0.00    +0.000 A 
ATOM     24  C   UNL     1       0.668  17.188  18.225  0.00  0.00    +0.000 A 
ATOM     25  C   UNL     1       1.862  16.478  18.092  0.00  0.00    +0.000 A 
ATOM     26  C   UNL     1       1.978  15.197  18.638  0.00  0.00    +0.000 A 
ATOM     27 CL   UNL     1       3.464  14.339  18.427  0.00  0.00    +0.000 Cl
ENDBRANCH  19  21
ENDBRANCH   9  17
TORSDOF 3
ENDMDL
MODEL 5
REMARK VINA RESULT:      -7.6      1.730      6.823
REMARK  Name = 
REMARK  4 active torsions:
REMARK  status: ('A' for Active; 'I' for Inactive)
REMARK    1  A    between atoms: C_1  and  C_2
REMARK    2  A    between atoms: C_7  and  C_8
REMARK    3  A    between atoms: C_15  and  C_16
REMARK    4  A    between atoms: N_18  and  C_19
REMARK                            x       y       z     vdW  Elec       q    Type
REMARK                         _______ _______ _______ _____ _____    ______ ____
ROOT
ATOM      1  C   UNL     1       2.154   3.409  22.047  0.00  0.00    +0.000 C 
ATOM      2  C   UNL     1       3.169   3.026  21.038  0.00  0.00    +0.000 A 
ATOM      3  N   UNL     1       3.917   1.934  21.254  0.00  0.00    +0.000 NA
ATOM      4  O   UNL     1       4.761   1.831  20.163  0.00  0.00    +0.000 OA
ATOM      5  C   UNL     1       4.516   2.849  19.295  0.00  0.00    +0.000 A 
ATOM      6  N   UNL     1       5.192   3.016  18.146  0.00  0.00    +0.000 NA
ATOM      7  C   UNL     1       4.834   4.102  17.426  0.00  0.00    +0.000 A 
ATOM      8  C   UNL     1       3.796   4.957  17.802  0.00  0.00    +0.000 A 
ATOM      9  C   UNL     1       3.115   4.731  19.003  0.00  0.00    +0.000 A 
ATOM     10  C   UNL     1       3.499   3.642  19.799  0.00  0.00    +0.000 A 
ENDROOT
BRANCH   7  11
ATOM     11  C   UNL     1       5.649   4.342  16.211  0.00  0.00    +0.000 A 
ATOM     12  C   UNL     1       6.773   5.184  16.260  0.00  0.00    +0.000 A 
ATOM     13  C   UNL     1       7.529   5.452  15.116  0.00  0.00    +0.000 A 
ATOM     14  C   UNL     1       7.166   4.891  13.896  0.00  0.00    +0.000 A 
ATOM     15  C   UNL     1       6.054   4.058  13.820  0.00  0.00    +0.000 A 
ATOM     16  C   UNL     1       5.301   3.786  14.967  0.00  0.00    +0.000 A 
ENDBRANCH   7  11
BRANCH   9  17
ATOM     17  C   UNL     1       2.098   5.693  19.452  0.00  0.00    +0.000 C 
ATOM     18  O   UNL     1       0.930   5.327  19.494  0.00  0.00    +0.000 OA
ATOM     19  N   UNL     1       2.565   6.960  19.747  0.00  0.00    +0.000 N 
ATOM     20  H   UNL     1       3.440   7.252  19.322  0.00  0.00    +0.000 HD
BRANCH  19  21
ATOM     21  C   UNL     1       1.711   8.006  20.176  0.00  0.00    +0.000 A 
ATOM     22  C   UNL     1       1.220   8.047  21.486  0.00  0.00    +0.000 A 
ATOM     23  C   UNL     1       0.355   9.069  21.887  0.00  0.00    +0.000 A 
ATOM     24  C   UNL     1      -0.037  10.049  20.977  0.00  0.00    +0.000 A 
ATOM     25  C   UNL     1       0.457  10.025  19.671  0.00  0.00    +0.000 A 
ATOM     26  C   UNL     1       1.347   9.022  19.279  0.00  0.00    +0.000 A 
ATOM     27 CL   UNL     1       1.914   9.011  17.646  0.00  0.00    +0.000 Cl
ENDBRANCH  19  21
ENDBRANCH   9  17
TORSDOF 3
ENDMDL
MODEL 6
REMARK VINA RESULT:      -7.4      4.609      8.494
REMARK  Name = 
REMARK  4 active torsions:
REMARK  status: ('A' for Active; 'I' for Inactive)
REMARK    1  A    between atoms: C_1  and  C_2
REMARK    2  A    between atoms: C_7  and  C_8
REMARK    3  A    between atoms: C_15  and  C_16
REMARK    4  A    between atoms: N_18  and  C_19
REMARK                            x       y       z     vdW  Elec       q    Type
REMARK                         _______ _______ _______ _____ _____    ______ ____
ROOT
ATOM      1  C   UNL     1      -0.869  12.814  22.429  0.00  0.00    +0.000 C 
ATOM      2  C   UNL     1      -0.538  11.371  22.369  0.00  0.00    +0.000 A 
ATOM      3  N   UNL     1      -0.951  10.569  23.361  0.00  0.00    +0.000 NA
ATOM      4  O   UNL     1      -0.500   9.303  23.038  0.00  0.00    +0.000 OA
ATOM      5  C   UNL     1       0.172   9.341  21.857  0.00  0.00    +0.000 A 
ATOM      6  N   UNL     1       0.736   8.260  21.295  0.00  0.00    +0.000 NA
ATOM      7  C   UNL     1       1.392   8.495  20.136  0.00  0.00    +0.000 A 
ATOM      8  C   UNL     1       1.431   9.749  19.525  0.00  0.00    +0.000 A 
ATOM      9  C   UNL     1       0.817  10.841  20.147  0.00  0.00    +0.000 A 
ATOM     10  C   UNL     1       0.173  10.641  21.376  0.00  0.00    +0.000 A 
ENDROOT
BRANCH   7  11
ATOM     11  C   UNL     1       2.099   7.322  19.570  0.00  0.00    +0.000 A 
ATOM     12  C   UNL     1       2.782   7.422  18.346  0.00  0.00    +0.000 A 
ATOM     13  C   UNL     1       3.420   6.316  17.778  0.00  0.00    +0.000 A 
ATOM     14  C   UNL     1       3.376   5.083  18.421  0.00  0.00    +0.000 A 
ATOM     15  C   UNL     1       2.702   4.956  19.631  0.00  0.00    +0.000 A 
ATOM     16  C   UNL     1       2.068   6.065  20.201  0.00  0.00    +0.000 A 
ENDBRANCH   7  11
BRANCH   9  17
ATOM     17  C   UNL     1       0.952  12.182  19.558  0.00  0.00    +0.000 C 
ATOM     18  O   UNL     1       0.033  12.613  18.875  0.00  0.00    +0.000 OA
ATOM     19  N   UNL     1       2.153  12.823  19.805  0.00  0.00    +0.000 N 
ATOM     20  H   UNL     1       2.956  12.246  20.037  0.00  0.00    +0.000 HD
BRANCH  19  21
ATOM     21  C   UNL     1       2.447  14.111  19.295  0.00  0.00    +0.000 A 
ATOM     22  C   UNL     1       2.961  14.278  18.003  0.00  0.00    +0.000 A 
ATOM     23  C   UNL     1       3.273  15.553  17.525  0.00  0.00    +0.000 A 
ATOM     24  C   UNL     1       3.089  16.669  18.339  0.00  0.00    +0.000 A 
ATOM     25  C   UNL     1       2.566  16.516  19.624  0.00  0.00    +0.000 A 
ATOM     26  C   UNL     1       2.222  15.245  20.091  0.00  0.00    +0.000 A 
ATOM     27 CL   UNL     1       1.603  15.093  21.698  0.00  0.00    +0.000 Cl
ENDBRANCH  19  21
ENDBRANCH   9  17
TORSDOF 3
ENDMDL
MODEL 7
REMARK VINA RESULT:      -7.4      3.515      6.756
REMARK  Name = 
REMARK  4 active torsions:
REMARK  status: ('A' for Active; 'I' for Inactive)
REMARK    1  A    between atoms: C_1  and  C_2
REMARK    2  A    between atoms: C_7  and  C_8
REMARK    3  A    between atoms: C_15  and  C_16
REMARK    4  A    between atoms: N_18  and  C_19
REMARK                            x       y       z     vdW  Elec       q    Type
REMARK                         _______ _______ _______ _____ _____    ______ ____
ROOT
ATOM      1  C   UNL     1       5.511   2.950  15.816  0.00  0.00    +0.000 C 
ATOM      2  C   UNL     1       6.312   4.187  15.660  0.00  0.00    +0.000 A 
ATOM      3  N   UNL     1       6.980   4.385  14.514  0.00  0.00    +0.000 NA
ATOM      4  O   UNL     1       7.626   5.600  14.658  0.00  0.00    +0.000 OA
ATOM      5  C   UNL     1       7.342   6.131  15.877  0.00  0.00    +0.000 A 
ATOM      6  N   UNL     1       7.838   7.303  16.304  0.00  0.00    +0.000 NA
ATOM      7  C   UNL     1       7.473   7.656  17.557  0.00  0.00    +0.000 A 
ATOM      8  C   UNL     1       6.593   6.901  18.334  0.00  0.00    +0.000 A 
ATOM      9  C   UNL     1       6.094   5.692  17.837  0.00  0.00    +0.000 A 
ATOM     10  C   UNL     1       6.496   5.272  16.561  0.00  0.00    +0.000 A 
ENDROOT
BRANCH   7  11
ATOM     11  C   UNL     1       8.102   8.898  18.064  0.00  0.00    +0.000 A 
ATOM     12  C   UNL     1       7.920  10.118  17.390  0.00  0.00    +0.000 A 
ATOM     13  C   UNL     1       8.538  11.290  17.831  0.00  0.00    +0.000 A 
ATOM     14  C   UNL     1       9.361  11.262  18.952  0.00  0.00    +0.000 A 
ATOM     15  C   UNL     1       9.562  10.066  19.635  0.00  0.00    +0.000 A 
ATOM     16  C   UNL     1       8.939   8.894  19.195  0.00  0.00    +0.000 A 
ENDBRANCH   7  11
BRANCH   9  17
ATOM     17  C   UNL     1       5.255   4.845  18.697  0.00  0.00    +0.000 C 
ATOM     18  O   UNL     1       5.794   3.951  19.338  0.00  0.00    +0.000 OA
ATOM     19  N   UNL     1       3.900   5.119  18.664  0.00  0.00    +0.000 N 
ATOM     20  H   UNL     1       3.534   5.594  17.844  0.00  0.00    +0.000 HD
BRANCH  19  21
ATOM     21  C   UNL     1       2.955   4.383  19.421  0.00  0.00    +0.000 A 
ATOM     22  C   UNL     1       2.807   4.596  20.797  0.00  0.00    +0.000 A 
ATOM     23  C   UNL     1       1.891   3.843  21.535  0.00  0.00    +0.000 A 
ATOM     24  C   UNL     1       1.128   2.860  20.908  0.00  0.00    +0.000 A 
ATOM     25  C   UNL     1       1.258   2.647  19.534  0.00  0.00    +0.000 A 
ATOM     26  C   UNL     1       2.150   3.423  18.789  0.00  0.00    +0.000 A 
ATOM     27 CL   UNL     1       2.303   3.110  17.096  0.00  0.00    +0.000 Cl
ENDBRANCH  19  21
ENDBRANCH   9  17
TORSDOF 3
ENDMDL
MODEL 8
REMARK VINA RESULT:      -7.4      1.829      7.021
REMARK  Name = 
REMARK  4 active torsions:
REMARK  status: ('A' for Active; 'I' for Inactive)
REMARK    1  A    between atoms: C_1  and  C_2
REMARK    2  A    between atoms: C_7  and  C_8
REMARK    3  A    between atoms: C_15  and  C_16
REMARK    4  A    between atoms: N_18  and  C_19
REMARK                            x       y       z     vdW  Elec       q    Type
REMARK                         _______ _______ _______ _____ _____    ______ ____
ROOT
ATOM      1  C   UNL     1       2.089   3.721  20.749  0.00  0.00    +0.000 C 
ATOM      2  C   UNL     1       2.727   3.157  19.536  0.00  0.00    +0.000 A 
ATOM      3  N   UNL     1       2.700   1.829  19.348  0.00  0.00    +0.000 NA
ATOM      4  O   UNL     1       3.362   1.602  18.156  0.00  0.00    +0.000 OA
ATOM      5  C   UNL     1       3.778   2.785  17.628  0.00  0.00    +0.000 A 
ATOM      6  N   UNL     1       4.462   2.878  16.475  0.00  0.00    +0.000 NA
ATOM      7  C   UNL     1       4.820   4.132  16.124  0.00  0.00    +0.000 A 
ATOM      8  C   UNL     1       4.456   5.262  16.858  0.00  0.00    +0.000 A 
ATOM      9  C   UNL     1       3.733   5.112  18.046  0.00  0.00    +0.000 A 
ATOM     10  C   UNL     1       3.391   3.818  18.466  0.00  0.00    +0.000 A 
ENDROOT
BRANCH   7  11
ATOM     11  C   UNL     1       5.661   4.223  14.907  0.00  0.00    +0.000 A 
ATOM     12  C   UNL     1       6.851   4.971  14.915  0.00  0.00    +0.000 A 
ATOM     13  C   UNL     1       7.636   5.100  13.765  0.00  0.00    +0.000 A 
ATOM     14  C   UNL     1       7.236   4.491  12.581  0.00  0.00    +0.000 A 
ATOM     15  C   UNL     1       6.060   3.749  12.544  0.00  0.00    +0.000 A 
ATOM     16  C   UNL     1       5.278   3.616  13.697  0.00  0.00    +0.000 A 
ENDBRANCH   7  11
BRANCH   9  17
ATOM     17  C   UNL     1       3.445   6.291  18.875  0.00  0.00    +0.000 C 
ATOM     18  O   UNL     1       4.376   6.840  19.451  0.00  0.00    +0.000 OA
ATOM     19  N   UNL     1       2.111   6.648  18.960  0.00  0.00    +0.000 N 
ATOM     20  H   UNL     1       1.418   5.929  18.775  0.00  0.00    +0.000 HD
BRANCH  19  21
ATOM     21  C   UNL     1       1.666   7.749  19.732  0.00  0.00    +0.000 A 
ATOM     22  C   UNL     1       1.334   7.598  21.084  0.00  0.00    +0.000 A 
ATOM     23  C   UNL     1       0.868   8.687  21.825  0.00  0.00    +0.000 A 
ATOM     24  C   UNL     1       0.716   9.931  21.217  0.00  0.00    +0.000 A 
ATOM     25  C   UNL     1       1.056  10.097  19.873  0.00  0.00    +0.000 A 
ATOM     26  C   UNL     1       1.553   9.016  19.140  0.00  0.00    +0.000 A 
ATOM     27 CL   UNL     1       1.936   9.255  17.471  0.00  0.00    +0.000 Cl
ENDBRANCH  19  21
ENDBRANCH   9  17
TORSDOF 3
ENDMDL
MODEL 9
REMARK VINA RESULT:      -7.4      1.193      1.323
REMARK  Name = 
REMARK  4 active torsions:
REMARK  status: ('A' for Active; 'I' for Inactive)
REMARK    1  A    between atoms: C_1  and  C_2
REMARK    2  A    between atoms: C_7  and  C_8
REMARK    3  A    between atoms: C_15  and  C_16
REMARK    4  A    between atoms: N_18  and  C_19
REMARK                            x       y       z     vdW  Elec       q    Type
REMARK                         _______ _______ _______ _____ _____    ______ ____
ROOT
ATOM      1  C   UNL     1       3.634   2.936  18.503  0.00  0.00    +0.000 C 
ATOM      2  C   UNL     1       2.828   3.711  19.475  0.00  0.00    +0.000 A 
ATOM      3  N   UNL     1       2.194   3.056  20.459  0.00  0.00    +0.000 NA
ATOM      4  O   UNL     1       1.535   4.023  21.194  0.00  0.00    +0.000 OA
ATOM      5  C   UNL     1       1.776   5.251  20.661  0.00  0.00    +0.000 A 
ATOM      6  N   UNL     1       1.257   6.386  21.158  0.00  0.00    +0.000 NA
ATOM      7  C   UNL     1       1.580   7.508  20.478  0.00  0.00    +0.000 A 
ATOM      8  C   UNL     1       2.442   7.511  19.380  0.00  0.00    +0.000 A 
ATOM      9  C   UNL     1       2.966   6.302  18.909  0.00  0.00    +0.000 A 
ATOM     10  C   UNL     1       2.607   5.114  19.561  0.00  0.00    +0.000 A 
ENDROOT
BRANCH   7  11
ATOM     11  C   UNL     1       0.925   8.744  20.966  0.00  0.00    +0.000 A 
ATOM     12  C   UNL     1       0.511   8.852  22.305  0.00  0.00    +0.000 A 
ATOM     13  C   UNL     1      -0.144   9.994  22.773  0.00  0.00    +0.000 A 
ATOM     14  C   UNL     1      -0.407  11.048  21.904  0.00  0.00    +0.000 A 
ATOM     15  C   UNL     1      -0.013  10.964  20.572  0.00  0.00    +0.000 A 
ATOM     16  C   UNL     1       0.648   9.822  20.107  0.00  0.00    +0.000 A 
ENDBRANCH   7  11
BRANCH   9  17
ATOM     17  C   UNL     1       3.785   6.293  17.688  0.00  0.00    +0.000 C 
ATOM     18  O   UNL     1       3.650   7.211  16.889  0.00  0.00    +0.000 OA
ATOM     19  N   UNL     1       4.617   5.199  17.537  0.00  0.00    +0.000 N 
ATOM     20  H   UNL     1       4.374   4.348  18.036  0.00  0.00    +0.000 HD
BRANCH  19  21
ATOM     21  C   UNL     1       5.457   5.030  16.409  0.00  0.00    +0.000 A 
ATOM     22  C   UNL     1       5.008   4.356  15.267  0.00  0.00    +0.000 A 
ATOM     23  C   UNL     1       5.857   4.173  14.173  0.00  0.00    +0.000 A 
ATOM     24  C   UNL     1       7.166   4.649  14.217  0.00  0.00    +0.000 A 
ATOM     25  C   UNL     1       7.621   5.334  15.345  0.00  0.00    +0.000 A 
ATOM     26  C   UNL     1       6.762   5.547  16.427  0.00  0.00    +0.000 A 
ATOM     27 CL   UNL     1       7.370   6.375  17.816  0.00  0.00    +0.000 Cl
ENDBRANCH  19  21
ENDBRANCH   9  17
TORSDOF 3
ENDMDL
