MODEL 1
REMARK VINA RESULT:      -8.4      0.000      0.000
REMARK  Name = 
REMARK  6 active torsions:
REMARK  status: ('A' for Active; 'I' for Inactive)
REMARK    1  A    between atoms: C_2  and  C_16
REMARK    2  A    between atoms: N_3  and  C_4
REMARK    3  A    between atoms: C_4  and  C_5
REMARK    4  A    between atoms: C_9  and  C_10
REMARK    5  A    between atoms: C_20  and  C_21
REMARK    6  A    between atoms: C_21  and  N_22
REMARK                            x       y       z     vdW  Elec       q    Type
REMARK                         _______ _______ _______ _____ _____    ______ ____
ROOT
ATOM      1  O   UNL     1       0.489   2.832  19.314  0.00  0.00    +0.000 OA
ATOM      2  C   UNL     1       1.582   3.374  19.465  0.00  0.00    +0.000 C 
ATOM      3  N   UNL     1       2.687   2.640  19.874  0.00  0.00    +0.000 N 
ATOM      4  H   UNL     1       2.549   1.635  19.884  0.00  0.00    +0.000 HD
ENDROOT
BRANCH   2   5
ATOM      5  C   UNL     1       1.715   4.851  19.274  0.00  0.00    +0.000 A 
ATOM      6  C   UNL     1       2.111   5.372  18.037  0.00  0.00    +0.000 A 
ATOM      7  C   UNL     1       2.573   6.674  17.935  0.00  0.00    +0.000 A 
ATOM      8  C   UNL     1       2.429   7.530  19.017  0.00  0.00    +0.000 A 
ATOM      9  C   UNL     1       1.811   7.098  20.204  0.00  0.00    +0.000 A 
ATOM     10  C   UNL     1       1.498   5.731  20.345  0.00  0.00    +0.000 A 
BRANCH   9  11
ATOM     11  C   UNL     1       1.385   8.146  21.209  0.00  0.00    +0.000 C 
BRANCH  11  12
ATOM     12  N   UNL     1       0.044   8.712  21.132  0.00  0.00    +0.000 NA
ATOM     13  C   UNL     1      -0.314   9.599  20.035  0.00  0.00    +0.000 C 
ATOM     14  C   UNL     1       0.016  11.066  20.242  0.00  0.00    +0.000 C 
ATOM     15  S   UNL     1      -0.548  11.669  21.815  0.00  0.00    +0.000 S 
ATOM     16  O   UNL     1       0.303  12.791  22.181  0.00  0.00    +0.000 OA
ATOM     17  O   UNL     1      -1.987  11.847  21.739  0.00  0.00    +0.000 OA
ATOM     18  C   UNL     1      -0.224  10.357  22.967  0.00  0.00    +0.000 C 
ATOM     19  C   UNL     1      -0.616   9.017  22.390  0.00  0.00    +0.000 C 
ENDBRANCH  11  12
ENDBRANCH   9  11
ENDBRANCH   2   5
BRANCH   3  20
ATOM     20  C   UNL     1       4.027   3.155  20.044  0.00  0.00    +0.000 C 
BRANCH  20  21
ATOM     21  C   UNL     1       4.789   3.537  18.819  0.00  0.00    +0.000 A 
ATOM     22  C   UNL     1       4.414   3.008  17.583  0.00  0.00    +0.000 A 
ATOM     23  C   UNL     1       4.897   3.566  16.406  0.00  0.00    +0.000 A 
ATOM     24  C   UNL     1       5.744   4.677  16.465  0.00  0.00    +0.000 A 
ATOM     25  C   UNL     1       6.122   5.230  17.696  0.00  0.00    +0.000 A 
ATOM     26  C   UNL     1       5.664   4.625  18.872  0.00  0.00    +0.000 A 
BRANCH  25  27
ATOM     27  C   UNL     1       6.913   6.453  17.753  0.00  0.00    +0.000 A 
ATOM     28  N   UNL     1       6.799   7.520  16.984  0.00  0.00    +0.000 NA
ATOM     29  N   UNL     1       7.746   8.439  17.375  0.00  0.00    +0.000 NA
ATOM     30  C   UNL     1       8.402   7.929  18.392  0.00  0.00    +0.000 A 
ATOM     31  N   UNL     1       7.900   6.698  18.678  0.00  0.00    +0.000 N 
ATOM     32  H   UNL     1       8.188   6.098  19.438  0.00  0.00    +0.000 HD
ENDBRANCH  25  27
ENDBRANCH  20  21
ENDBRANCH   3  20
TORSDOF 6
ENDMDL
MODEL 2
REMARK VINA RESULT:      -8.2      5.199     10.139
REMARK  Name = 
REMARK  6 active torsions:
REMARK  status: ('A' for Active; 'I' for Inactive)
REMARK    1  A    between atoms: C_2  and  C_16
REMARK    2  A    between atoms: N_3  and  C_4
REMARK    3  A    between atoms: C_4  and  C_5
REMARK    4  A    between atoms: C_9  and  C_10
REMARK    5  A    between atoms: C_20  and  C_21
REMARK    6  A    between atoms: C_21  and  N_22
REMARK                            x       y       z     vdW  Elec       q    Type
REMARK                         _______ _______ _______ _____ _____    ______ ____
ROOT
ATOM      1  O   UNL     1       2.159  11.511  18.652  0.00  0.00    +0.000 OA
ATOM      2  C   UNL     1       1.268  10.669  18.566  0.00  0.00    +0.000 C 
ATOM      3  N   UNL     1      -0.018  11.034  18.192  0.00  0.00    +0.000 N 
ATOM      4  H   UNL     1      -0.110  11.988  17.859  0.00  0.00    +0.000 HD
ENDROOT
BRANCH   2   5
ATOM      5  C   UNL     1       1.547   9.247  18.935  0.00  0.00    +0.000 A 
ATOM      6  C   UNL     1       1.084   8.727  20.148  0.00  0.00    +0.000 A 
ATOM      7  C   UNL     1       1.615   7.555  20.663  0.00  0.00    +0.000 A 
ATOM      8  C   UNL     1       2.444   6.781  19.866  0.00  0.00    +0.000 A 
ATOM      9  C   UNL     1       2.739   7.161  18.545  0.00  0.00    +0.000 A 
ATOM     10  C   UNL     1       2.324   8.432  18.098  0.00  0.00    +0.000 A 
BRANCH   9  11
ATOM     11  C   UNL     1       3.363   6.132  17.627  0.00  0.00    +0.000 C 
BRANCH  11  12
ATOM     12  N   UNL     1       4.546   5.401  18.067  0.00  0.00    +0.000 NA
ATOM     13  C   UNL     1       5.757   6.122  18.431  0.00  0.00    +0.000 C 
ATOM     14  C   UNL     1       6.697   6.447  17.284  0.00  0.00    +0.000 C 
ATOM     15  S   UNL     1       7.030   5.032  16.263  0.00  0.00    +0.000 S 
ATOM     16  O   UNL     1       7.374   5.525  14.937  0.00  0.00    +0.000 OA
ATOM     17  O   UNL     1       7.953   4.168  16.976  0.00  0.00    +0.000 OA
ATOM     18  C   UNL     1       5.480   4.175  16.126  0.00  0.00    +0.000 C 
ATOM     19  C   UNL     1       4.779   4.102  17.461  0.00  0.00    +0.000 C 
ENDBRANCH  11  12
ENDBRANCH   9  11
ENDBRANCH   2   5
BRANCH   3  20
ATOM     20  C   UNL     1      -1.134  10.132  18.016  0.00  0.00    +0.000 C 
BRANCH  20  21
ATOM     21  C   UNL     1      -2.208  10.527  17.057  0.00  0.00    +0.000 A 
ATOM     22  C   UNL     1      -2.263   9.922  15.799  0.00  0.00    +0.000 A 
ATOM     23  C   UNL     1      -3.403  10.040  15.015  0.00  0.00    +0.000 A 
ATOM     24  C   UNL     1      -4.506  10.749  15.500  0.00  0.00    +0.000 A 
ATOM     25  C   UNL     1      -4.474  11.352  16.765  0.00  0.00    +0.000 A 
ATOM     26  C   UNL     1      -3.300  11.263  17.521  0.00  0.00    +0.000 A 
BRANCH  25  27
ATOM     27  C   UNL     1      -5.661  11.995  17.315  0.00  0.00    +0.000 A 
ATOM     28  N   UNL     1      -6.544  11.475  18.148  0.00  0.00    +0.000 NA
ATOM     29  N   UNL     1      -7.508  12.423  18.405  0.00  0.00    +0.000 NA
ATOM     30  C   UNL     1      -7.184  13.512  17.746  0.00  0.00    +0.000 A 
ATOM     31  N   UNL     1      -6.024  13.299  17.069  0.00  0.00    +0.000 N 
ATOM     32  H   UNL     1      -5.523  13.978  16.514  0.00  0.00    +0.000 HD
ENDBRANCH  25  27
ENDBRANCH  20  21
ENDBRANCH   3  20
TORSDOF 6
ENDMDL
MODEL 3
REMARK VINA RESULT:      -8.1      2.345      3.272
REMARK  Name = 
REMARK  6 active torsions:
REMARK  status: ('A' for Active; 'I' for Inactive)
REMARK    1  A    between atoms: C_2  and  C_16
REMARK    2  A    between atoms: N_3  and  C_4
REMARK    3  A    between atoms: C_4  and  C_5
REMARK    4  A    between atoms: C_9  and  C_10
REMARK    5  A    between atoms: C_20  and  C_21
REMARK    6  A    between atoms: C_21  and  N_22
REMARK                            x       y       z     vdW  Elec       q    Type
REMARK                         _______ _______ _______ _____ _____    ______ ____
ROOT
ATOM      1  O   UNL     1       0.822   3.745  17.442  0.00  0.00    +0.000 OA
ATOM      2  C   UNL     1       1.889   3.971  18.009  0.00  0.00    +0.000 C 
ATOM      3  N   UNL     1       2.913   3.034  17.993  0.00  0.00    +0.000 N 
ATOM      4  H   UNL     1       2.762   2.251  17.366  0.00  0.00    +0.000 HD
ENDROOT
BRANCH   2   5
ATOM      5  C   UNL     1       2.067   5.237  18.785  0.00  0.00    +0.000 A 
ATOM      6  C   UNL     1       1.935   5.237  20.177  0.00  0.00    +0.000 A 
ATOM      7  C   UNL     1       1.748   6.424  20.869  0.00  0.00    +0.000 A 
ATOM      8  C   UNL     1       1.917   7.628  20.203  0.00  0.00    +0.000 A 
ATOM      9  C   UNL     1       2.288   7.660  18.847  0.00  0.00    +0.000 A 
ATOM     10  C   UNL     1       2.312   6.451  18.124  0.00  0.00    +0.000 A 
BRANCH   9  11
ATOM     11  C   UNL     1       2.777   8.971  18.271  0.00  0.00    +0.000 C 
BRANCH  11  12
ATOM     12  N   UNL     1       1.811   9.932  17.751  0.00  0.00    +0.000 NA
ATOM     13  C   UNL     1       2.142  11.349  17.705  0.00  0.00    +0.000 C 
ATOM     14  C   UNL     1       1.854  12.132  18.973  0.00  0.00    +0.000 C 
ATOM     15  S   UNL     1       0.215  11.837  19.591  0.00  0.00    +0.000 S 
ATOM     16  O   UNL     1       0.240  12.082  21.025  0.00  0.00    +0.000 OA
ATOM     17  O   UNL     1      -0.721  12.561  18.749  0.00  0.00    +0.000 OA
ATOM     18  C   UNL     1      -0.073  10.101  19.353  0.00  0.00    +0.000 C 
ATOM     19  C   UNL     1       0.407   9.651  17.993  0.00  0.00    +0.000 C 
ENDBRANCH  11  12
ENDBRANCH   9  11
ENDBRANCH   2   5
BRANCH   3  20
ATOM     20  C   UNL     1       4.221   3.203  18.584  0.00  0.00    +0.000 C 
BRANCH  20  21
ATOM     21  C   UNL     1       5.139   4.210  17.975  0.00  0.00    +0.000 A 
ATOM     22  C   UNL     1       5.967   4.974  18.800  0.00  0.00    +0.000 A 
ATOM     23  C   UNL     1       7.028   5.688  18.260  0.00  0.00    +0.000 A 
ATOM     24  C   UNL     1       7.280   5.620  16.886  0.00  0.00    +0.000 A 
ATOM     25  C   UNL     1       6.468   4.848  16.043  0.00  0.00    +0.000 A 
ATOM     26  C   UNL     1       5.375   4.174  16.598  0.00  0.00    +0.000 A 
BRANCH  25  27
ATOM     27  C   UNL     1       6.797   4.689  14.632  0.00  0.00    +0.000 A 
ATOM     28  N   UNL     1       7.638   5.413  13.917  0.00  0.00    +0.000 NA
ATOM     29  N   UNL     1       7.643   4.925  12.630  0.00  0.00    +0.000 NA
ATOM     30  C   UNL     1       6.826   3.898  12.588  0.00  0.00    +0.000 A 
ATOM     31  N   UNL     1       6.292   3.699  13.822  0.00  0.00    +0.000 N 
ATOM     32  H   UNL     1       5.665   2.953  14.089  0.00  0.00    +0.000 HD
ENDBRANCH  25  27
ENDBRANCH  20  21
ENDBRANCH   3  20
TORSDOF 6
ENDMDL
MODEL 4
REMARK VINA RESULT:      -8.1      3.624      7.396
REMARK  Name = 
REMARK  6 active torsions:
REMARK  status: ('A' for Active; 'I' for Inactive)
REMARK    1  A    between atoms: C_2  and  C_16
REMARK    2  A    between atoms: N_3  and  C_4
REMARK    3  A    between atoms: C_4  and  C_5
REMARK    4  A    between atoms: C_9  and  C_10
REMARK    5  A    between atoms: C_20  and  C_21
REMARK    6  A    between atoms: C_21  and  N_22
REMARK                            x       y       z     vdW  Elec       q    Type
REMARK                         _______ _______ _______ _____ _____    ______ ____
ROOT
ATOM      1  O   UNL     1       0.012   2.920  19.277  0.00  0.00    +0.000 OA
ATOM      2  C   UNL     1       1.035   3.599  19.350  0.00  0.00    +0.000 C 
ATOM      3  N   UNL     1       1.051   4.781  20.076  0.00  0.00    +0.000 N 
ATOM      4  H   UNL     1       0.225   4.943  20.643  0.00  0.00    +0.000 HD
ENDROOT
BRANCH   2   5
ATOM      5  C   UNL     1       2.258   3.188  18.593  0.00  0.00    +0.000 A 
ATOM      6  C   UNL     1       2.919   1.997  18.911  0.00  0.00    +0.000 A 
ATOM      7  C   UNL     1       4.218   1.774  18.480  0.00  0.00    +0.000 A 
ATOM      8  C   UNL     1       4.777   2.632  17.546  0.00  0.00    +0.000 A 
ATOM      9  C   UNL     1       4.043   3.711  17.023  0.00  0.00    +0.000 A 
ATOM     10  C   UNL     1       2.790   4.016  17.593  0.00  0.00    +0.000 A 
BRANCH   9  11
ATOM     11  C   UNL     1       4.571   4.401  15.785  0.00  0.00    +0.000 C 
BRANCH  11  12
ATOM     12  N   UNL     1       5.659   5.364  15.909  0.00  0.00    +0.000 NA
ATOM     13  C   UNL     1       7.037   4.903  16.007  0.00  0.00    +0.000 C 
ATOM     14  C   UNL     1       7.517   4.565  17.406  0.00  0.00    +0.000 C 
ATOM     15  S   UNL     1       7.148   5.850  18.576  0.00  0.00    +0.000 S 
ATOM     16  O   UNL     1       7.055   5.229  19.889  0.00  0.00    +0.000 OA
ATOM     17  O   UNL     1       8.078   6.943  18.354  0.00  0.00    +0.000 OA
ATOM     18  C   UNL     1       5.523   6.425  18.145  0.00  0.00    +0.000 C 
ATOM     19  C   UNL     1       5.381   6.582  16.649  0.00  0.00    +0.000 C 
ENDBRANCH  11  12
ENDBRANCH   9  11
ENDBRANCH   2   5
BRANCH   3  20
ATOM     20  C   UNL     1       2.199   5.638  20.269  0.00  0.00    +0.000 C 
BRANCH  20  21
ATOM     21  C   UNL     1       2.061   7.081  19.913  0.00  0.00    +0.000 A 
ATOM     22  C   UNL     1       2.237   7.483  18.587  0.00  0.00    +0.000 A 
ATOM     23  C   UNL     1       1.826   8.744  18.177  0.00  0.00    +0.000 A 
ATOM     24  C   UNL     1       1.213   9.604  19.093  0.00  0.00    +0.000 A 
ATOM     25  C   UNL     1       1.016   9.214  20.425  0.00  0.00    +0.000 A 
ATOM     26  C   UNL     1       1.480   7.958  20.832  0.00  0.00    +0.000 A 
BRANCH  25  27
ATOM     27  C   UNL     1       0.278  10.066  21.350  0.00  0.00    +0.000 A 
ATOM     28  N   UNL     1       0.377  10.098  22.666  0.00  0.00    +0.000 NA
ATOM     29  N   UNL     1      -0.503  11.042  23.143  0.00  0.00    +0.000 NA
ATOM     30  C   UNL     1      -1.103  11.588  22.111  0.00  0.00    +0.000 A 
ATOM     31  N   UNL     1      -0.629  11.026  20.967  0.00  0.00    +0.000 N 
ATOM     32  H   UNL     1      -0.884  11.284  20.024  0.00  0.00    +0.000 HD
ENDBRANCH  25  27
ENDBRANCH  20  21
ENDBRANCH   3  20
TORSDOF 6
ENDMDL
MODEL 5
REMARK VINA RESULT:      -7.8      4.619      9.820
REMARK  Name = 
REMARK  6 active torsions:
REMARK  status: ('A' for Active; 'I' for Inactive)
REMARK    1  A    between atoms: C_2  and  C_16
REMARK    2  A    between atoms: N_3  and  C_4
REMARK    3  A    between atoms: C_4  and  C_5
REMARK    4  A    between atoms: C_9  and  C_10
REMARK    5  A    between atoms: C_20  and  C_21
REMARK    6  A    between atoms: C_21  and  N_22
REMARK                            x       y       z     vdW  Elec       q    Type
REMARK                         _______ _______ _______ _____ _____    ______ ____
ROOT
ATOM      1  O   UNL     1       1.267  11.979  20.638  0.00  0.00    +0.000 OA
ATOM      2  C   UNL     1       0.642  11.093  20.060  0.00  0.00    +0.000 C 
ATOM      3  N   UNL     1      -0.745  11.106  20.032  0.00  0.00    +0.000 N 
ATOM      4  H   UNL     1      -1.169  11.959  20.381  0.00  0.00    +0.000 HD
ENDROOT
BRANCH   2   5
ATOM      5  C   UNL     1       1.377   9.948  19.438  0.00  0.00    +0.000 A 
ATOM      6  C   UNL     1       1.944  10.079  18.166  0.00  0.00    +0.000 A 
ATOM      7  C   UNL     1       2.311   8.958  17.438  0.00  0.00    +0.000 A 
ATOM      8  C   UNL     1       2.322   7.720  18.061  0.00  0.00    +0.000 A 
ATOM      9  C   UNL     1       1.983   7.590  19.420  0.00  0.00    +0.000 A 
ATOM     10  C   UNL     1       1.458   8.711  20.095  0.00  0.00    +0.000 A 
BRANCH   9  11
ATOM     11  C   UNL     1       2.330   6.297  20.122  0.00  0.00    +0.000 C 
BRANCH  11  12
ATOM     12  N   UNL     1       1.913   5.027  19.537  0.00  0.00    +0.000 NA
ATOM     13  C   UNL     1       1.480   3.934  20.395  0.00  0.00    +0.000 C 
ATOM     14  C   UNL     1       2.584   3.036  20.922  0.00  0.00    +0.000 C 
ATOM     15  S   UNL     1       3.686   2.495  19.638  0.00  0.00    +0.000 S 
ATOM     16  O   UNL     1       4.970   2.210  20.258  0.00  0.00    +0.000 OA
ATOM     17  O   UNL     1       3.009   1.468  18.866  0.00  0.00    +0.000 OA
ATOM     18  C   UNL     1       3.907   3.907  18.583  0.00  0.00    +0.000 C 
ATOM     19  C   UNL     1       2.593   4.606  18.325  0.00  0.00    +0.000 C 
ENDBRANCH  11  12
ENDBRANCH   9  11
ENDBRANCH   2   5
BRANCH   3  20
ATOM     20  C   UNL     1      -1.585  10.146  19.352  0.00  0.00    +0.000 C 
BRANCH  20  21
ATOM     21  C   UNL     1      -2.310  10.596  18.127  0.00  0.00    +0.000 A 
ATOM     22  C   UNL     1      -1.999  10.020  16.893  0.00  0.00    +0.000 A 
ATOM     23  C   UNL     1      -2.847  10.193  15.807  0.00  0.00    +0.000 A 
ATOM     24  C   UNL     1      -4.027  10.927  15.959  0.00  0.00    +0.000 A 
ATOM     25  C   UNL     1      -4.362  11.502  17.193  0.00  0.00    +0.000 A 
ATOM     26  C   UNL     1      -3.473  11.358  18.263  0.00  0.00    +0.000 A 
BRANCH  25  27
ATOM     27  C   UNL     1      -5.643  12.172  17.380  0.00  0.00    +0.000 A 
ATOM     28  N   UNL     1      -6.680  11.744  18.077  0.00  0.00    +0.000 NA
ATOM     29  N   UNL     1      -7.682  12.682  17.982  0.00  0.00    +0.000 NA
ATOM     30  C   UNL     1      -7.232  13.677  17.253  0.00  0.00    +0.000 A 
ATOM     31  N   UNL     1      -5.953  13.412  16.874  0.00  0.00    +0.000 N 
ATOM     32  H   UNL     1      -5.349  14.023  16.342  0.00  0.00    +0.000 HD
ENDBRANCH  25  27
ENDBRANCH  20  21
ENDBRANCH   3  20
TORSDOF 6
ENDMDL
MODEL 6
REMARK VINA RESULT:      -7.7      4.772      9.755
REMARK  Name = 
REMARK  6 active torsions:
REMARK  status: ('A' for Active; 'I' for Inactive)
REMARK    1  A    between atoms: C_2  and  C_16
REMARK    2  A    between atoms: N_3  and  C_4
REMARK    3  A    between atoms: C_4  and  C_5
REMARK    4  A    between atoms: C_9  and  C_10
REMARK    5  A    between atoms: C_20  and  C_21
REMARK    6  A    between atoms: C_21  and  N_22
REMARK                            x       y       z     vdW  Elec       q    Type
REMARK                         _______ _______ _______ _____ _____    ______ ____
ROOT
ATOM      1  O   UNL     1       2.841  10.317  17.556  0.00  0.00    +0.000 OA
ATOM      2  C   UNL     1       1.799   9.839  17.998  0.00  0.00    +0.000 C 
ATOM      3  N   UNL     1       0.614  10.560  17.955  0.00  0.00    +0.000 N 
ATOM      4  H   UNL     1       0.656  11.413  17.407  0.00  0.00    +0.000 HD
ENDROOT
BRANCH   2   5
ATOM      5  C   UNL     1       1.815   8.496  18.656  0.00  0.00    +0.000 A 
ATOM      6  C   UNL     1       1.437   8.360  19.996  0.00  0.00    +0.000 A 
ATOM      7  C   UNL     1       1.772   7.222  20.712  0.00  0.00    +0.000 A 
ATOM      8  C   UNL     1       2.284   6.125  20.038  0.00  0.00    +0.000 A 
ATOM      9  C   UNL     1       2.453   6.147  18.642  0.00  0.00    +0.000 A 
ATOM     10  C   UNL     1       2.262   7.364  17.957  0.00  0.00    +0.000 A 
BRANCH   9  11
ATOM     11  C   UNL     1       2.694   4.834  17.930  0.00  0.00    +0.000 C 
BRANCH  11  12
ATOM     12  N   UNL     1       4.028   4.245  17.940  0.00  0.00    +0.000 NA
ATOM     13  C   UNL     1       4.995   4.643  18.953  0.00  0.00    +0.000 C 
ATOM     14  C   UNL     1       5.820   5.875  18.624  0.00  0.00    +0.000 C 
ATOM     15  S   UNL     1       6.532   5.797  16.999  0.00  0.00    +0.000 S 
ATOM     16  O   UNL     1       6.738   7.165  16.548  0.00  0.00    +0.000 OA
ATOM     17  O   UNL     1       7.650   4.871  17.040  0.00  0.00    +0.000 OA
ATOM     18  C   UNL     1       5.274   5.081  15.968  0.00  0.00    +0.000 C 
ATOM     19  C   UNL     1       4.610   3.910  16.653  0.00  0.00    +0.000 C 
ENDBRANCH  11  12
ENDBRANCH   9  11
ENDBRANCH   2   5
BRANCH   3  20
ATOM     20  C   UNL     1      -0.677  10.090  18.404  0.00  0.00    +0.000 C 
BRANCH  20  21
ATOM     21  C   UNL     1      -1.887  10.567  17.672  0.00  0.00    +0.000 A 
ATOM     22  C   UNL     1      -2.134  10.105  16.377  0.00  0.00    +0.000 A 
ATOM     23  C   UNL     1      -3.382  10.286  15.794  0.00  0.00    +0.000 A 
ATOM     24  C   UNL     1      -4.400  10.912  16.520  0.00  0.00    +0.000 A 
ATOM     25  C   UNL     1      -4.175  11.371  17.826  0.00  0.00    +0.000 A 
ATOM     26  C   UNL     1      -2.898  11.223  18.378  0.00  0.00    +0.000 A 
BRANCH  25  27
ATOM     27  C   UNL     1      -5.266  11.923  18.620  0.00  0.00    +0.000 A 
ATOM     28  N   UNL     1      -5.179  12.795  19.608  0.00  0.00    +0.000 NA
ATOM     29  N   UNL     1      -6.448  13.037  20.082  0.00  0.00    +0.000 NA
ATOM     30  C   UNL     1      -7.288  12.332  19.360  0.00  0.00    +0.000 A 
ATOM     31  N   UNL     1      -6.596  11.638  18.418  0.00  0.00    +0.000 N 
ATOM     32  H   UNL     1      -6.992  11.047  17.701  0.00  0.00    +0.000 HD
ENDBRANCH  25  27
ENDBRANCH  20  21
ENDBRANCH   3  20
TORSDOF 6
ENDMDL
MODEL 7
REMARK VINA RESULT:      -7.6      2.642      4.475
REMARK  Name = 
REMARK  6 active torsions:
REMARK  status: ('A' for Active; 'I' for Inactive)
REMARK    1  A    between atoms: C_2  and  C_16
REMARK    2  A    between atoms: N_3  and  C_4
REMARK    3  A    between atoms: C_4  and  C_5
REMARK    4  A    between atoms: C_9  and  C_10
REMARK    5  A    between atoms: C_20  and  C_21
REMARK    6  A    between atoms: C_21  and  N_22
REMARK                            x       y       z     vdW  Elec       q    Type
REMARK                         _______ _______ _______ _____ _____    ______ ____
ROOT
ATOM      1  O   UNL     1       1.741   9.506  22.642  0.00  0.00    +0.000 OA
ATOM      2  C   UNL     1       1.402   8.891  21.634  0.00  0.00    +0.000 C 
ATOM      3  N   UNL     1       1.698   7.542  21.493  0.00  0.00    +0.000 N 
ATOM      4  H   UNL     1       2.064   7.098  22.328  0.00  0.00    +0.000 HD
ENDROOT
BRANCH   2   5
ATOM      5  C   UNL     1       0.724   9.613  20.513  0.00  0.00    +0.000 A 
ATOM      6  C   UNL     1       1.288   9.619  19.233  0.00  0.00    +0.000 A 
ATOM      7  C   UNL     1       0.882  10.548  18.287  0.00  0.00    +0.000 A 
ATOM      8  C   UNL     1      -0.239  11.322  18.538  0.00  0.00    +0.000 A 
ATOM      9  C   UNL     1      -0.975  11.168  19.727  0.00  0.00    +0.000 A 
ATOM     10  C   UNL     1      -0.454  10.340  20.741  0.00  0.00    +0.000 A 
BRANCH   9  11
ATOM     11  C   UNL     1      -2.353  11.787  19.799  0.00  0.00    +0.000 C 
BRANCH  11  12
ATOM     12  N   UNL     1      -2.554  13.004  20.578  0.00  0.00    +0.000 NA
ATOM     13  C   UNL     1      -1.675  13.310  21.697  0.00  0.00    +0.000 C 
ATOM     14  C   UNL     1      -2.069  12.697  23.029  0.00  0.00    +0.000 C 
ATOM     15  S   UNL     1      -3.780  12.970  23.417  0.00  0.00    +0.000 S 
ATOM     16  O   UNL     1      -4.202  11.895  24.301  0.00  0.00    +0.000 OA
ATOM     17  O   UNL     1      -3.933  14.353  23.833  0.00  0.00    +0.000 OA
ATOM     18  C   UNL     1      -4.650  12.768  21.881  0.00  0.00    +0.000 C 
ATOM     19  C   UNL     1      -3.924  13.457  20.750  0.00  0.00    +0.000 C 
ENDBRANCH  11  12
ENDBRANCH   9  11
ENDBRANCH   2   5
BRANCH   3  20
ATOM     20  C   UNL     1       1.316   6.706  20.377  0.00  0.00    +0.000 C 
BRANCH  20  21
ATOM     21  C   UNL     1       2.119   5.474  20.120  0.00  0.00    +0.000 A 
ATOM     22  C   UNL     1       1.464   4.278  19.820  0.00  0.00    +0.000 A 
ATOM     23  C   UNL     1       2.171   3.207  19.287  0.00  0.00    +0.000 A 
ATOM     24  C   UNL     1       3.538   3.341  19.029  0.00  0.00    +0.000 A 
ATOM     25  C   UNL     1       4.210   4.539  19.311  0.00  0.00    +0.000 A 
ATOM     26  C   UNL     1       3.492   5.589  19.892  0.00  0.00    +0.000 A 
BRANCH  25  27
ATOM     27  C   UNL     1       5.609   4.714  18.940  0.00  0.00    +0.000 A 
ATOM     28  N   UNL     1       6.560   5.301  19.643  0.00  0.00    +0.000 NA
ATOM     29  N   UNL     1       7.728   5.251  18.917  0.00  0.00    +0.000 NA
ATOM     30  C   UNL     1       7.477   4.611  17.798  0.00  0.00    +0.000 A 
ATOM     31  N   UNL     1       6.171   4.236  17.779  0.00  0.00    +0.000 N 
ATOM     32  H   UNL     1       5.715   3.694  17.059  0.00  0.00    +0.000 HD
ENDBRANCH  25  27
ENDBRANCH  20  21
ENDBRANCH   3  20
TORSDOF 6
ENDMDL
MODEL 8
REMARK VINA RESULT:      -7.6      4.599     10.314
REMARK  Name = 
REMARK  6 active torsions:
REMARK  status: ('A' for Active; 'I' for Inactive)
REMARK    1  A    between atoms: C_2  and  C_16
REMARK    2  A    between atoms: N_3  and  C_4
REMARK    3  A    between atoms: C_4  and  C_5
REMARK    4  A    between atoms: C_9  and  C_10
REMARK    5  A    between atoms: C_20  and  C_21
REMARK    6  A    between atoms: C_21  and  N_22
REMARK                            x       y       z     vdW  Elec       q    Type
REMARK                         _______ _______ _______ _____ _____    ______ ____
ROOT
ATOM      1  O   UNL     1       0.373  11.106  21.848  0.00  0.00    +0.000 OA
ATOM      2  C   UNL     1       0.055  10.794  20.702  0.00  0.00    +0.000 C 
ATOM      3  N   UNL     1      -1.166  11.188  20.173  0.00  0.00    +0.000 N 
ATOM      4  H   UNL     1      -1.677  11.858  20.738  0.00  0.00    +0.000 HD
ENDROOT
BRANCH   2   5
ATOM      5  C   UNL     1       0.958   9.921  19.890  0.00  0.00    +0.000 A 
ATOM      6  C   UNL     1       1.481  10.381  18.677  0.00  0.00    +0.000 A 
ATOM      7  C   UNL     1       2.016   9.493  17.757  0.00  0.00    +0.000 A 
ATOM      8  C   UNL     1       2.236   8.178  18.135  0.00  0.00    +0.000 A 
ATOM      9  C   UNL     1       1.939   7.740  19.438  0.00  0.00    +0.000 A 
ATOM     10  C   UNL     1       1.247   8.612  20.303  0.00  0.00    +0.000 A 
BRANCH   9  11
ATOM     11  C   UNL     1       2.500   6.410  19.891  0.00  0.00    +0.000 C 
BRANCH  11  12
ATOM     12  N   UNL     1       2.197   5.205  19.126  0.00  0.00    +0.000 NA
ATOM     13  C   UNL     1       1.564   4.066  19.775  0.00  0.00    +0.000 C 
ATOM     14  C   UNL     1       2.507   3.090  20.455  0.00  0.00    +0.000 C 
ATOM     15  S   UNL     1       3.854   2.609  19.402  0.00  0.00    +0.000 S 
ATOM     16  O   UNL     1       4.964   2.229  20.262  0.00  0.00    +0.000 OA
ATOM     17  O   UNL     1       3.344   1.669  18.419  0.00  0.00    +0.000 OA
ATOM     18  C   UNL     1       4.331   4.087  18.541  0.00  0.00    +0.000 C 
ATOM     19  C   UNL     1       3.120   4.852  18.061  0.00  0.00    +0.000 C 
ENDBRANCH  11  12
ENDBRANCH   9  11
ENDBRANCH   2   5
BRANCH   3  20
ATOM     20  C   UNL     1      -1.631  10.920  18.831  0.00  0.00    +0.000 C 
BRANCH  20  21
ATOM     21  C   UNL     1      -2.936  11.510  18.412  0.00  0.00    +0.000 A 
ATOM     22  C   UNL     1      -3.383  11.330  17.101  0.00  0.00    +0.000 A 
ATOM     23  C   UNL     1      -4.704  11.598  16.769  0.00  0.00    +0.000 A 
ATOM     24  C   UNL     1      -5.593  12.028  17.759  0.00  0.00    +0.000 A 
ATOM     25  C   UNL     1      -5.166  12.202  19.083  0.00  0.00    +0.000 A 
ATOM     26  C   UNL     1      -3.821  11.973  19.389  0.00  0.00    +0.000 A 
BRANCH  25  27
ATOM     27  C   UNL     1      -6.118  12.542  20.133  0.00  0.00    +0.000 A 
ATOM     28  N   UNL     1      -7.175  13.327  20.037  0.00  0.00    +0.000 NA
ATOM     29  N   UNL     1      -7.790  13.378  21.267  0.00  0.00    +0.000 NA
ATOM     30  C   UNL     1      -7.115  12.603  22.085  0.00  0.00    +0.000 A 
ATOM     31  N   UNL     1      -6.075  12.041  21.414  0.00  0.00    +0.000 N 
ATOM     32  H   UNL     1      -5.416  11.371  21.785  0.00  0.00    +0.000 HD
ENDBRANCH  25  27
ENDBRANCH  20  21
ENDBRANCH   3  20
TORSDOF 6
ENDMDL
MODEL 9
REMARK VINA RESULT:      -7.5      3.481      5.361
REMARK  Name = 
REMARK  6 active torsions:
REMARK  status: ('A' for Active; 'I' for Inactive)
REMARK    1  A    between atoms: C_2  and  C_16
REMARK    2  A    between atoms: N_3  and  C_4
REMARK    3  A    between atoms: C_4  and  C_5
REMARK    4  A    between atoms: C_9  and  C_10
REMARK    5  A    between atoms: C_20  and  C_21
REMARK    6  A    between atoms: C_21  and  N_22
REMARK                            x       y       z     vdW  Elec       q    Type
REMARK                         _______ _______ _______ _____ _____    ______ ____
ROOT
ATOM      1  O   UNL     1       1.456   9.592  22.816  0.00  0.00    +0.000 OA
ATOM      2  C   UNL     1       1.344   9.220  21.650  0.00  0.00    +0.000 C 
ATOM      3  N   UNL     1       1.916   8.028  21.229  0.00  0.00    +0.000 N 
ATOM      4  H   UNL     1       2.282   7.445  21.974  0.00  0.00    +0.000 HD
ENDROOT
BRANCH   2   5
ATOM      5  C   UNL     1       0.645  10.090  20.654  0.00  0.00    +0.000 A 
ATOM      6  C   UNL     1      -0.698   9.861  20.335  0.00  0.00    +0.000 A 
ATOM      7  C   UNL     1      -1.254  10.408  19.188  0.00  0.00    +0.000 A 
ATOM      8  C   UNL     1      -0.541  11.362  18.480  0.00  0.00    +0.000 A 
ATOM      9  C   UNL     1       0.725  11.792  18.916  0.00  0.00    +0.000 A 
ATOM     10  C   UNL     1       1.340  11.109  19.985  0.00  0.00    +0.000 A 
BRANCH   9  11
ATOM     11  C   UNL     1       1.301  13.051  18.308  0.00  0.00    +0.000 C 
BRANCH  11  12
ATOM     12  N   UNL     1       2.000  14.006  19.160  0.00  0.00    +0.000 NA
ATOM     13  C   UNL     1       1.293  15.159  19.699  0.00  0.00    +0.000 C 
ATOM     14  C   UNL     1       1.251  16.382  18.801  0.00  0.00    +0.000 C 
ATOM     15  S   UNL     1       2.852  16.806  18.161  0.00  0.00    +0.000 S 
ATOM     16  O   UNL     1       2.646  17.515  16.907  0.00  0.00    +0.000 OA
ATOM     17  O   UNL     1       3.614  17.428  19.229  0.00  0.00    +0.000 OA
ATOM     18  C   UNL     1       3.630  15.256  17.773  0.00  0.00    +0.000 C 
ATOM     19  C   UNL     1       3.403  14.244  18.871  0.00  0.00    +0.000 C 
ENDBRANCH  11  12
ENDBRANCH   9  11
ENDBRANCH   2   5
BRANCH   3  20
ATOM     20  C   UNL     1       1.817   7.467  19.900  0.00  0.00    +0.000 C 
BRANCH  20  21
ATOM     21  C   UNL     1       2.556   6.202  19.619  0.00  0.00    +0.000 A 
ATOM     22  C   UNL     1       1.921   4.975  19.822  0.00  0.00    +0.000 A 
ATOM     23  C   UNL     1       2.462   3.810  19.292  0.00  0.00    +0.000 A 
ATOM     24  C   UNL     1       3.634   3.874  18.533  0.00  0.00    +0.000 A 
ATOM     25  C   UNL     1       4.279   5.099  18.308  0.00  0.00    +0.000 A 
ATOM     26  C   UNL     1       3.747   6.254  18.889  0.00  0.00    +0.000 A 
BRANCH  25  27
ATOM     27  C   UNL     1       5.437   5.179  17.426  0.00  0.00    +0.000 A 
ATOM     28  N   UNL     1       5.996   6.269  16.931  0.00  0.00    +0.000 NA
ATOM     29  N   UNL     1       7.059   5.890  16.144  0.00  0.00    +0.000 NA
ATOM     30  C   UNL     1       7.148   4.581  16.193  0.00  0.00    +0.000 A 
ATOM     31  N   UNL     1       6.168   4.095  17.001  0.00  0.00    +0.000 N 
ATOM     32  H   UNL     1       6.027   3.127  17.253  0.00  0.00    +0.000 HD
ENDBRANCH  25  27
ENDBRANCH  20  21
ENDBRANCH   3  20
TORSDOF 6
ENDMDL
