MODEL 1
REMARK VINA RESULT:      -8.6      0.000      0.000
REMARK  Name = 
REMARK  6 active torsions:
REMARK  status: ('A' for Active; 'I' for Inactive)
REMARK    1  A    between atoms: C_1  and  C_2
REMARK    2  A    between atoms: C_4  and  C_5
REMARK    3  A    between atoms: C_5  and  N_6
REMARK    4  A    between atoms: C_7  and  C_9
REMARK    5  A    between atoms: C_13  and  C_14
REMARK    6  A    between atoms: C_17  and  C_18
REMARK                            x       y       z     vdW  Elec       q    Type
REMARK                         _______ _______ _______ _____ _____    ______ ____
ROOT
ATOM      1  C   UNL     1       2.403   7.343  18.951  0.00  0.00    +0.000 A 
ATOM      2  C   UNL     1       2.191   8.092  17.787  0.00  0.00    +0.000 A 
ATOM      3  C   UNL     1       1.531   9.316  17.854  0.00  0.00    +0.000 A 
ATOM      4  C   UNL     1       1.053   9.780  19.075  0.00  0.00    +0.000 A 
ATOM      5  C   UNL     1       1.227   9.027  20.242  0.00  0.00    +0.000 A 
ATOM      6  C   UNL     1       1.938   7.819  20.182  0.00  0.00    +0.000 A 
ENDROOT
BRANCH   5   7
ATOM      7  C   UNL     1       0.586   9.435  21.481  0.00  0.00    +0.000 A 
ATOM      8  N   UNL     1       1.111   9.241  22.705  0.00  0.00    +0.000 NA
ATOM      9  O   UNL     1       0.259   9.957  23.541  0.00  0.00    +0.000 OA
ATOM     10  C   UNL     1      -0.707  10.503  22.738  0.00  0.00    +0.000 A 
ATOM     11  N   UNL     1      -0.569  10.177  21.481  0.00  0.00    +0.000 NA
BRANCH  10  12
ATOM     12  C   UNL     1      -1.770  11.463  23.249  0.00  0.00    +0.000 C 
ATOM     13  C   UNL     1      -2.516  12.399  22.328  0.00  0.00    +0.000 C 
ATOM     14  C   UNL     1      -1.415  12.945  23.166  0.00  0.00    +0.000 C 
ENDBRANCH  10  12
ENDBRANCH   5   7
BRANCH   1  16
ATOM     15  N   UNL     1       4.329   5.874  19.230  0.00  0.00    +0.000 N 
ATOM     16  C   UNL     1       3.001   5.985  18.902  0.00  0.00    +0.000 C 
ATOM     17  O   UNL     1       2.314   5.027  18.567  0.00  0.00    +0.000 OA
ATOM     18  H   UNL     1       4.860   6.644  19.617  0.00  0.00    +0.000 HD
BRANCH  15  19
ATOM     19  C   UNL     1       4.982   4.583  19.190  0.00  0.00    +0.000 C 
BRANCH  19  23
ATOM     20  C   UNL     1       6.934   4.490  14.621  0.00  0.00    +0.000 C 
ATOM     21  C   UNL     1       6.707   4.484  16.082  0.00  0.00    +0.000 A 
ATOM     22  N   UNL     1       5.567   4.553  16.730  0.00  0.00    +0.000 NA
ATOM     23  C   UNL     1       5.951   4.512  18.056  0.00  0.00    +0.000 A 
ATOM     24  N   UNL     1       7.273   4.418  18.242  0.00  0.00    +0.000 NA
ATOM     25  N   UNL     1       7.732   4.406  16.982  0.00  0.00    +0.000 N 
ATOM     26  H   UNL     1       8.728   4.345  16.816  0.00  0.00    +0.000 HD
ENDBRANCH  19  23
ENDBRANCH  15  19
ENDBRANCH   1  16
TORSDOF 5
ENDMDL
MODEL 2
REMARK VINA RESULT:      -8.1      2.359      3.575
REMARK  Name = 
REMARK  6 active torsions:
REMARK  status: ('A' for Active; 'I' for Inactive)
REMARK    1  A    between atoms: C_1  and  C_2
REMARK    2  A    between atoms: C_4  and  C_5
REMARK    3  A    between atoms: C_5  and  N_6
REMARK    4  A    between atoms: C_7  and  C_9
REMARK    5  A    between atoms: C_13  and  C_14
REMARK    6  A    between atoms: C_17  and  C_18
REMARK                            x       y       z     vdW  Elec       q    Type
REMARK                         _______ _______ _______ _____ _____    ______ ____
ROOT
ATOM      1  C   UNL     1       3.952   5.193  19.180  0.00  0.00    +0.000 A 
ATOM      2  C   UNL     1       3.211   4.501  20.147  0.00  0.00    +0.000 A 
ATOM      3  C   UNL     1       2.026   5.043  20.638  0.00  0.00    +0.000 A 
ATOM      4  C   UNL     1       1.596   6.288  20.193  0.00  0.00    +0.000 A 
ATOM      5  C   UNL     1       2.343   7.007  19.252  0.00  0.00    +0.000 A 
ATOM      6  C   UNL     1       3.509   6.437  18.719  0.00  0.00    +0.000 A 
ENDROOT
BRANCH   5   7
ATOM      7  C   UNL     1       1.978   8.372  18.914  0.00  0.00    +0.000 A 
ATOM      8  N   UNL     1       2.161   8.926  17.701  0.00  0.00    +0.000 NA
ATOM      9  O   UNL     1       1.494  10.144  17.796  0.00  0.00    +0.000 OA
ATOM     10  C   UNL     1       0.983  10.210  19.065  0.00  0.00    +0.000 A 
ATOM     11  N   UNL     1       1.289   9.170  19.793  0.00  0.00    +0.000 NA
BRANCH  10  12
ATOM     12  C   UNL     1       0.078  11.336  19.541  0.00  0.00    +0.000 C 
ATOM     13  C   UNL     1      -0.943  11.137  20.637  0.00  0.00    +0.000 C 
ATOM     14  C   UNL     1      -1.406  11.168  19.222  0.00  0.00    +0.000 C 
ENDBRANCH  10  12
ENDBRANCH   5   7
BRANCH   1  16
ATOM     15  N   UNL     1       5.701   5.121  17.483  0.00  0.00    +0.000 N 
ATOM     16  C   UNL     1       5.274   4.700  18.717  0.00  0.00    +0.000 C 
ATOM     17  O   UNL     1       5.925   3.940  19.426  0.00  0.00    +0.000 OA
ATOM     18  H   UNL     1       5.217   5.835  16.954  0.00  0.00    +0.000 HD
BRANCH  15  19
ATOM     19  C   UNL     1       6.973   4.668  16.961  0.00  0.00    +0.000 C 
BRANCH  19  23
ATOM     20  C   UNL     1       5.909   3.375  12.282  0.00  0.00    +0.000 C 
ATOM     21  C   UNL     1       6.441   4.009  13.507  0.00  0.00    +0.000 A 
ATOM     22  N   UNL     1       6.192   3.700  14.759  0.00  0.00    +0.000 NA
ATOM     23  C   UNL     1       6.946   4.614  15.468  0.00  0.00    +0.000 A 
ATOM     24  N   UNL     1       7.646   5.462  14.704  0.00  0.00    +0.000 NA
ATOM     25  N   UNL     1       7.308   5.065  13.468  0.00  0.00    +0.000 N 
ATOM     26  H   UNL     1       7.696   5.546  12.668  0.00  0.00    +0.000 HD
ENDBRANCH  19  23
ENDBRANCH  15  19
ENDBRANCH   1  16
TORSDOF 5
ENDMDL
MODEL 3
REMARK VINA RESULT:      -8.0      2.608      8.956
REMARK  Name = 
REMARK  6 active torsions:
REMARK  status: ('A' for Active; 'I' for Inactive)
REMARK    1  A    between atoms: C_1  and  C_2
REMARK    2  A    between atoms: C_4  and  C_5
REMARK    3  A    between atoms: C_5  and  N_6
REMARK    4  A    between atoms: C_7  and  C_9
REMARK    5  A    between atoms: C_13  and  C_14
REMARK    6  A    between atoms: C_17  and  C_18
REMARK                            x       y       z     vdW  Elec       q    Type
REMARK                         _______ _______ _______ _____ _____    ______ ____
ROOT
ATOM      1  C   UNL     1       1.977   7.133  20.097  0.00  0.00    +0.000 A 
ATOM      2  C   UNL     1       1.578   5.919  20.671  0.00  0.00    +0.000 A 
ATOM      3  C   UNL     1       2.092   4.717  20.192  0.00  0.00    +0.000 A 
ATOM      4  C   UNL     1       2.979   4.722  19.120  0.00  0.00    +0.000 A 
ATOM      5  C   UNL     1       3.361   5.924  18.515  0.00  0.00    +0.000 A 
ATOM      6  C   UNL     1       2.883   7.137  19.031  0.00  0.00    +0.000 A 
ENDROOT
BRANCH   5   7
ATOM      7  C   UNL     1       4.155   5.912  17.297  0.00  0.00    +0.000 A 
ATOM      8  N   UNL     1       4.576   7.019  16.657  0.00  0.00    +0.000 NA
ATOM      9  O   UNL     1       5.444   6.523  15.688  0.00  0.00    +0.000 OA
ATOM     10  C   UNL     1       5.450   5.161  15.831  0.00  0.00    +0.000 A 
ATOM     11  N   UNL     1       4.647   4.743  16.772  0.00  0.00    +0.000 NA
BRANCH  10  12
ATOM     12  C   UNL     1       6.367   4.245  15.035  0.00  0.00    +0.000 C 
ATOM     13  C   UNL     1       7.099   4.718  13.801  0.00  0.00    +0.000 C 
ATOM     14  C   UNL     1       5.880   3.880  13.635  0.00  0.00    +0.000 C 
ENDBRANCH  10  12
ENDBRANCH   5   7
BRANCH   1  16
ATOM     15  N   UNL     1       1.034   9.303  19.508  0.00  0.00    +0.000 N 
ATOM     16  C   UNL     1       1.366   8.423  20.507  0.00  0.00    +0.000 C 
ATOM     17  O   UNL     1       1.191   8.665  21.696  0.00  0.00    +0.000 OA
ATOM     18  H   UNL     1       1.072   9.054  18.528  0.00  0.00    +0.000 HD
BRANCH  15  19
ATOM     19  C   UNL     1       0.447  10.586  19.835  0.00  0.00    +0.000 C 
BRANCH  19  23
ATOM     20  C   UNL     1      -2.949  10.607  16.207  0.00  0.00    +0.000 C 
ATOM     21  C   UNL     1      -1.936  10.965  17.223  0.00  0.00    +0.000 A 
ATOM     22  N   UNL     1      -1.280  10.169  18.035  0.00  0.00    +0.000 NA
ATOM     23  C   UNL     1      -0.482  11.036  18.756  0.00  0.00    +0.000 A 
ATOM     24  N   UNL     1      -0.622  12.323  18.415  0.00  0.00    +0.000 NA
ATOM     25  N   UNL     1      -1.548  12.256  17.448  0.00  0.00    +0.000 N 
ATOM     26  H   UNL     1      -1.860  13.107  16.999  0.00  0.00    +0.000 HD
ENDBRANCH  19  23
ENDBRANCH  15  19
ENDBRANCH   1  16
TORSDOF 5
ENDMDL
MODEL 4
REMARK VINA RESULT:      -7.9      2.417      3.418
REMARK  Name = 
REMARK  6 active torsions:
REMARK  status: ('A' for Active; 'I' for Inactive)
REMARK    1  A    between atoms: C_1  and  C_2
REMARK    2  A    between atoms: C_4  and  C_5
REMARK    3  A    between atoms: C_5  and  N_6
REMARK    4  A    between atoms: C_7  and  C_9
REMARK    5  A    between atoms: C_13  and  C_14
REMARK    6  A    between atoms: C_17  and  C_18
REMARK                            x       y       z     vdW  Elec       q    Type
REMARK                         _______ _______ _______ _____ _____    ______ ____
ROOT
ATOM      1  C   UNL     1       3.529   4.596  19.605  0.00  0.00    +0.000 A 
ATOM      2  C   UNL     1       2.688   3.623  20.161  0.00  0.00    +0.000 A 
ATOM      3  C   UNL     1       1.438   3.982  20.658  0.00  0.00    +0.000 A 
ATOM      4  C   UNL     1       1.039   5.314  20.633  0.00  0.00    +0.000 A 
ATOM      5  C   UNL     1       1.881   6.302  20.111  0.00  0.00    +0.000 A 
ATOM      6  C   UNL     1       3.118   5.932  19.563  0.00  0.00    +0.000 A 
ENDROOT
BRANCH   5   7
ATOM      7  C   UNL     1       1.530   7.707  20.235  0.00  0.00    +0.000 A 
ATOM      8  N   UNL     1       1.382   8.349  21.409  0.00  0.00    +0.000 NA
ATOM      9  O   UNL     1       1.249   9.683  21.034  0.00  0.00    +0.000 OA
ATOM     10  C   UNL     1       1.315   9.712  19.666  0.00  0.00    +0.000 A 
ATOM     11  N   UNL     1       1.445   8.526  19.137  0.00  0.00    +0.000 NA
BRANCH  10  12
ATOM     12  C   UNL     1       1.329  11.002  18.861  0.00  0.00    +0.000 C 
ATOM     13  C   UNL     1       1.102  12.351  19.502  0.00  0.00    +0.000 C 
ATOM     14  C   UNL     1      -0.013  11.721  18.744  0.00  0.00    +0.000 C 
ENDBRANCH  10  12
ENDBRANCH   5   7
BRANCH   1  16
ATOM     15  N   UNL     1       5.525   5.157  18.323  0.00  0.00    +0.000 N 
ATOM     16  C   UNL     1       4.910   4.269  19.168  0.00  0.00    +0.000 C 
ATOM     17  O   UNL     1       5.444   3.235  19.555  0.00  0.00    +0.000 OA
ATOM     18  H   UNL     1       5.128   6.061  18.100  0.00  0.00    +0.000 HD
BRANCH  15  19
ATOM     19  C   UNL     1       6.867   4.896  17.845  0.00  0.00    +0.000 C 
BRANCH  19  23
ATOM     20  C   UNL     1       6.071   3.638  13.104  0.00  0.00    +0.000 C 
ATOM     21  C   UNL     1       6.515   4.277  14.361  0.00  0.00    +0.000 A 
ATOM     22  N   UNL     1       6.234   3.929  15.595  0.00  0.00    +0.000 NA
ATOM     23  C   UNL     1       6.904   4.870  16.352  0.00  0.00    +0.000 A 
ATOM     24  N   UNL     1       7.583   5.772  15.633  0.00  0.00    +0.000 NA
ATOM     25  N   UNL     1       7.319   5.382  14.377  0.00  0.00    +0.000 N 
ATOM     26  H   UNL     1       7.711   5.901  13.602  0.00  0.00    +0.000 HD
ENDBRANCH  19  23
ENDBRANCH  15  19
ENDBRANCH   1  16
TORSDOF 5
ENDMDL
MODEL 5
REMARK VINA RESULT:      -7.9      2.231      9.698
REMARK  Name = 
REMARK  6 active torsions:
REMARK  status: ('A' for Active; 'I' for Inactive)
REMARK    1  A    between atoms: C_1  and  C_2
REMARK    2  A    between atoms: C_4  and  C_5
REMARK    3  A    between atoms: C_5  and  N_6
REMARK    4  A    between atoms: C_7  and  C_9
REMARK    5  A    between atoms: C_13  and  C_14
REMARK    6  A    between atoms: C_17  and  C_18
REMARK                            x       y       z     vdW  Elec       q    Type
REMARK                         _______ _______ _______ _____ _____    ______ ____
ROOT
ATOM      1  C   UNL     1       2.846   7.194  18.265  0.00  0.00    +0.000 A 
ATOM      2  C   UNL     1       2.467   6.127  19.090  0.00  0.00    +0.000 A 
ATOM      3  C   UNL     1       3.118   4.900  18.989  0.00  0.00    +0.000 A 
ATOM      4  C   UNL     1       4.124   4.726  18.045  0.00  0.00    +0.000 A 
ATOM      5  C   UNL     1       4.492   5.772  17.191  0.00  0.00    +0.000 A 
ATOM      6  C   UNL     1       3.872   7.022  17.329  0.00  0.00    +0.000 A 
ENDROOT
BRANCH   5   7
ATOM      7  C   UNL     1       5.426   5.537  16.102  0.00  0.00    +0.000 A 
ATOM      8  N   UNL     1       6.648   6.094  16.020  0.00  0.00    +0.000 NA
ATOM      9  O   UNL     1       7.232   5.435  14.942  0.00  0.00    +0.000 OA
ATOM     10  C   UNL     1       6.297   4.552  14.471  0.00  0.00    +0.000 A 
ATOM     11  N   UNL     1       5.167   4.610  15.123  0.00  0.00    +0.000 NA
BRANCH  10  12
ATOM     12  C   UNL     1       6.582   3.548  13.365  0.00  0.00    +0.000 C 
ATOM     13  C   UNL     1       6.954   3.979  11.965  0.00  0.00    +0.000 C 
ATOM     14  C   UNL     1       5.565   3.513  12.227  0.00  0.00    +0.000 C 
ENDBRANCH  10  12
ENDBRANCH   5   7
BRANCH   1  16
ATOM     15  N   UNL     1       1.501   8.852  19.442  0.00  0.00    +0.000 N 
ATOM     16  C   UNL     1       2.102   8.478  18.267  0.00  0.00    +0.000 C 
ATOM     17  O   UNL     1       2.036   9.147  17.241  0.00  0.00    +0.000 OA
ATOM     18  H   UNL     1       1.654   8.359  20.313  0.00  0.00    +0.000 HD
BRANCH  15  19
ATOM     19  C   UNL     1       0.746  10.085  19.512  0.00  0.00    +0.000 C 
BRANCH  19  23
ATOM     20  C   UNL     1      -1.975  11.810  23.297  0.00  0.00    +0.000 C 
ATOM     21  C   UNL     1      -1.074  11.037  22.416  0.00  0.00    +0.000 A 
ATOM     22  N   UNL     1      -0.739  11.286  21.172  0.00  0.00    +0.000 NA
ATOM     23  C   UNL     1       0.112  10.245  20.856  0.00  0.00    +0.000 A 
ATOM     24  N   UNL     1       0.313   9.376  21.855  0.00  0.00    +0.000 NA
ATOM     25  N   UNL     1      -0.449   9.893  22.830  0.00  0.00    +0.000 N 
ATOM     26  H   UNL     1      -0.494   9.426  23.726  0.00  0.00    +0.000 HD
ENDBRANCH  19  23
ENDBRANCH  15  19
ENDBRANCH   1  16
TORSDOF 5
ENDMDL
MODEL 6
REMARK VINA RESULT:      -7.9      2.374      3.395
REMARK  Name = 
REMARK  6 active torsions:
REMARK  status: ('A' for Active; 'I' for Inactive)
REMARK    1  A    between atoms: C_1  and  C_2
REMARK    2  A    between atoms: C_4  and  C_5
REMARK    3  A    between atoms: C_5  and  N_6
REMARK    4  A    between atoms: C_7  and  C_9
REMARK    5  A    between atoms: C_13  and  C_14
REMARK    6  A    between atoms: C_17  and  C_18
REMARK                            x       y       z     vdW  Elec       q    Type
REMARK                         _______ _______ _______ _____ _____    ______ ____
ROOT
ATOM      1  C   UNL     1       4.102   5.570  18.945  0.00  0.00    +0.000 A 
ATOM      2  C   UNL     1       3.713   4.401  19.614  0.00  0.00    +0.000 A 
ATOM      3  C   UNL     1       2.568   4.398  20.406  0.00  0.00    +0.000 A 
ATOM      4  C   UNL     1       1.828   5.566  20.559  0.00  0.00    +0.000 A 
ATOM      5  C   UNL     1       2.222   6.749  19.925  0.00  0.00    +0.000 A 
ATOM      6  C   UNL     1       3.346   6.739  19.086  0.00  0.00    +0.000 A 
ENDROOT
BRANCH   5   7
ATOM      7  C   UNL     1       1.543   8.001  20.218  0.00  0.00    +0.000 A 
ATOM      8  N   UNL     1       1.128   8.367  21.444  0.00  0.00    +0.000 NA
ATOM      9  O   UNL     1       0.728   9.689  21.270  0.00  0.00    +0.000 OA
ATOM     10  C   UNL     1       0.929   9.986  19.948  0.00  0.00    +0.000 A 
ATOM     11  N   UNL     1       1.386   8.973  19.261  0.00  0.00    +0.000 NA
BRANCH  10  12
ATOM     12  C   UNL     1       0.728  11.377  19.367  0.00  0.00    +0.000 C 
ATOM     13  C   UNL     1       1.817  12.093  18.603  0.00  0.00    +0.000 C 
ATOM     14  C   UNL     1       1.553  12.487  20.014  0.00  0.00    +0.000 C 
ENDBRANCH  10  12
ENDBRANCH   5   7
BRANCH   1  16
ATOM     15  N   UNL     1       6.052   4.465  17.986  0.00  0.00    +0.000 N 
ATOM     16  C   UNL     1       5.375   5.641  18.185  0.00  0.00    +0.000 C 
ATOM     17  O   UNL     1       5.782   6.724  17.776  0.00  0.00    +0.000 OA
ATOM     18  H   UNL     1       5.658   3.563  18.222  0.00  0.00    +0.000 HD
BRANCH  15  19
ATOM     19  C   UNL     1       7.308   4.462  17.265  0.00  0.00    +0.000 C 
BRANCH  19  23
ATOM     20  C   UNL     1       5.643   3.495  12.683  0.00  0.00    +0.000 C 
ATOM     21  C   UNL     1       6.321   4.053  13.873  0.00  0.00    +0.000 A 
ATOM     22  N   UNL     1       6.259   3.636  15.117  0.00  0.00    +0.000 NA
ATOM     23  C   UNL     1       7.075   4.523  15.791  0.00  0.00    +0.000 A 
ATOM     24  N   UNL     1       7.634   5.458  15.012  0.00  0.00    +0.000 NA
ATOM     25  N   UNL     1       7.140   5.145  13.805  0.00  0.00    +0.000 N 
ATOM     26  H   UNL     1       7.398   5.704  13.002  0.00  0.00    +0.000 HD
ENDBRANCH  19  23
ENDBRANCH  15  19
ENDBRANCH   1  16
TORSDOF 5
ENDMDL
MODEL 7
REMARK VINA RESULT:      -7.8      3.097      9.426
REMARK  Name = 
REMARK  6 active torsions:
REMARK  status: ('A' for Active; 'I' for Inactive)
REMARK    1  A    between atoms: C_1  and  C_2
REMARK    2  A    between atoms: C_4  and  C_5
REMARK    3  A    between atoms: C_5  and  N_6
REMARK    4  A    between atoms: C_7  and  C_9
REMARK    5  A    between atoms: C_13  and  C_14
REMARK    6  A    between atoms: C_17  and  C_18
REMARK                            x       y       z     vdW  Elec       q    Type
REMARK                         _______ _______ _______ _____ _____    ______ ____
ROOT
ATOM      1  C   UNL     1       2.661   7.645  18.170  0.00  0.00    +0.000 A 
ATOM      2  C   UNL     1       1.989   6.563  18.753  0.00  0.00    +0.000 A 
ATOM      3  C   UNL     1       2.449   5.264  18.550  0.00  0.00    +0.000 A 
ATOM      4  C   UNL     1       3.558   5.041  17.740  0.00  0.00    +0.000 A 
ATOM      5  C   UNL     1       4.219   6.109  17.124  0.00  0.00    +0.000 A 
ATOM      6  C   UNL     1       3.787   7.420  17.372  0.00  0.00    +0.000 A 
ENDROOT
BRANCH   5   7
ATOM      7  C   UNL     1       5.271   5.859  16.153  0.00  0.00    +0.000 A 
ATOM      8  N   UNL     1       6.490   6.429  16.193  0.00  0.00    +0.000 NA
ATOM      9  O   UNL     1       7.198   5.751  15.205  0.00  0.00    +0.000 OA
ATOM     10  C   UNL     1       6.330   4.845  14.656  0.00  0.00    +0.000 A 
ATOM     11  N   UNL     1       5.133   4.905  15.175  0.00  0.00    +0.000 NA
BRANCH  10  12
ATOM     12  C   UNL     1       6.747   3.817  13.615  0.00  0.00    +0.000 C 
ATOM     13  C   UNL     1       7.021   4.196  12.178  0.00  0.00    +0.000 C 
ATOM     14  C   UNL     1       5.726   3.543  12.513  0.00  0.00    +0.000 C 
ENDBRANCH  10  12
ENDBRANCH   5   7
BRANCH   1  16
ATOM     15  N   UNL     1       1.163   9.263  19.211  0.00  0.00    +0.000 N 
ATOM     16  C   UNL     1       2.135   9.030  18.273  0.00  0.00    +0.000 C 
ATOM     17  O   UNL     1       2.565   9.903  17.526  0.00  0.00    +0.000 OA
ATOM     18  H   UNL     1       0.895   8.572  19.901  0.00  0.00    +0.000 HD
BRANCH  15  19
ATOM     19  C   UNL     1       0.594  10.586  19.357  0.00  0.00    +0.000 C 
BRANCH  19  23
ATOM     20  C   UNL     1      -2.943   9.826  15.950  0.00  0.00    +0.000 C 
ATOM     21  C   UNL     1      -1.988  10.405  16.918  0.00  0.00    +0.000 A 
ATOM     22  N   UNL     1      -1.091   9.785  17.648  0.00  0.00    +0.000 NA
ATOM     23  C   UNL     1      -0.496  10.809  18.360  0.00  0.00    +0.000 A 
ATOM     24  N   UNL     1      -0.990  12.024  18.091  0.00  0.00    +0.000 NA
ATOM     25  N   UNL     1      -1.934  11.746  17.181  0.00  0.00    +0.000 N 
ATOM     26  H   UNL     1      -2.488  12.498  16.793  0.00  0.00    +0.000 HD
ENDBRANCH  19  23
ENDBRANCH  15  19
ENDBRANCH   1  16
TORSDOF 5
ENDMDL
MODEL 8
REMARK VINA RESULT:      -7.7      2.593      3.828
REMARK  Name = 
REMARK  6 active torsions:
REMARK  status: ('A' for Active; 'I' for Inactive)
REMARK    1  A    between atoms: C_1  and  C_2
REMARK    2  A    between atoms: C_4  and  C_5
REMARK    3  A    between atoms: C_5  and  N_6
REMARK    4  A    between atoms: C_7  and  C_9
REMARK    5  A    between atoms: C_13  and  C_14
REMARK    6  A    between atoms: C_17  and  C_18
REMARK                            x       y       z     vdW  Elec       q    Type
REMARK                         _______ _______ _______ _____ _____    ______ ____
ROOT
ATOM      1  C   UNL     1       3.117   4.376  18.680  0.00  0.00    +0.000 A 
ATOM      2  C   UNL     1       2.785   3.998  19.988  0.00  0.00    +0.000 A 
ATOM      3  C   UNL     1       2.154   4.903  20.837  0.00  0.00    +0.000 A 
ATOM      4  C   UNL     1       1.883   6.194  20.397  0.00  0.00    +0.000 A 
ATOM      5  C   UNL     1       2.237   6.597  19.104  0.00  0.00    +0.000 A 
ATOM      6  C   UNL     1       2.826   5.669  18.232  0.00  0.00    +0.000 A 
ENDROOT
BRANCH   5   7
ATOM      7  C   UNL     1       2.101   7.988  18.706  0.00  0.00    +0.000 A 
ATOM      8  N   UNL     1       2.518   8.482  17.525  0.00  0.00    +0.000 NA
ATOM      9  O   UNL     1       2.006   9.776  17.516  0.00  0.00    +0.000 OA
ATOM     10  C   UNL     1       1.341   9.941  18.702  0.00  0.00    +0.000 A 
ATOM     11  N   UNL     1       1.408   8.890  19.474  0.00  0.00    +0.000 NA
BRANCH  10  12
ATOM     12  C   UNL     1       0.532  11.185  19.037  0.00  0.00    +0.000 C 
ATOM     13  C   UNL     1      -0.687  11.133  19.928  0.00  0.00    +0.000 C 
ATOM     14  C   UNL     1      -0.879  11.229  18.455  0.00  0.00    +0.000 C 
ENDBRANCH  10  12
ENDBRANCH   5   7
BRANCH   1  16
ATOM     15  N   UNL     1       4.735   4.070  16.882  0.00  0.00    +0.000 N 
ATOM     16  C   UNL     1       3.888   3.478  17.784  0.00  0.00    +0.000 C 
ATOM     17  O   UNL     1       3.742   2.263  17.866  0.00  0.00    +0.000 OA
ATOM     18  H   UNL     1       4.939   5.061  16.897  0.00  0.00    +0.000 HD
BRANCH  15  19
ATOM     19  C   UNL     1       5.508   3.256  15.968  0.00  0.00    +0.000 C 
BRANCH  19  23
ATOM     20  C   UNL     1       7.728   5.390  12.067  0.00  0.00    +0.000 C 
ATOM     21  C   UNL     1       7.297   4.972  13.418  0.00  0.00    +0.000 A 
ATOM     22  N   UNL     1       6.391   4.080  13.746  0.00  0.00    +0.000 NA
ATOM     23  C   UNL     1       6.403   4.106  15.126  0.00  0.00    +0.000 A 
ATOM     24  N   UNL     1       7.279   4.971  15.653  0.00  0.00    +0.000 NA
ATOM     25  N   UNL     1       7.830   5.510  14.556  0.00  0.00    +0.000 N 
ATOM     26  H   UNL     1       8.544   6.221  14.656  0.00  0.00    +0.000 HD
ENDBRANCH  19  23
ENDBRANCH  15  19
ENDBRANCH   1  16
TORSDOF 5
ENDMDL
MODEL 9
REMARK VINA RESULT:      -7.7      1.171      1.383
REMARK  Name = 
REMARK  6 active torsions:
REMARK  status: ('A' for Active; 'I' for Inactive)
REMARK    1  A    between atoms: C_1  and  C_2
REMARK    2  A    between atoms: C_4  and  C_5
REMARK    3  A    between atoms: C_5  and  N_6
REMARK    4  A    between atoms: C_7  and  C_9
REMARK    5  A    between atoms: C_13  and  C_14
REMARK    6  A    between atoms: C_17  and  C_18
REMARK                            x       y       z     vdW  Elec       q    Type
REMARK                         _______ _______ _______ _____ _____    ______ ____
ROOT
ATOM      1  C   UNL     1       1.877   7.995  19.652  0.00  0.00    +0.000 A 
ATOM      2  C   UNL     1       1.969   8.623  18.404  0.00  0.00    +0.000 A 
ATOM      3  C   UNL     1       1.432   9.895  18.221  0.00  0.00    +0.000 A 
ATOM      4  C   UNL     1       0.774  10.527  19.271  0.00  0.00    +0.000 A 
ATOM      5  C   UNL     1       0.645   9.899  20.515  0.00  0.00    +0.000 A 
ATOM      6  C   UNL     1       1.232   8.640  20.713  0.00  0.00    +0.000 A 
ENDROOT
BRANCH   5   7
ATOM      7  C   UNL     1      -0.181  10.491  21.554  0.00  0.00    +0.000 A 
ATOM      8  N   UNL     1       0.001  10.288  22.872  0.00  0.00    +0.000 NA
ATOM      9  O   UNL     1      -0.876  11.193  23.463  0.00  0.00    +0.000 OA
ATOM     10  C   UNL     1      -1.512  11.845  22.440  0.00  0.00    +0.000 A 
ATOM     11  N   UNL     1      -1.148  11.419  21.260  0.00  0.00    +0.000 NA
BRANCH  10  12
ATOM     12  C   UNL     1      -2.470  13.005  22.660  0.00  0.00    +0.000 C 
ATOM     13  C   UNL     1      -3.338  13.106  23.893  0.00  0.00    +0.000 C 
ATOM     14  C   UNL     1      -3.955  12.650  22.617  0.00  0.00    +0.000 C 
ENDBRANCH  10  12
ENDBRANCH   5   7
BRANCH   1  16
ATOM     15  N   UNL     1       3.333   6.142  19.027  0.00  0.00    +0.000 N 
ATOM     16  C   UNL     1       2.337   6.598  19.853  0.00  0.00    +0.000 C 
ATOM     17  O   UNL     1       1.819   5.903  20.722  0.00  0.00    +0.000 OA
ATOM     18  H   UNL     1       3.835   6.750  18.393  0.00  0.00    +0.000 HD
BRANCH  15  19
ATOM     19  C   UNL     1       3.821   4.785  19.157  0.00  0.00    +0.000 C 
BRANCH  19  23
ATOM     20  C   UNL     1       7.124   4.500  15.454  0.00  0.00    +0.000 C 
ATOM     21  C   UNL     1       6.435   4.502  16.763  0.00  0.00    +0.000 A 
ATOM     22  N   UNL     1       5.165   4.715  17.015  0.00  0.00    +0.000 NA
ATOM     23  C   UNL     1       5.090   4.601  18.389  0.00  0.00    +0.000 A 
ATOM     24  N   UNL     1       6.257   4.323  18.983  0.00  0.00    +0.000 NA
ATOM     25  N   UNL     1       7.094   4.269  17.937  0.00  0.00    +0.000 N 
ATOM     26  H   UNL     1       8.075   4.074  18.095  0.00  0.00    +0.000 HD
ENDBRANCH  19  23
ENDBRANCH  15  19
ENDBRANCH   1  16
TORSDOF 5
ENDMDL
