MODEL 1
REMARK VINA RESULT:      -9.0      0.000      0.000
REMARK  Name = 
REMARK  3 active torsions:
REMARK  status: ('A' for Active; 'I' for Inactive)
REMARK    1  A    between atoms: C_2  and  C_3
REMARK    2  A    between atoms: C_3  and  N_4
REMARK    3  A    between atoms: C_7  and  N_8
REMARK                            x       y       z     vdW  Elec       q    Type
REMARK                         _______ _______ _______ _____ _____    ______ ____
ROOT
ATOM      1  N   UNL     1       1.330   4.241  19.613  0.00  0.00    +0.000 NA
ATOM      2  C   UNL     1       1.541   4.674  18.214  0.00  0.00    +0.000 C 
ATOM      3  C   UNL     1       2.057   3.633  17.231  0.00  0.00    +0.000 C 
ATOM      4  C   UNL     1       3.214   2.797  17.771  0.00  0.00    +0.000 C 
ATOM      5  C   UNL     1       2.803   2.233  19.132  0.00  0.00    +0.000 C 
ATOM      6  C   UNL     1       2.346   3.303  20.124  0.00  0.00    +0.000 C 
ENDROOT
BRANCH   4   7
ATOM      7  N   UNL     1       4.527   3.463  17.744  0.00  0.00    +0.000 N 
ATOM      8  C   UNL     1       5.383   3.768  18.832  0.00  0.00    +0.000 A 
ATOM      9  O   UNL     1       5.229   3.609  20.028  0.00  0.00    +0.000 OA
ATOM     10  N   UNL     1       6.543   4.335  18.305  0.00  0.00    +0.000 N 
ATOM     11  C   UNL     1       6.433   4.404  16.932  0.00  0.00    +0.000 A 
ATOM     12  C   UNL     1       7.349   4.905  16.038  0.00  0.00    +0.000 A 
ATOM     13  C   UNL     1       6.995   4.874  14.694  0.00  0.00    +0.000 A 
ATOM     14  C   UNL     1       5.749   4.347  14.295  0.00  0.00    +0.000 A 
ATOM     15  C   UNL     1       4.834   3.835  15.232  0.00  0.00    +0.000 A 
ATOM     16  C   UNL     1       5.193   3.874  16.561  0.00  0.00    +0.000 A 
ATOM     17  H   UNL     1       7.317   4.629  18.876  0.00  0.00    +0.000 HD
ENDBRANCH   4   7
BRANCH   1  18
ATOM     18  C   UNL     1       1.352   5.495  20.424  0.00  0.00    +0.000 C 
BRANCH  18  20
ATOM     19  O   UNL     1       3.196   6.378  19.157  0.00  0.00    +0.000 OA
ATOM     20  C   UNL     1       2.247   6.620  19.909  0.00  0.00    +0.000 C 
ATOM     21  N   UNL     1       1.865   7.918  20.191  0.00  0.00    +0.000 N 
ATOM     22  C   UNL     1       0.916   8.294  21.260  0.00  0.00    +0.000 C 
ATOM     23  C   UNL     1       0.732   9.828  21.340  0.00  0.00    +0.000 C 
ATOM     24  C   UNL     1       0.153  10.200  19.989  0.00  0.00    +0.000 A 
ATOM     25  C   UNL     1      -1.106  10.779  19.854  0.00  0.00    +0.000 A 
ATOM     26  C   UNL     1      -1.783  10.645  18.643  0.00  0.00    +0.000 A 
ATOM     27  C   UNL     1      -1.193   9.963  17.573  0.00  0.00    +0.000 A 
ATOM     28  C   UNL     1       0.112   9.477  17.675  0.00  0.00    +0.000 A 
ATOM     29  C   UNL     1       0.802   9.619  18.876  0.00  0.00    +0.000 A 
ATOM     30  C   UNL     1       2.116   8.920  19.156  0.00  0.00    +0.000 C 
ENDBRANCH  18  20
ENDBRANCH   1  18
TORSDOF 3
ENDMDL
MODEL 2
REMARK VINA RESULT:      -8.8      3.744      9.829
REMARK  Name = 
REMARK  3 active torsions:
REMARK  status: ('A' for Active; 'I' for Inactive)
REMARK    1  A    between atoms: C_2  and  C_3
REMARK    2  A    between atoms: C_3  and  N_4
REMARK    3  A    between atoms: C_7  and  N_8
REMARK                            x       y       z     vdW  Elec       q    Type
REMARK                         _______ _______ _______ _____ _____    ______ ____
ROOT
ATOM      1  N   UNL     1      -0.135  10.677  19.938  0.00  0.00    +0.000 NA
ATOM      2  C   UNL     1      -1.095  10.783  18.817  0.00  0.00    +0.000 C 
ATOM      3  C   UNL     1      -1.610  12.171  18.467  0.00  0.00    +0.000 C 
ATOM      4  C   UNL     1      -2.029  12.995  19.681  0.00  0.00    +0.000 C 
ATOM      5  C   UNL     1      -0.878  12.984  20.688  0.00  0.00    +0.000 C 
ATOM      6  C   UNL     1      -0.416  11.577  21.072  0.00  0.00    +0.000 C 
ENDROOT
BRANCH   4   7
ATOM      7  N   UNL     1      -3.348  12.653  20.240  0.00  0.00    +0.000 N 
ATOM      8  C   UNL     1      -3.795  12.768  21.580  0.00  0.00    +0.000 A 
ATOM      9  O   UNL     1      -3.202  13.117  22.583  0.00  0.00    +0.000 OA
ATOM     10  N   UNL     1      -5.136  12.389  21.607  0.00  0.00    +0.000 N 
ATOM     11  C   UNL     1      -5.535  12.031  20.337  0.00  0.00    +0.000 A 
ATOM     12  C   UNL     1      -6.772  11.588  19.936  0.00  0.00    +0.000 A 
ATOM     13  C   UNL     1      -6.921  11.275  18.589  0.00  0.00    +0.000 A 
ATOM     14  C   UNL     1      -5.836  11.417  17.699  0.00  0.00    +0.000 A 
ATOM     15  C   UNL     1      -4.582  11.880  18.136  0.00  0.00    +0.000 A 
ATOM     16  C   UNL     1      -4.445  12.183  19.473  0.00  0.00    +0.000 A 
ATOM     17  H   UNL     1      -5.690  12.395  22.448  0.00  0.00    +0.000 HD
ENDBRANCH   4   7
BRANCH   1  18
ATOM     18  C   UNL     1      -0.212   9.258  20.395  0.00  0.00    +0.000 C 
BRANCH  18  20
ATOM     19  O   UNL     1       1.291   8.784  22.213  0.00  0.00    +0.000 OA
ATOM     20  C   UNL     1       1.059   8.671  21.005  0.00  0.00    +0.000 C 
ATOM     21  N   UNL     1       1.853   7.886  20.190  0.00  0.00    +0.000 N 
ATOM     22  C   UNL     1       1.798   7.894  18.714  0.00  0.00    +0.000 C 
ATOM     23  C   UNL     1       2.842   6.931  18.102  0.00  0.00    +0.000 C 
ATOM     24  C   UNL     1       2.433   5.565  18.620  0.00  0.00    +0.000 A 
ATOM     25  C   UNL     1       2.045   4.533  17.771  0.00  0.00    +0.000 A 
ATOM     26  C   UNL     1       1.232   3.519  18.271  0.00  0.00    +0.000 A 
ATOM     27  C   UNL     1       0.835   3.524  19.613  0.00  0.00    +0.000 A 
ATOM     28  C   UNL     1       1.313   4.502  20.489  0.00  0.00    +0.000 A 
ATOM     29  C   UNL     1       2.138   5.512  20.002  0.00  0.00    +0.000 A 
ATOM     30  C   UNL     1       2.506   6.735  20.815  0.00  0.00    +0.000 C 
ENDBRANCH  18  20
ENDBRANCH   1  18
TORSDOF 3
ENDMDL
MODEL 3
REMARK VINA RESULT:      -8.7      1.935      2.542
REMARK  Name = 
REMARK  3 active torsions:
REMARK  status: ('A' for Active; 'I' for Inactive)
REMARK    1  A    between atoms: C_2  and  C_3
REMARK    2  A    between atoms: C_3  and  N_4
REMARK    3  A    between atoms: C_7  and  N_8
REMARK                            x       y       z     vdW  Elec       q    Type
REMARK                         _______ _______ _______ _____ _____    ______ ____
ROOT
ATOM      1  N   UNL     1       2.133   6.206  19.381  0.00  0.00    +0.000 NA
ATOM      2  C   UNL     1       2.202   5.840  17.949  0.00  0.00    +0.000 C 
ATOM      3  C   UNL     1       2.631   4.420  17.610  0.00  0.00    +0.000 C 
ATOM      4  C   UNL     1       3.845   3.940  18.400  0.00  0.00    +0.000 C 
ATOM      5  C   UNL     1       3.576   4.181  19.886  0.00  0.00    +0.000 C 
ATOM      6  C   UNL     1       3.206   5.628  20.213  0.00  0.00    +0.000 C 
ENDROOT
BRANCH   4   7
ATOM      7  N   UNL     1       5.141   4.441  17.913  0.00  0.00    +0.000 N 
ATOM      8  C   UNL     1       6.235   4.935  18.667  0.00  0.00    +0.000 A 
ATOM      9  O   UNL     1       6.353   5.114  19.864  0.00  0.00    +0.000 OA
ATOM     10  N   UNL     1       7.264   5.224  17.771  0.00  0.00    +0.000 N 
ATOM     11  C   UNL     1       6.844   4.939  16.488  0.00  0.00    +0.000 A 
ATOM     12  C   UNL     1       7.549   5.092  15.318  0.00  0.00    +0.000 A 
ATOM     13  C   UNL     1       6.895   4.743  14.142  0.00  0.00    +0.000 A 
ATOM     14  C   UNL     1       5.572   4.256  14.177  0.00  0.00    +0.000 A 
ATOM     15  C   UNL     1       4.878   4.104  15.390  0.00  0.00    +0.000 A 
ATOM     16  C   UNL     1       5.533   4.456  16.550  0.00  0.00    +0.000 A 
ATOM     17  H   UNL     1       8.159   5.580  18.061  0.00  0.00    +0.000 HD
ENDBRANCH   4   7
BRANCH   1  18
ATOM     18  C   UNL     1       2.220   7.696  19.416  0.00  0.00    +0.000 C 
BRANCH  18  20
ATOM     19  O   UNL     1       1.444   8.107  21.656  0.00  0.00    +0.000 OA
ATOM     20  C   UNL     1       1.357   8.402  20.460  0.00  0.00    +0.000 C 
ATOM     21  N   UNL     1       0.599   9.477  20.037  0.00  0.00    +0.000 N 
ATOM     22  C   UNL     1       0.244   9.745  18.628  0.00  0.00    +0.000 C 
ATOM     23  C   UNL     1      -0.646  11.003  18.497  0.00  0.00    +0.000 C 
ATOM     24  C   UNL     1       0.223  12.127  19.027  0.00  0.00    +0.000 A 
ATOM     25  C   UNL     1       0.614  13.203  18.233  0.00  0.00    +0.000 A 
ATOM     26  C   UNL     1       1.764  13.910  18.577  0.00  0.00    +0.000 A 
ATOM     27  C   UNL     1       2.497  13.562  19.717  0.00  0.00    +0.000 A 
ATOM     28  C   UNL     1       2.044  12.553  20.570  0.00  0.00    +0.000 A 
ATOM     29  C   UNL     1       0.888  11.849  20.243  0.00  0.00    +0.000 A 
ATOM     30  C   UNL     1       0.457  10.594  20.971  0.00  0.00    +0.000 C 
ENDBRANCH  18  20
ENDBRANCH   1  18
TORSDOF 3
ENDMDL
MODEL 4
REMARK VINA RESULT:      -8.7      3.455      9.672
REMARK  Name = 
REMARK  3 active torsions:
REMARK  status: ('A' for Active; 'I' for Inactive)
REMARK    1  A    between atoms: C_2  and  C_3
REMARK    2  A    between atoms: C_3  and  N_4
REMARK    3  A    between atoms: C_7  and  N_8
REMARK                            x       y       z     vdW  Elec       q    Type
REMARK                         _______ _______ _______ _____ _____    ______ ____
ROOT
ATOM      1  N   UNL     1       0.128  10.607  20.006  0.00  0.00    +0.000 NA
ATOM      2  C   UNL     1       0.046  11.200  18.652  0.00  0.00    +0.000 C 
ATOM      3  C   UNL     1      -0.605  12.569  18.526  0.00  0.00    +0.000 C 
ATOM      4  C   UNL     1      -1.908  12.704  19.308  0.00  0.00    +0.000 C 
ATOM      5  C   UNL     1      -1.652  12.256  20.748  0.00  0.00    +0.000 C 
ATOM      6  C   UNL     1      -1.055  10.852  20.853  0.00  0.00    +0.000 C 
ENDROOT
BRANCH   4   7
ATOM      7  N   UNL     1      -3.084  12.093  18.666  0.00  0.00    +0.000 N 
ATOM      8  C   UNL     1      -3.161  11.432  17.414  0.00  0.00    +0.000 A 
ATOM      9  O   UNL     1      -2.314  11.257  16.559  0.00  0.00    +0.000 OA
ATOM     10  N   UNL     1      -4.466  10.963  17.269  0.00  0.00    +0.000 N 
ATOM     11  C   UNL     1      -5.205  11.319  18.378  0.00  0.00    +0.000 A 
ATOM     12  C   UNL     1      -6.531  11.060  18.625  0.00  0.00    +0.000 A 
ATOM     13  C   UNL     1      -7.052  11.540  19.822  0.00  0.00    +0.000 A 
ATOM     14  C   UNL     1      -6.234  12.254  20.722  0.00  0.00    +0.000 A 
ATOM     15  C   UNL     1      -4.877  12.498  20.445  0.00  0.00    +0.000 A 
ATOM     16  C   UNL     1      -4.372  12.022  19.255  0.00  0.00    +0.000 A 
ATOM     17  H   UNL     1      -4.776  10.446  16.463  0.00  0.00    +0.000 HD
ENDBRANCH   4   7
BRANCH   1  18
ATOM     18  C   UNL     1       0.292   9.139  19.788  0.00  0.00    +0.000 C 
BRANCH  18  20
ATOM     19  O   UNL     1       1.510   8.651  21.804  0.00  0.00    +0.000 OA
ATOM     20  C   UNL     1       1.396   8.454  20.590  0.00  0.00    +0.000 C 
ATOM     21  N   UNL     1       2.156   7.499  19.941  0.00  0.00    +0.000 N 
ATOM     22  C   UNL     1       2.261   7.374  18.473  0.00  0.00    +0.000 C 
ATOM     23  C   UNL     1       3.221   6.230  18.069  0.00  0.00    +0.000 C 
ATOM     24  C   UNL     1       2.572   4.984  18.642  0.00  0.00    +0.000 A 
ATOM     25  C   UNL     1       2.138   3.935  17.838  0.00  0.00    +0.000 A 
ATOM     26  C   UNL     1       1.143   3.086  18.317  0.00  0.00    +0.000 A 
ATOM     27  C   UNL     1       0.609   3.271  19.597  0.00  0.00    +0.000 A 
ATOM     28  C   UNL     1       1.121   4.257  20.443  0.00  0.00    +0.000 A 
ATOM     29  C   UNL     1       2.126   5.101  19.979  0.00  0.00    +0.000 A 
ATOM     30  C   UNL     1       2.572   6.339  20.729  0.00  0.00    +0.000 C 
ENDBRANCH  18  20
ENDBRANCH   1  18
TORSDOF 3
ENDMDL
MODEL 5
REMARK VINA RESULT:      -8.7      1.716      2.304
REMARK  Name = 
REMARK  3 active torsions:
REMARK  status: ('A' for Active; 'I' for Inactive)
REMARK    1  A    between atoms: C_2  and  C_3
REMARK    2  A    between atoms: C_3  and  N_4
REMARK    3  A    between atoms: C_7  and  N_8
REMARK                            x       y       z     vdW  Elec       q    Type
REMARK                         _______ _______ _______ _____ _____    ______ ____
ROOT
ATOM      1  N   UNL     1       2.219   4.281  19.253  0.00  0.00    +0.000 NA
ATOM      2  C   UNL     1       2.110   4.177  17.780  0.00  0.00    +0.000 C 
ATOM      3  C   UNL     1       3.018   3.175  17.082  0.00  0.00    +0.000 C 
ATOM      4  C   UNL     1       4.465   3.216  17.564  0.00  0.00    +0.000 C 
ATOM      5  C   UNL     1       4.465   3.113  19.090  0.00  0.00    +0.000 C 
ATOM      6  C   UNL     1       3.594   4.167  19.774  0.00  0.00    +0.000 C 
ENDROOT
BRANCH   4   7
ATOM      7  N   UNL     1       5.272   4.320  17.016  0.00  0.00    +0.000 N 
ATOM      8  C   UNL     1       5.250   4.861  15.706  0.00  0.00    +0.000 A 
ATOM      9  O   UNL     1       4.620   4.525  14.722  0.00  0.00    +0.000 OA
ATOM     10  N   UNL     1       6.138   5.937  15.684  0.00  0.00    +0.000 N 
ATOM     11  C   UNL     1       6.718   6.075  16.928  0.00  0.00    +0.000 A 
ATOM     12  C   UNL     1       7.652   7.002  17.323  0.00  0.00    +0.000 A 
ATOM     13  C   UNL     1       8.095   6.925  18.639  0.00  0.00    +0.000 A 
ATOM     14  C   UNL     1       7.590   5.933  19.506  0.00  0.00    +0.000 A 
ATOM     15  C   UNL     1       6.628   5.002  19.075  0.00  0.00    +0.000 A 
ATOM     16  C   UNL     1       6.200   5.084  17.769  0.00  0.00    +0.000 A 
ATOM     17  H   UNL     1       6.297   6.499  14.865  0.00  0.00    +0.000 HD
ENDBRANCH   4   7
BRANCH   1  18
ATOM     18  C   UNL     1       1.663   5.623  19.598  0.00  0.00    +0.000 C 
BRANCH  18  20
ATOM     19  O   UNL     1       3.197   6.702  18.092  0.00  0.00    +0.000 OA
ATOM     20  C   UNL     1       2.403   6.831  19.028  0.00  0.00    +0.000 C 
ATOM     21  N   UNL     1       2.037   8.080  19.495  0.00  0.00    +0.000 N 
ATOM     22  C   UNL     1       1.300   8.317  20.753  0.00  0.00    +0.000 C 
ATOM     23  C   UNL     1       1.082   9.828  21.006  0.00  0.00    +0.000 C 
ATOM     24  C   UNL     1       0.241  10.282  19.828  0.00  0.00    +0.000 A 
ATOM     25  C   UNL     1      -1.039  10.805  19.986  0.00  0.00    +0.000 A 
ATOM     26  C   UNL     1      -1.931  10.737  18.918  0.00  0.00    +0.000 A 
ATOM     27  C   UNL     1      -1.535  10.178  17.698  0.00  0.00    +0.000 A 
ATOM     28  C   UNL     1      -0.219   9.752  17.507  0.00  0.00    +0.000 A 
ATOM     29  C   UNL     1       0.685   9.829  18.564  0.00  0.00    +0.000 A 
ATOM     30  C   UNL     1       2.051   9.177  18.527  0.00  0.00    +0.000 C 
ENDBRANCH  18  20
ENDBRANCH   1  18
TORSDOF 3
ENDMDL
MODEL 6
REMARK VINA RESULT:      -8.4      3.842     10.077
REMARK  Name = 
REMARK  3 active torsions:
REMARK  status: ('A' for Active; 'I' for Inactive)
REMARK    1  A    between atoms: C_2  and  C_3
REMARK    2  A    between atoms: C_3  and  N_4
REMARK    3  A    between atoms: C_7  and  N_8
REMARK                            x       y       z     vdW  Elec       q    Type
REMARK                         _______ _______ _______ _____ _____    ______ ____
ROOT
ATOM      1  N   UNL     1       0.099  10.617  19.714  0.00  0.00    +0.000 NA
ATOM      2  C   UNL     1      -1.009  10.839  18.758  0.00  0.00    +0.000 C 
ATOM      3  C   UNL     1      -1.382  12.281  18.444  0.00  0.00    +0.000 C 
ATOM      4  C   UNL     1      -1.481  13.173  19.678  0.00  0.00    +0.000 C 
ATOM      5  C   UNL     1      -0.192  13.015  20.488  0.00  0.00    +0.000 C 
ATOM      6  C   UNL     1       0.131  11.564  20.844  0.00  0.00    +0.000 C 
ENDROOT
BRANCH   4   7
ATOM      7  N   UNL     1      -2.724  13.026  20.454  0.00  0.00    +0.000 N 
ATOM      8  C   UNL     1      -3.969  12.496  20.031  0.00  0.00    +0.000 A 
ATOM      9  O   UNL     1      -4.327  12.092  18.942  0.00  0.00    +0.000 OA
ATOM     10  N   UNL     1      -4.821  12.500  21.135  0.00  0.00    +0.000 N 
ATOM     11  C   UNL     1      -4.155  13.024  22.223  0.00  0.00    +0.000 A 
ATOM     12  C   UNL     1      -4.639  13.212  23.495  0.00  0.00    +0.000 A 
ATOM     13  C   UNL     1      -3.767  13.776  24.421  0.00  0.00    +0.000 A 
ATOM     14  C   UNL     1      -2.454  14.126  24.044  0.00  0.00    +0.000 A 
ATOM     15  C   UNL     1      -1.984  13.915  22.735  0.00  0.00    +0.000 A 
ATOM     16  C   UNL     1      -2.857  13.360  21.826  0.00  0.00    +0.000 A 
ATOM     17  H   UNL     1      -5.767  12.159  21.098  0.00  0.00    +0.000 HD
ENDBRANCH   4   7
BRANCH   1  18
ATOM     18  C   UNL     1      -0.094   9.229  20.230  0.00  0.00    +0.000 C 
BRANCH  18  20
ATOM     19  O   UNL     1       1.263   8.697  22.143  0.00  0.00    +0.000 OA
ATOM     20  C   UNL     1       1.107   8.590  20.923  0.00  0.00    +0.000 C 
ATOM     21  N   UNL     1       1.917   7.767  20.163  0.00  0.00    +0.000 N 
ATOM     22  C   UNL     1       1.960   7.772  18.686  0.00  0.00    +0.000 C 
ATOM     23  C   UNL     1       2.999   6.761  18.146  0.00  0.00    +0.000 C 
ATOM     24  C   UNL     1       2.496   5.417  18.638  0.00  0.00    +0.000 A 
ATOM     25  C   UNL     1       2.120   4.400  17.765  0.00  0.00    +0.000 A 
ATOM     26  C   UNL     1       1.232   3.424  18.213  0.00  0.00    +0.000 A 
ATOM     27  C   UNL     1       0.749   3.452  19.526  0.00  0.00    +0.000 A 
ATOM     28  C   UNL     1       1.210   4.411  20.430  0.00  0.00    +0.000 A 
ATOM     29  C   UNL     1       2.109   5.382  19.997  0.00  0.00    +0.000 A 
ATOM     30  C   UNL     1       2.477   6.592  20.831  0.00  0.00    +0.000 C 
ENDBRANCH  18  20
ENDBRANCH   1  18
TORSDOF 3
ENDMDL
MODEL 7
REMARK VINA RESULT:      -8.4      4.482      7.270
REMARK  Name = 
REMARK  3 active torsions:
REMARK  status: ('A' for Active; 'I' for Inactive)
REMARK    1  A    between atoms: C_2  and  C_3
REMARK    2  A    between atoms: C_3  and  N_4
REMARK    3  A    between atoms: C_7  and  N_8
REMARK                            x       y       z     vdW  Elec       q    Type
REMARK                         _______ _______ _______ _____ _____    ______ ____
ROOT
ATOM      1  N   UNL     1      -0.955  11.786  19.630  0.00  0.00    +0.000 NA
ATOM      2  C   UNL     1       0.476  11.921  19.983  0.00  0.00    +0.000 C 
ATOM      3  C   UNL     1       1.494  11.385  18.987  0.00  0.00    +0.000 C 
ATOM      4  C   UNL     1       1.150  10.003  18.439  0.00  0.00    +0.000 C 
ATOM      5  C   UNL     1      -0.287  10.040  17.916  0.00  0.00    +0.000 C 
ATOM      6  C   UNL     1      -1.302  10.523  18.952  0.00  0.00    +0.000 C 
ENDROOT
BRANCH   4   7
ATOM      7  N   UNL     1       1.454   8.882  19.345  0.00  0.00    +0.000 N 
ATOM      8  C   UNL     1       1.032   8.691  20.684  0.00  0.00    +0.000 A 
ATOM      9  O   UNL     1       0.378   9.409  21.417  0.00  0.00    +0.000 OA
ATOM     10  N   UNL     1       1.514   7.451  21.102  0.00  0.00    +0.000 N 
ATOM     11  C   UNL     1       2.229   6.871  20.075  0.00  0.00    +0.000 A 
ATOM     12  C   UNL     1       2.874   5.658  20.079  0.00  0.00    +0.000 A 
ATOM     13  C   UNL     1       3.542   5.299  18.913  0.00  0.00    +0.000 A 
ATOM     14  C   UNL     1       3.540   6.158  17.795  0.00  0.00    +0.000 A 
ATOM     15  C   UNL     1       2.864   7.391  17.817  0.00  0.00    +0.000 A 
ATOM     16  C   UNL     1       2.208   7.739  18.978  0.00  0.00    +0.000 A 
ATOM     17  H   UNL     1       1.338   7.076  22.019  0.00  0.00    +0.000 HD
ENDBRANCH   4   7
BRANCH   1  18
ATOM     18  C   UNL     1      -1.693  11.879  20.925  0.00  0.00    +0.000 C 
BRANCH  18  20
ATOM     19  O   UNL     1      -1.840  14.268  20.680  0.00  0.00    +0.000 OA
ATOM     20  C   UNL     1      -2.129  13.277  21.358  0.00  0.00    +0.000 C 
ATOM     21  N   UNL     1      -2.981  13.371  22.443  0.00  0.00    +0.000 N 
ATOM     22  C   UNL     1      -3.179  12.301  23.443  0.00  0.00    +0.000 C 
ATOM     23  C   UNL     1      -4.167  12.737  24.551  0.00  0.00    +0.000 C 
ATOM     24  C   UNL     1      -5.465  12.989  23.809  0.00  0.00    +0.000 A 
ATOM     25  C   UNL     1      -6.622  12.258  24.066  0.00  0.00    +0.000 A 
ATOM     26  C   UNL     1      -7.595  12.167  23.073  0.00  0.00    +0.000 A 
ATOM     27  C   UNL     1      -7.423  12.823  21.849  0.00  0.00    +0.000 A 
ATOM     28  C   UNL     1      -6.313  13.642  21.633  0.00  0.00    +0.000 A 
ATOM     29  C   UNL     1      -5.342  13.752  22.625  0.00  0.00    +0.000 A 
ATOM     30  C   UNL     1      -4.002  14.418  22.392  0.00  0.00    +0.000 C 
ENDBRANCH  18  20
ENDBRANCH   1  18
TORSDOF 3
ENDMDL
MODEL 8
REMARK VINA RESULT:      -8.3      3.661      9.884
REMARK  Name = 
REMARK  3 active torsions:
REMARK  status: ('A' for Active; 'I' for Inactive)
REMARK    1  A    between atoms: C_2  and  C_3
REMARK    2  A    between atoms: C_3  and  N_4
REMARK    3  A    between atoms: C_7  and  N_8
REMARK                            x       y       z     vdW  Elec       q    Type
REMARK                         _______ _______ _______ _____ _____    ______ ____
ROOT
ATOM      1  N   UNL     1       0.277  10.614  19.604  0.00  0.00    +0.000 NA
ATOM      2  C   UNL     1      -1.037  11.067  19.096  0.00  0.00    +0.000 C 
ATOM      3  C   UNL     1      -1.289  12.567  19.052  0.00  0.00    +0.000 C 
ATOM      4  C   UNL     1      -0.863  13.300  20.321  0.00  0.00    +0.000 C 
ATOM      5  C   UNL     1       0.582  12.911  20.637  0.00  0.00    +0.000 C 
ATOM      6  C   UNL     1       0.800  11.401  20.736  0.00  0.00    +0.000 C 
ENDROOT
BRANCH   4   7
ATOM      7  N   UNL     1      -1.800  13.182  21.451  0.00  0.00    +0.000 N 
ATOM      8  C   UNL     1      -1.519  13.242  22.839  0.00  0.00    +0.000 A 
ATOM      9  O   UNL     1      -0.459  13.347  23.428  0.00  0.00    +0.000 OA
ATOM     10  N   UNL     1      -2.734  13.150  23.516  0.00  0.00    +0.000 N 
ATOM     11  C   UNL     1      -3.758  13.024  22.600  0.00  0.00    +0.000 A 
ATOM     12  C   UNL     1      -5.102  12.895  22.853  0.00  0.00    +0.000 A 
ATOM     13  C   UNL     1      -5.939  12.770  21.749  0.00  0.00    +0.000 A 
ATOM     14  C   UNL     1      -5.404  12.778  20.443  0.00  0.00    +0.000 A 
ATOM     15  C   UNL     1      -4.024  12.918  20.215  0.00  0.00    +0.000 A 
ATOM     16  C   UNL     1      -3.204  13.038  21.316  0.00  0.00    +0.000 A 
ATOM     17  H   UNL     1      -2.806  13.180  24.520  0.00  0.00    +0.000 HD
ENDBRANCH   4   7
BRANCH   1  18
ATOM     18  C   UNL     1       0.071   9.198  20.031  0.00  0.00    +0.000 C 
BRANCH  18  20
ATOM     19  O   UNL     1       1.379   8.669  21.980  0.00  0.00    +0.000 OA
ATOM     20  C   UNL     1       1.236   8.533  20.761  0.00  0.00    +0.000 C 
ATOM     21  N   UNL     1       2.024   7.658  20.037  0.00  0.00    +0.000 N 
ATOM     22  C   UNL     1       2.088   7.619  18.561  0.00  0.00    +0.000 C 
ATOM     23  C   UNL     1       3.094   6.554  18.065  0.00  0.00    +0.000 C 
ATOM     24  C   UNL     1       2.533   5.246  18.586  0.00  0.00    +0.000 A 
ATOM     25  C   UNL     1       2.130   4.219  17.737  0.00  0.00    +0.000 A 
ATOM     26  C   UNL     1       1.198   3.291  18.197  0.00  0.00    +0.000 A 
ATOM     27  C   UNL     1       0.697   3.376  19.501  0.00  0.00    +0.000 A 
ATOM     28  C   UNL     1       1.183   4.341  20.385  0.00  0.00    +0.000 A 
ATOM     29  C   UNL     1       2.125   5.264  19.940  0.00  0.00    +0.000 A 
ATOM     30  C   UNL     1       2.528   6.482  20.745  0.00  0.00    +0.000 C 
ENDBRANCH  18  20
ENDBRANCH   1  18
TORSDOF 3
ENDMDL
MODEL 9
REMARK VINA RESULT:      -8.3      2.535      8.858
REMARK  Name = 
REMARK  3 active torsions:
REMARK  status: ('A' for Active; 'I' for Inactive)
REMARK    1  A    between atoms: C_2  and  C_3
REMARK    2  A    between atoms: C_3  and  N_4
REMARK    3  A    between atoms: C_7  and  N_8
REMARK                            x       y       z     vdW  Elec       q    Type
REMARK                         _______ _______ _______ _____ _____    ______ ____
ROOT
ATOM      1  N   UNL     1       2.042   9.028  18.821  0.00  0.00    +0.000 NA
ATOM      2  C   UNL     1       1.866  10.251  18.006  0.00  0.00    +0.000 C 
ATOM      3  C   UNL     1       1.432  11.516  18.730  0.00  0.00    +0.000 C 
ATOM      4  C   UNL     1       0.291  11.298  19.720  0.00  0.00    +0.000 C 
ATOM      5  C   UNL     1       0.673  10.140  20.644  0.00  0.00    +0.000 C 
ATOM      6  C   UNL     1       1.047   8.860  19.896  0.00  0.00    +0.000 C 
ENDROOT
BRANCH   4   7
ATOM      7  N   UNL     1      -1.047  11.194  19.113  0.00  0.00    +0.000 N 
ATOM      8  C   UNL     1      -1.459  10.389  18.022  0.00  0.00    +0.000 A 
ATOM      9  O   UNL     1      -0.821   9.646  17.301  0.00  0.00    +0.000 OA
ATOM     10  N   UNL     1      -2.831  10.578  17.858  0.00  0.00    +0.000 N 
ATOM     11  C   UNL     1      -3.283  11.479  18.799  0.00  0.00    +0.000 A 
ATOM     12  C   UNL     1      -4.564  11.945  18.973  0.00  0.00    +0.000 A 
ATOM     13  C   UNL     1      -4.763  12.868  19.994  0.00  0.00    +0.000 A 
ATOM     14  C   UNL     1      -3.683  13.287  20.798  0.00  0.00    +0.000 A 
ATOM     15  C   UNL     1      -2.383  12.788  20.602  0.00  0.00    +0.000 A 
ATOM     16  C   UNL     1      -2.196  11.877  19.586  0.00  0.00    +0.000 A 
ATOM     17  H   UNL     1      -3.369  10.105  17.151  0.00  0.00    +0.000 HD
ENDBRANCH   4   7
BRANCH   1  18
ATOM     18  C   UNL     1       1.937   7.891  17.859  0.00  0.00    +0.000 C 
BRANCH  18  20
ATOM     19  O   UNL     1       4.287   7.375  17.853  0.00  0.00    +0.000 OA
ATOM     20  C   UNL     1       3.132   6.941  17.798  0.00  0.00    +0.000 C 
ATOM     21  N   UNL     1       2.869   5.585  17.834  0.00  0.00    +0.000 N 
ATOM     22  C   UNL     1       1.557   4.980  17.526  0.00  0.00    +0.000 C 
ATOM     23  C   UNL     1       1.607   3.437  17.620  0.00  0.00    +0.000 C 
ATOM     24  C   UNL     1       1.966   3.167  19.068  0.00  0.00    +0.000 A 
ATOM     25  C   UNL     1       1.118   2.473  19.927  0.00  0.00    +0.000 A 
ATOM     26  C   UNL     1       1.238   2.676  21.301  0.00  0.00    +0.000 A 
ATOM     27  C   UNL     1       2.214   3.542  21.807  0.00  0.00    +0.000 A 
ATOM     28  C   UNL     1       3.131   4.154  20.952  0.00  0.00    +0.000 A 
ATOM     29  C   UNL     1       3.030   3.946  19.578  0.00  0.00    +0.000 A 
ATOM     30  C   UNL     1       3.820   4.747  18.565  0.00  0.00    +0.000 C 
ENDBRANCH  18  20
ENDBRANCH   1  18
TORSDOF 3
ENDMDL
