MODEL 1
REMARK VINA RESULT:      -9.0      0.000      0.000
REMARK  Name = 
REMARK  5 active torsions:
REMARK  status: ('A' for Active; 'I' for Inactive)
REMARK    1  A    between atoms: C_1  and  C_2
REMARK    2  A    between atoms: C_2  and  C_3
REMARK    3  A    between atoms: C_5  and  N_6
REMARK    4  A    between atoms: C_7  and  C_9
REMARK    5  A    between atoms: N_14  and  C_15
REMARK                            x       y       z     vdW  Elec       q    Type
REMARK                         _______ _______ _______ _____ _____    ______ ____
ROOT
ATOM      1  N   UNL     1       0.943   9.228  19.287  0.00  0.00    +0.000 N 
ATOM      2  C   UNL     1       1.851   8.710  18.393  0.00  0.00    +0.000 C 
ATOM      3  O   UNL     1       2.209   9.251  17.359  0.00  0.00    +0.000 OA
ATOM      4  H   UNL     1       0.757   8.707  20.138  0.00  0.00    +0.000 HD
ENDROOT
BRANCH   1   9
ATOM      5  C   UNL     1      -1.943  12.341  21.506  0.00  0.00    +0.000 C 
ATOM      6  C   UNL     1      -1.082  12.215  20.242  0.00  0.00    +0.000 C 
ATOM      7  C   UNL     1      -0.604  13.603  19.795  0.00  0.00    +0.000 C 
ATOM      8  C   UNL     1       0.109  11.245  20.475  0.00  0.00    +0.000 C 
ATOM      9  C   UNL     1       0.397  10.555  19.123  0.00  0.00    +0.000 C 
ATOM     10  C   UNL     1      -0.969  10.561  18.501  0.00  0.00    +0.000 A 
ATOM     11  C   UNL     1      -1.411   9.827  17.408  0.00  0.00    +0.000 A 
ATOM     12  C   UNL     1      -2.710  10.039  16.942  0.00  0.00    +0.000 A 
ATOM     13  C   UNL     1      -3.540  10.988  17.554  0.00  0.00    +0.000 A 
ATOM     14  C   UNL     1      -3.087  11.734  18.644  0.00  0.00    +0.000 A 
ATOM     15  C   UNL     1      -1.800  11.509  19.112  0.00  0.00    +0.000 A 
ENDBRANCH   1   9
BRANCH   2  16
ATOM     16  C   UNL     1       2.482   7.382  18.822  0.00  0.00    +0.000 A 
ATOM     17  C   UNL     1       1.879   6.751  20.005  0.00  0.00    +0.000 A 
ATOM     18  C   UNL     1       2.315   5.532  20.313  0.00  0.00    +0.000 A 
ATOM     19  C   UNL     1       3.367   4.861  19.518  0.00  0.00    +0.000 A 
ATOM     20  O   UNL     1       3.678   3.727  19.873  0.00  0.00    +0.000 OA
ATOM     21  N   UNL     1       3.929   5.622  18.481  0.00  0.00    +0.000 N 
ATOM     22  N   UNL     1       3.457   6.887  18.122  0.00  0.00    +0.000 NA
BRANCH  21  23
ATOM     23  C   UNL     1       5.012   5.146  17.664  0.00  0.00    +0.000 A 
ATOM     24  C   UNL     1       6.344   5.158  18.104  0.00  0.00    +0.000 A 
ATOM     25  C   UNL     1       7.387   4.709  17.286  0.00  0.00    +0.000 A 
ATOM     26  C   UNL     1       7.119   4.250  16.001  0.00  0.00    +0.000 A 
ATOM     27  C   UNL     1       5.805   4.226  15.541  0.00  0.00    +0.000 A 
ATOM     28  C   UNL     1       4.761   4.657  16.369  0.00  0.00    +0.000 A 
ENDBRANCH  21  23
ENDBRANCH   2  16
TORSDOF 3
ENDMDL
MODEL 2
REMARK VINA RESULT:      -9.0      2.170      4.066
REMARK  Name = 
REMARK  5 active torsions:
REMARK  status: ('A' for Active; 'I' for Inactive)
REMARK    1  A    between atoms: C_1  and  C_2
REMARK    2  A    between atoms: C_2  and  C_3
REMARK    3  A    between atoms: C_5  and  N_6
REMARK    4  A    between atoms: C_7  and  C_9
REMARK    5  A    between atoms: N_14  and  C_15
REMARK                            x       y       z     vdW  Elec       q    Type
REMARK                         _______ _______ _______ _____ _____    ______ ____
ROOT
ATOM      1  N   UNL     1       3.085   7.681  18.188  0.00  0.00    +0.000 N 
ATOM      2  C   UNL     1       3.177   6.331  17.947  0.00  0.00    +0.000 C 
ATOM      3  O   UNL     1       2.236   5.553  17.918  0.00  0.00    +0.000 OA
ATOM      4  H   UNL     1       3.933   8.236  18.141  0.00  0.00    +0.000 HD
ENDROOT
BRANCH   1   9
ATOM      5  C   UNL     1       1.199  12.063  18.617  0.00  0.00    +0.000 C 
ATOM      6  C   UNL     1       0.772  10.592  18.536  0.00  0.00    +0.000 C 
ATOM      7  C   UNL     1      -0.637  10.488  17.940  0.00  0.00    +0.000 C 
ATOM      8  C   UNL     1       1.802   9.758  17.723  0.00  0.00    +0.000 C 
ATOM      9  C   UNL     1       1.805   8.336  18.326  0.00  0.00    +0.000 C 
ATOM     10  C   UNL     1       1.440   8.629  19.753  0.00  0.00    +0.000 A 
ATOM     11  C   UNL     1       1.563   7.789  20.852  0.00  0.00    +0.000 A 
ATOM     12  C   UNL     1       1.091   8.235  22.089  0.00  0.00    +0.000 A 
ATOM     13  C   UNL     1       0.490   9.495  22.208  0.00  0.00    +0.000 A 
ATOM     14  C   UNL     1       0.355  10.330  21.098  0.00  0.00    +0.000 A 
ATOM     15  C   UNL     1       0.838   9.888  19.874  0.00  0.00    +0.000 A 
ENDBRANCH   1   9
BRANCH   2  16
ATOM     16  C   UNL     1       4.590   5.836  17.622  0.00  0.00    +0.000 A 
ATOM     17  C   UNL     1       5.486   5.687  18.778  0.00  0.00    +0.000 A 
ATOM     18  C   UNL     1       6.669   5.126  18.543  0.00  0.00    +0.000 A 
ATOM     19  C   UNL     1       7.067   4.697  17.184  0.00  0.00    +0.000 A 
ATOM     20  O   UNL     1       8.170   4.167  17.081  0.00  0.00    +0.000 OA
ATOM     21  N   UNL     1       6.157   4.997  16.157  0.00  0.00    +0.000 N 
ATOM     22  N   UNL     1       4.897   5.550  16.394  0.00  0.00    +0.000 NA
BRANCH  21  23
ATOM     23  C   UNL     1       6.425   4.715  14.773  0.00  0.00    +0.000 A 
ATOM     24  C   UNL     1       5.682   3.774  14.043  0.00  0.00    +0.000 A 
ATOM     25  C   UNL     1       5.970   3.499  12.702  0.00  0.00    +0.000 A 
ATOM     26  C   UNL     1       7.021   4.151  12.065  0.00  0.00    +0.000 A 
ATOM     27  C   UNL     1       7.772   5.090  12.767  0.00  0.00    +0.000 A 
ATOM     28  C   UNL     1       7.468   5.379  14.103  0.00  0.00    +0.000 A 
ENDBRANCH  21  23
ENDBRANCH   2  16
TORSDOF 3
ENDMDL
MODEL 3
REMARK VINA RESULT:      -8.6      1.692      3.169
REMARK  Name = 
REMARK  5 active torsions:
REMARK  status: ('A' for Active; 'I' for Inactive)
REMARK    1  A    between atoms: C_1  and  C_2
REMARK    2  A    between atoms: C_2  and  C_3
REMARK    3  A    between atoms: C_5  and  N_6
REMARK    4  A    between atoms: C_7  and  C_9
REMARK    5  A    between atoms: N_14  and  C_15
REMARK                            x       y       z     vdW  Elec       q    Type
REMARK                         _______ _______ _______ _____ _____    ______ ____
ROOT
ATOM      1  N   UNL     1       1.269   9.420  19.278  0.00  0.00    +0.000 N 
ATOM      2  C   UNL     1       2.104   9.267  18.197  0.00  0.00    +0.000 C 
ATOM      3  O   UNL     1       2.427  10.154  17.423  0.00  0.00    +0.000 OA
ATOM      4  H   UNL     1       1.110   8.618  19.879  0.00  0.00    +0.000 HD
ENDROOT
BRANCH   1   9
ATOM      5  C   UNL     1      -1.319  11.509  22.725  0.00  0.00    +0.000 C 
ATOM      6  C   UNL     1      -0.556  11.856  21.440  0.00  0.00    +0.000 C 
ATOM      7  C   UNL     1      -0.052  13.304  21.506  0.00  0.00    +0.000 C 
ATOM      8  C   UNL     1       0.607  10.855  21.196  0.00  0.00    +0.000 C 
ATOM      9  C   UNL     1       0.770  10.719  19.666  0.00  0.00    +0.000 C 
ATOM     10  C   UNL     1      -0.635  10.976  19.204  0.00  0.00    +0.000 A 
ATOM     11  C   UNL     1      -1.183  10.712  17.956  0.00  0.00    +0.000 A 
ATOM     12  C   UNL     1      -2.501  11.100  17.709  0.00  0.00    +0.000 A 
ATOM     13  C   UNL     1      -3.245  11.760  18.696  0.00  0.00    +0.000 A 
ATOM     14  C   UNL     1      -2.687  12.036  19.945  0.00  0.00    +0.000 A 
ATOM     15  C   UNL     1      -1.380  11.636  20.190  0.00  0.00    +0.000 A 
ENDBRANCH   1   9
BRANCH   2  16
ATOM     16  C   UNL     1       2.704   7.865  18.047  0.00  0.00    +0.000 A 
ATOM     17  C   UNL     1       3.812   7.753  17.087  0.00  0.00    +0.000 A 
ATOM     18  C   UNL     1       4.442   6.582  17.043  0.00  0.00    +0.000 A 
ATOM     19  C   UNL     1       4.029   5.448  17.899  0.00  0.00    +0.000 A 
ATOM     20  O   UNL     1       4.694   4.419  17.797  0.00  0.00    +0.000 OA
ATOM     21  N   UNL     1       2.889   5.661  18.689  0.00  0.00    +0.000 N 
ATOM     22  N   UNL     1       2.242   6.895  18.775  0.00  0.00    +0.000 NA
BRANCH  21  23
ATOM     23  C   UNL     1       2.315   4.637  19.519  0.00  0.00    +0.000 A 
ATOM     24  C   UNL     1       2.632   4.510  20.880  0.00  0.00    +0.000 A 
ATOM     25  C   UNL     1       2.078   3.495  21.668  0.00  0.00    +0.000 A 
ATOM     26  C   UNL     1       1.203   2.573  21.104  0.00  0.00    +0.000 A 
ATOM     27  C   UNL     1       0.870   2.678  19.756  0.00  0.00    +0.000 A 
ATOM     28  C   UNL     1       1.410   3.708  18.975  0.00  0.00    +0.000 A 
ENDBRANCH  21  23
ENDBRANCH   2  16
TORSDOF 3
ENDMDL
MODEL 4
REMARK VINA RESULT:      -8.4      2.047      8.349
REMARK  Name = 
REMARK  5 active torsions:
REMARK  status: ('A' for Active; 'I' for Inactive)
REMARK    1  A    between atoms: C_1  and  C_2
REMARK    2  A    between atoms: C_2  and  C_3
REMARK    3  A    between atoms: C_5  and  N_6
REMARK    4  A    between atoms: C_7  and  C_9
REMARK    5  A    between atoms: N_14  and  C_15
REMARK                            x       y       z     vdW  Elec       q    Type
REMARK                         _______ _______ _______ _____ _____    ______ ____
ROOT
ATOM      1  N   UNL     1       1.848   7.841  19.500  0.00  0.00    +0.000 N 
ATOM      2  C   UNL     1       1.381   8.482  20.624  0.00  0.00    +0.000 C 
ATOM      3  O   UNL     1       1.650   8.175  21.774  0.00  0.00    +0.000 OA
ATOM      4  H   UNL     1       1.593   8.217  18.593  0.00  0.00    +0.000 HD
ENDROOT
BRANCH   1   9
ATOM      5  C   UNL     1       4.259   4.791  16.703  0.00  0.00    +0.000 C 
ATOM      6  C   UNL     1       4.108   5.180  18.180  0.00  0.00    +0.000 C 
ATOM      7  C   UNL     1       5.408   4.876  18.936  0.00  0.00    +0.000 C 
ATOM      8  C   UNL     1       3.698   6.671  18.323  0.00  0.00    +0.000 C 
ATOM      9  C   UNL     1       2.819   6.776  19.590  0.00  0.00    +0.000 C 
ATOM     10  C   UNL     1       2.199   5.410  19.622  0.00  0.00    +0.000 A 
ATOM     11  C   UNL     1       1.101   4.991  20.361  0.00  0.00    +0.000 A 
ATOM     12  C   UNL     1       0.729   3.646  20.302  0.00  0.00    +0.000 A 
ATOM     13  C   UNL     1       1.464   2.738  19.528  0.00  0.00    +0.000 A 
ATOM     14  C   UNL     1       2.576   3.160  18.797  0.00  0.00    +0.000 A 
ATOM     15  C   UNL     1       2.932   4.501  18.848  0.00  0.00    +0.000 A 
ENDBRANCH   1   9
BRANCH   2  16
ATOM     16  C   UNL     1       0.520   9.717  20.343  0.00  0.00    +0.000 A 
ATOM     17  C   UNL     1       0.818  10.896  21.170  0.00  0.00    +0.000 A 
ATOM     18  C   UNL     1       0.183  12.020  20.851  0.00  0.00    +0.000 A 
ATOM     19  C   UNL     1      -0.789  12.071  19.736  0.00  0.00    +0.000 A 
ATOM     20  O   UNL     1      -1.300  13.166  19.509  0.00  0.00    +0.000 OA
ATOM     21  N   UNL     1      -1.057  10.849  19.102  0.00  0.00    +0.000 N 
ATOM     22  N   UNL     1      -0.371   9.669  19.400  0.00  0.00    +0.000 NA
BRANCH  21  23
ATOM     23  C   UNL     1      -2.030  10.713  18.052  0.00  0.00    +0.000 A 
ATOM     24  C   UNL     1      -1.784   9.958  16.895  0.00  0.00    +0.000 A 
ATOM     25  C   UNL     1      -2.736   9.854  15.874  0.00  0.00    +0.000 A 
ATOM     26  C   UNL     1      -3.953  10.518  15.985  0.00  0.00    +0.000 A 
ATOM     27  C   UNL     1      -4.223  11.271  17.124  0.00  0.00    +0.000 A 
ATOM     28  C   UNL     1      -3.276  11.357  18.153  0.00  0.00    +0.000 A 
ENDBRANCH  21  23
ENDBRANCH   2  16
TORSDOF 3
ENDMDL
MODEL 5
REMARK VINA RESULT:      -8.3      2.082      8.845
REMARK  Name = 
REMARK  5 active torsions:
REMARK  status: ('A' for Active; 'I' for Inactive)
REMARK    1  A    between atoms: C_1  and  C_2
REMARK    2  A    between atoms: C_2  and  C_3
REMARK    3  A    between atoms: C_5  and  N_6
REMARK    4  A    between atoms: C_7  and  C_9
REMARK    5  A    between atoms: N_14  and  C_15
REMARK                            x       y       z     vdW  Elec       q    Type
REMARK                         _______ _______ _______ _____ _____    ______ ____
ROOT
ATOM      1  N   UNL     1       2.256   7.816  18.418  0.00  0.00    +0.000 N 
ATOM      2  C   UNL     1       1.685   8.312  19.567  0.00  0.00    +0.000 C 
ATOM      3  O   UNL     1       1.942   7.939  20.700  0.00  0.00    +0.000 OA
ATOM      4  H   UNL     1       1.996   8.238  17.533  0.00  0.00    +0.000 HD
ENDROOT
BRANCH   1   9
ATOM      5  C   UNL     1       5.368   5.597  15.531  0.00  0.00    +0.000 C 
ATOM      6  C   UNL     1       4.977   5.681  17.012  0.00  0.00    +0.000 C 
ATOM      7  C   UNL     1       6.192   5.362  17.893  0.00  0.00    +0.000 C 
ATOM      8  C   UNL     1       4.373   7.072  17.350  0.00  0.00    +0.000 C 
ATOM      9  C   UNL     1       3.328   6.850  18.467  0.00  0.00    +0.000 C 
ATOM     10  C   UNL     1       2.879   5.450  18.164  0.00  0.00    +0.000 A 
ATOM     11  C   UNL     1       1.751   4.796  18.642  0.00  0.00    +0.000 A 
ATOM     12  C   UNL     1       1.556   3.458  18.292  0.00  0.00    +0.000 A 
ATOM     13  C   UNL     1       2.492   2.789  17.491  0.00  0.00    +0.000 A 
ATOM     14  C   UNL     1       3.631   3.446  17.024  0.00  0.00    +0.000 A 
ATOM     15  C   UNL     1       3.813   4.779  17.364  0.00  0.00    +0.000 A 
ENDBRANCH   1   9
BRANCH   2  16
ATOM     16  C   UNL     1       0.711   9.473  19.345  0.00  0.00    +0.000 A 
ATOM     17  C   UNL     1       0.092   9.531  18.013  0.00  0.00    +0.000 A 
ATOM     18  C   UNL     1      -0.861  10.443  17.841  0.00  0.00    +0.000 A 
ATOM     19  C   UNL     1      -1.258  11.364  18.930  0.00  0.00    +0.000 A 
ATOM     20  O   UNL     1      -2.167  12.150  18.673  0.00  0.00    +0.000 OA
ATOM     21  N   UNL     1      -0.511  11.268  20.114  0.00  0.00    +0.000 N 
ATOM     22  N   UNL     1       0.465  10.292  20.322  0.00  0.00    +0.000 NA
BRANCH  21  23
ATOM     23  C   UNL     1      -0.720  12.139  21.238  0.00  0.00    +0.000 A 
ATOM     24  C   UNL     1      -1.601  11.817  22.283  0.00  0.00    +0.000 A 
ATOM     25  C   UNL     1      -1.806  12.687  23.359  0.00  0.00    +0.000 A 
ATOM     26  C   UNL     1      -1.143  13.908  23.406  0.00  0.00    +0.000 A 
ATOM     27  C   UNL     1      -0.263  14.252  22.384  0.00  0.00    +0.000 A 
ATOM     28  C   UNL     1      -0.044  13.369  21.318  0.00  0.00    +0.000 A 
ENDBRANCH  21  23
ENDBRANCH   2  16
TORSDOF 3
ENDMDL
MODEL 6
REMARK VINA RESULT:      -8.3      2.144      8.314
REMARK  Name = 
REMARK  5 active torsions:
REMARK  status: ('A' for Active; 'I' for Inactive)
REMARK    1  A    between atoms: C_1  and  C_2
REMARK    2  A    between atoms: C_2  and  C_3
REMARK    3  A    between atoms: C_5  and  N_6
REMARK    4  A    between atoms: C_7  and  C_9
REMARK    5  A    between atoms: N_14  and  C_15
REMARK                            x       y       z     vdW  Elec       q    Type
REMARK                         _______ _______ _______ _____ _____    ______ ____
ROOT
ATOM      1  N   UNL     1       1.583   7.976  19.689  0.00  0.00    +0.000 N 
ATOM      2  C   UNL     1       1.175   8.639  20.822  0.00  0.00    +0.000 C 
ATOM      3  O   UNL     1       1.576   8.416  21.953  0.00  0.00    +0.000 OA
ATOM      4  H   UNL     1       1.213   8.281  18.794  0.00  0.00    +0.000 HD
ENDROOT
BRANCH   1   9
ATOM      5  C   UNL     1       4.211   5.241  16.763  0.00  0.00    +0.000 C 
ATOM      6  C   UNL     1       4.043   5.562  18.254  0.00  0.00    +0.000 C 
ATOM      7  C   UNL     1       5.372   5.340  18.989  0.00  0.00    +0.000 C 
ATOM      8  C   UNL     1       3.511   7.008  18.455  0.00  0.00    +0.000 C 
ATOM      9  C   UNL     1       2.641   6.993  19.731  0.00  0.00    +0.000 C 
ATOM     10  C   UNL     1       2.136   5.579  19.717  0.00  0.00    +0.000 A 
ATOM     11  C   UNL     1       1.084   5.043  20.448  0.00  0.00    +0.000 A 
ATOM     12  C   UNL     1       0.825   3.675  20.341  0.00  0.00    +0.000 A 
ATOM     13  C   UNL     1       1.625   2.861  19.528  0.00  0.00    +0.000 A 
ATOM     14  C   UNL     1       2.690   3.401  18.806  0.00  0.00    +0.000 A 
ATOM     15  C   UNL     1       2.935   4.764  18.905  0.00  0.00    +0.000 A 
ENDBRANCH   1   9
BRANCH   2  16
ATOM     16  C   UNL     1       0.195   9.789  20.569  0.00  0.00    +0.000 A 
ATOM     17  C   UNL     1       0.237  10.881  21.554  0.00  0.00    +0.000 A 
ATOM     18  C   UNL     1      -0.501  11.953  21.281  0.00  0.00    +0.000 A 
ATOM     19  C   UNL     1      -1.337  12.029  20.063  0.00  0.00    +0.000 A 
ATOM     20  O   UNL     1      -1.960  13.075  19.894  0.00  0.00    +0.000 OA
ATOM     21  N   UNL     1      -1.366  10.874  19.267  0.00  0.00    +0.000 N 
ATOM     22  N   UNL     1      -0.567   9.756  19.519  0.00  0.00    +0.000 NA
BRANCH  21  23
ATOM     23  C   UNL     1      -2.185  10.758  18.091  0.00  0.00    +0.000 A 
ATOM     24  C   UNL     1      -3.423  11.408  17.974  0.00  0.00    +0.000 A 
ATOM     25  C   UNL     1      -4.216  11.266  16.829  0.00  0.00    +0.000 A 
ATOM     26  C   UNL     1      -3.791  10.457  15.781  0.00  0.00    +0.000 A 
ATOM     27  C   UNL     1      -2.566   9.802  15.872  0.00  0.00    +0.000 A 
ATOM     28  C   UNL     1      -1.765   9.962  17.010  0.00  0.00    +0.000 A 
ENDBRANCH  21  23
ENDBRANCH   2  16
TORSDOF 3
ENDMDL
MODEL 7
REMARK VINA RESULT:      -8.2      2.010      8.327
REMARK  Name = 
REMARK  5 active torsions:
REMARK  status: ('A' for Active; 'I' for Inactive)
REMARK    1  A    between atoms: C_1  and  C_2
REMARK    2  A    between atoms: C_2  and  C_3
REMARK    3  A    between atoms: C_5  and  N_6
REMARK    4  A    between atoms: C_7  and  C_9
REMARK    5  A    between atoms: N_14  and  C_15
REMARK                            x       y       z     vdW  Elec       q    Type
REMARK                         _______ _______ _______ _____ _____    ______ ____
ROOT
ATOM      1  N   UNL     1       2.158   8.005  18.859  0.00  0.00    +0.000 N 
ATOM      2  C   UNL     1       1.545   8.323  20.049  0.00  0.00    +0.000 C 
ATOM      3  O   UNL     1       1.755   7.775  21.119  0.00  0.00    +0.000 OA
ATOM      4  H   UNL     1       1.936   8.563  18.041  0.00  0.00    +0.000 HD
ENDROOT
BRANCH   1   9
ATOM      5  C   UNL     1       5.169   6.013  15.712  0.00  0.00    +0.000 C 
ATOM      6  C   UNL     1       4.818   5.974  17.205  0.00  0.00    +0.000 C 
ATOM      7  C   UNL     1       6.052   5.571  18.023  0.00  0.00    +0.000 C 
ATOM      8  C   UNL     1       4.238   7.337  17.676  0.00  0.00    +0.000 C 
ATOM      9  C   UNL     1       3.221   7.030  18.797  0.00  0.00    +0.000 C 
ATOM     10  C   UNL     1       2.748   5.664  18.389  0.00  0.00    +0.000 A 
ATOM     11  C   UNL     1       1.626   4.982  18.840  0.00  0.00    +0.000 A 
ATOM     12  C   UNL     1       1.407   3.680  18.383  0.00  0.00    +0.000 A 
ATOM     13  C   UNL     1       2.315   3.073  17.504  0.00  0.00    +0.000 A 
ATOM     14  C   UNL     1       3.449   3.757  17.064  0.00  0.00    +0.000 A 
ATOM     15  C   UNL     1       3.654   5.056  17.510  0.00  0.00    +0.000 A 
ENDBRANCH   1   9
BRANCH   2  16
ATOM     16  C   UNL     1       0.589   9.518  19.975  0.00  0.00    +0.000 A 
ATOM     17  C   UNL     1       0.809  10.565  20.983  0.00  0.00    +0.000 A 
ATOM     18  C   UNL     1       0.086  11.674  20.853  0.00  0.00    +0.000 A 
ATOM     19  C   UNL     1      -0.902  11.832  19.763  0.00  0.00    +0.000 A 
ATOM     20  O   UNL     1      -1.498  12.906  19.719  0.00  0.00    +0.000 OA
ATOM     21  N   UNL     1      -1.086  10.712  18.937  0.00  0.00    +0.000 N 
ATOM     22  N   UNL     1      -0.309   9.556  19.038  0.00  0.00    +0.000 NA
BRANCH  21  23
ATOM     23  C   UNL     1      -2.060  10.675  17.881  0.00  0.00    +0.000 A 
ATOM     24  C   UNL     1      -1.881   9.902  16.723  0.00  0.00    +0.000 A 
ATOM     25  C   UNL     1      -2.832   9.895  15.696  0.00  0.00    +0.000 A 
ATOM     26  C   UNL     1      -3.979  10.674  15.800  0.00  0.00    +0.000 A 
ATOM     27  C   UNL     1      -4.181  11.449  16.939  0.00  0.00    +0.000 A 
ATOM     28  C   UNL     1      -3.237  11.438  17.975  0.00  0.00    +0.000 A 
ENDBRANCH  21  23
ENDBRANCH   2  16
TORSDOF 3
ENDMDL
MODEL 8
REMARK VINA RESULT:      -8.2      2.173      9.022
REMARK  Name = 
REMARK  5 active torsions:
REMARK  status: ('A' for Active; 'I' for Inactive)
REMARK    1  A    between atoms: C_1  and  C_2
REMARK    2  A    between atoms: C_2  and  C_3
REMARK    3  A    between atoms: C_5  and  N_6
REMARK    4  A    between atoms: C_7  and  C_9
REMARK    5  A    between atoms: N_14  and  C_15
REMARK                            x       y       z     vdW  Elec       q    Type
REMARK                         _______ _______ _______ _____ _____    ______ ____
ROOT
ATOM      1  N   UNL     1       1.931   7.621  19.321  0.00  0.00    +0.000 N 
ATOM      2  C   UNL     1       1.480   8.362  20.388  0.00  0.00    +0.000 C 
ATOM      3  O   UNL     1       1.779   8.171  21.556  0.00  0.00    +0.000 OA
ATOM      4  H   UNL     1       1.649   7.903  18.388  0.00  0.00    +0.000 HD
ENDROOT
BRANCH   1   9
ATOM      5  C   UNL     1       4.370   4.386  16.766  0.00  0.00    +0.000 C 
ATOM      6  C   UNL     1       4.224   4.894  18.206  0.00  0.00    +0.000 C 
ATOM      7  C   UNL     1       5.535   4.674  18.974  0.00  0.00    +0.000 C 
ATOM      8  C   UNL     1       3.790   6.386  18.228  0.00  0.00    +0.000 C 
ATOM      9  C   UNL     1       2.920   6.582  19.490  0.00  0.00    +0.000 C 
ATOM     10  C   UNL     1       2.322   5.213  19.641  0.00  0.00    +0.000 A 
ATOM     11  C   UNL     1       1.236   4.840  20.422  0.00  0.00    +0.000 A 
ATOM     12  C   UNL     1       0.886   3.489  20.478  0.00  0.00    +0.000 A 
ATOM     13  C   UNL     1       1.630   2.532  19.775  0.00  0.00    +0.000 A 
ATOM     14  C   UNL     1       2.729   2.909  19.002  0.00  0.00    +0.000 A 
ATOM     15  C   UNL     1       3.064   4.255  18.939  0.00  0.00    +0.000 A 
ENDBRANCH   1   9
BRANCH   2  16
ATOM     16  C   UNL     1       0.593   9.552  20.009  0.00  0.00    +0.000 A 
ATOM     17  C   UNL     1       0.216   9.630  18.590  0.00  0.00    +0.000 A 
ATOM     18  C   UNL     1      -0.666  10.571  18.262  0.00  0.00    +0.000 A 
ATOM     19  C   UNL     1      -1.217  11.502  19.272  0.00  0.00    +0.000 A 
ATOM     20  O   UNL     1      -2.044  12.316  18.867  0.00  0.00    +0.000 OA
ATOM     21  N   UNL     1      -0.689  11.383  20.566  0.00  0.00    +0.000 N 
ATOM     22  N   UNL     1       0.208  10.377  20.934  0.00  0.00    +0.000 NA
BRANCH  21  23
ATOM     23  C   UNL     1      -1.062  12.259  21.643  0.00  0.00    +0.000 A 
ATOM     24  C   UNL     1      -2.186  12.020  22.449  0.00  0.00    +0.000 A 
ATOM     25  C   UNL     1      -2.545  12.895  23.480  0.00  0.00    +0.000 A 
ATOM     26  C   UNL     1      -1.793  14.040  23.717  0.00  0.00    +0.000 A 
ATOM     27  C   UNL     1      -0.672  14.300  22.934  0.00  0.00    +0.000 A 
ATOM     28  C   UNL     1      -0.303  13.411  21.916  0.00  0.00    +0.000 A 
ENDBRANCH  21  23
ENDBRANCH   2  16
TORSDOF 3
ENDMDL
MODEL 9
REMARK VINA RESULT:      -8.1      1.683      2.482
REMARK  Name = 
REMARK  5 active torsions:
REMARK  status: ('A' for Active; 'I' for Inactive)
REMARK    1  A    between atoms: C_1  and  C_2
REMARK    2  A    between atoms: C_2  and  C_3
REMARK    3  A    between atoms: C_5  and  N_6
REMARK    4  A    between atoms: C_7  and  C_9
REMARK    5  A    between atoms: N_14  and  C_15
REMARK                            x       y       z     vdW  Elec       q    Type
REMARK                         _______ _______ _______ _____ _____    ______ ____
ROOT
ATOM      1  N   UNL     1       1.081   9.291  19.520  0.00  0.00    +0.000 N 
ATOM      2  C   UNL     1       1.806   8.684  18.521  0.00  0.00    +0.000 C 
ATOM      3  O   UNL     1       2.002   9.148  17.409  0.00  0.00    +0.000 OA
ATOM      4  H   UNL     1       1.026   8.829  20.421  0.00  0.00    +0.000 HD
ENDROOT
BRANCH   1   9
ATOM      5  C   UNL     1       2.424  13.860  20.033  0.00  0.00    +0.000 C 
ATOM      6  C   UNL     1       1.214  13.021  19.602  0.00  0.00    +0.000 C 
ATOM      7  C   UNL     1       0.361  13.811  18.600  0.00  0.00    +0.000 C 
ATOM      8  C   UNL     1       1.666  11.654  19.017  0.00  0.00    +0.000 C 
ATOM      9  C   UNL     1       0.562  10.630  19.366  0.00  0.00    +0.000 C 
ATOM     10  C   UNL     1       0.027  11.209  20.644  0.00  0.00    +0.000 A 
ATOM     11  C   UNL     1      -0.783  10.589  21.585  0.00  0.00    +0.000 A 
ATOM     12  C   UNL     1      -1.232  11.336  22.676  0.00  0.00    +0.000 A 
ATOM     13  C   UNL     1      -0.886  12.689  22.803  0.00  0.00    +0.000 A 
ATOM     14  C   UNL     1      -0.083  13.312  21.847  0.00  0.00    +0.000 A 
ATOM     15  C   UNL     1       0.372  12.561  20.772  0.00  0.00    +0.000 A 
ENDBRANCH   1   9
BRANCH   2  16
ATOM     16  C   UNL     1       2.455   7.356  18.921  0.00  0.00    +0.000 A 
ATOM     17  C   UNL     1       1.881   6.707  20.110  0.00  0.00    +0.000 A 
ATOM     18  C   UNL     1       2.331   5.487  20.395  0.00  0.00    +0.000 A 
ATOM     19  C   UNL     1       3.371   4.833  19.570  0.00  0.00    +0.000 A 
ATOM     20  O   UNL     1       3.697   3.697  19.905  0.00  0.00    +0.000 OA
ATOM     21  N   UNL     1       3.906   5.609  18.530  0.00  0.00    +0.000 N 
ATOM     22  N   UNL     1       3.418   6.875  18.196  0.00  0.00    +0.000 NA
BRANCH  21  23
ATOM     23  C   UNL     1       4.974   5.150  17.685  0.00  0.00    +0.000 A 
ATOM     24  C   UNL     1       6.320   5.217  18.076  0.00  0.00    +0.000 A 
ATOM     25  C   UNL     1       7.348   4.783  17.231  0.00  0.00    +0.000 A 
ATOM     26  C   UNL     1       7.050   4.284  15.967  0.00  0.00    +0.000 A 
ATOM     27  C   UNL     1       5.722   4.205  15.557  0.00  0.00    +0.000 A 
ATOM     28  C   UNL     1       4.694   4.621  16.413  0.00  0.00    +0.000 A 
ENDBRANCH  21  23
ENDBRANCH   2  16
TORSDOF 3
ENDMDL
