MODEL 1
REMARK VINA RESULT:      -8.1      0.000      0.000
REMARK  Name = 
REMARK  5 active torsions:
REMARK  status: ('A' for Active; 'I' for Inactive)
REMARK    1  A    between atoms: C_1  and  C_2
REMARK    2  A    between atoms: C_8  and  N_9
REMARK    3  A    between atoms: C_12  and  C_13
REMARK    4  A    between atoms: C_24  and  C_25
REMARK    5  A    between atoms: C_25  and  O_26
REMARK                            x       y       z     vdW  Elec       q    Type
REMARK                         _______ _______ _______ _____ _____    ______ ____
ROOT
ATOM      1  C   UNL     1       0.691  10.545  19.508  0.00  0.00    +0.000 C 
ATOM      2  O   UNL     1       1.099  11.209  20.464  0.00  0.00    +0.000 OA
ATOM      3  N   UNL     1      -0.512  10.893  18.861  0.00  0.00    +0.000 N 
ATOM      4  C   UNL     1      -1.198  10.055  17.863  0.00  0.00    +0.000 C 
ATOM      5  C   UNL     1      -2.281  10.778  17.061  0.00  0.00    +0.000 C 
ATOM      6  C   UNL     1      -3.239  11.446  18.000  0.00  0.00    +0.000 A 
ATOM      7  C   UNL     1      -4.612  11.482  17.745  0.00  0.00    +0.000 A 
ATOM      8  C   UNL     1      -5.470  12.091  18.658  0.00  0.00    +0.000 A 
ATOM      9  C   UNL     1      -4.961  12.669  19.820  0.00  0.00    +0.000 A 
ATOM     10  C   UNL     1      -3.586  12.658  20.065  0.00  0.00    +0.000 A 
ATOM     11  C   UNL     1      -2.713  12.057  19.150  0.00  0.00    +0.000 A 
ATOM     12  C   UNL     1      -1.205  12.101  19.355  0.00  0.00    +0.000 C 
ENDROOT
BRANCH   1  16
ATOM     13  N   UNL     1       2.300   7.390  19.007  0.00  0.00    +0.000 N 
ATOM     14  C   UNL     1       2.691   7.978  17.824  0.00  0.00    +0.000 A 
ATOM     15  C   UNL     1       2.136   9.237  17.804  0.00  0.00    +0.000 A 
ATOM     16  C   UNL     1       1.471   9.377  19.048  0.00  0.00    +0.000 A 
ATOM     17  N   UNL     1       1.551   8.234  19.740  0.00  0.00    +0.000 NA
BRANCH  13  25
ATOM     18  C   UNL     1       4.718   5.892  17.981  0.00  0.00    +0.000 C 
ATOM     19  C   UNL     1       3.746   5.365  19.007  0.00  0.00    +0.000 A 
ATOM     20  C   UNL     1       3.991   4.080  19.524  0.00  0.00    +0.000 A 
ATOM     21  C   UNL     1       3.162   3.539  20.499  0.00  0.00    +0.000 A 
ATOM     22  F   UNL     1       3.422   2.316  20.978  0.00  0.00    +0.000 F 
ATOM     23  C   UNL     1       2.074   4.248  20.984  0.00  0.00    +0.000 A 
ATOM     24  C   UNL     1       1.809   5.526  20.494  0.00  0.00    +0.000 A 
ATOM     25  C   UNL     1       2.633   6.093  19.501  0.00  0.00    +0.000 A 
ENDBRANCH  13  25
ENDBRANCH   1  16
BRANCH  12  26
ATOM     26  C   UNL     1      -0.615  13.376  18.689  0.00  0.00    +0.000 C 
BRANCH  26  27
ATOM     27  O   UNL     1       0.367  14.042  19.483  0.00  0.00    +0.000 OA
ATOM     28  H   UNL     1       1.204  13.539  19.415  0.00  0.00    +0.000 HD
ENDBRANCH  26  27
ENDBRANCH  12  26
TORSDOF 4
ENDMDL
MODEL 2
REMARK VINA RESULT:      -8.1      3.553      7.979
REMARK  Name = 
REMARK  5 active torsions:
REMARK  status: ('A' for Active; 'I' for Inactive)
REMARK    1  A    between atoms: C_1  and  C_2
REMARK    2  A    between atoms: C_8  and  N_9
REMARK    3  A    between atoms: C_12  and  C_13
REMARK    4  A    between atoms: C_24  and  C_25
REMARK    5  A    between atoms: C_25  and  O_26
REMARK                            x       y       z     vdW  Elec       q    Type
REMARK                         _______ _______ _______ _____ _____    ______ ____
ROOT
ATOM      1  C   UNL     1       2.416   8.252  17.976  0.00  0.00    +0.000 C 
ATOM      2  O   UNL     1       2.918   8.308  16.850  0.00  0.00    +0.000 OA
ATOM      3  N   UNL     1       2.416   7.042  18.695  0.00  0.00    +0.000 N 
ATOM      4  C   UNL     1       1.663   6.807  19.939  0.00  0.00    +0.000 C 
ATOM      5  C   UNL     1       2.080   5.555  20.711  0.00  0.00    +0.000 C 
ATOM      6  C   UNL     1       2.051   4.369  19.795  0.00  0.00    +0.000 A 
ATOM      7  C   UNL     1       1.608   3.117  20.229  0.00  0.00    +0.000 A 
ATOM      8  C   UNL     1       1.573   2.047  19.338  0.00  0.00    +0.000 A 
ATOM      9  C   UNL     1       1.984   2.222  18.018  0.00  0.00    +0.000 A 
ATOM     10  C   UNL     1       2.454   3.465  17.588  0.00  0.00    +0.000 A 
ATOM     11  C   UNL     1       2.502   4.546  18.477  0.00  0.00    +0.000 A 
ATOM     12  C   UNL     1       3.082   5.888  18.055  0.00  0.00    +0.000 C 
ENDROOT
BRANCH   1  16
ATOM     13  N   UNL     1       0.680  10.713  19.905  0.00  0.00    +0.000 N 
ATOM     14  C   UNL     1       1.299  11.579  19.030  0.00  0.00    +0.000 A 
ATOM     15  C   UNL     1       2.066  10.809  18.186  0.00  0.00    +0.000 A 
ATOM     16  C   UNL     1       1.811   9.466  18.562  0.00  0.00    +0.000 A 
ATOM     17  N   UNL     1       1.002   9.436  19.628  0.00  0.00    +0.000 NA
BRANCH  13  25
ATOM     18  C   UNL     1       0.831   9.312  22.580  0.00  0.00    +0.000 C 
ATOM     19  C   UNL     1      -0.194  10.353  22.206  0.00  0.00    +0.000 A 
ATOM     20  C   UNL     1      -1.147  10.697  23.182  0.00  0.00    +0.000 A 
ATOM     21  C   UNL     1      -2.102  11.674  22.928  0.00  0.00    +0.000 A 
ATOM     22  F   UNL     1      -2.993  11.985  23.877  0.00  0.00    +0.000 F 
ATOM     23  C   UNL     1      -2.143  12.331  21.708  0.00  0.00    +0.000 A 
ATOM     24  C   UNL     1      -1.207  12.016  20.723  0.00  0.00    +0.000 A 
ATOM     25  C   UNL     1      -0.233  11.024  20.957  0.00  0.00    +0.000 A 
ENDBRANCH  13  25
ENDBRANCH   1  16
BRANCH  12  26
ATOM     26  C   UNL     1       4.610   5.919  18.337  0.00  0.00    +0.000 C 
BRANCH  26  27
ATOM     27  O   UNL     1       5.381   6.507  17.288  0.00  0.00    +0.000 OA
ATOM     28  H   UNL     1       5.000   7.384  17.087  0.00  0.00    +0.000 HD
ENDBRANCH  26  27
ENDBRANCH  12  26
TORSDOF 4
ENDMDL
MODEL 3
REMARK VINA RESULT:      -8.0      2.864      4.299
REMARK  Name = 
REMARK  5 active torsions:
REMARK  status: ('A' for Active; 'I' for Inactive)
REMARK    1  A    between atoms: C_1  and  C_2
REMARK    2  A    between atoms: C_8  and  N_9
REMARK    3  A    between atoms: C_12  and  C_13
REMARK    4  A    between atoms: C_24  and  C_25
REMARK    5  A    between atoms: C_25  and  O_26
REMARK                            x       y       z     vdW  Elec       q    Type
REMARK                         _______ _______ _______ _____ _____    ______ ____
ROOT
ATOM      1  C   UNL     1       1.681   9.069  18.446  0.00  0.00    +0.000 C 
ATOM      2  O   UNL     1       1.756   9.845  17.490  0.00  0.00    +0.000 OA
ATOM      3  N   UNL     1       0.809   9.344  19.518  0.00  0.00    +0.000 N 
ATOM      4  C   UNL     1       0.797   8.611  20.796  0.00  0.00    +0.000 C 
ATOM      5  C   UNL     1      -0.441   8.856  21.659  0.00  0.00    +0.000 C 
ATOM      6  C   UNL     1      -0.639  10.330  21.845  0.00  0.00    +0.000 A 
ATOM      7  C   UNL     1      -1.074  10.864  23.061  0.00  0.00    +0.000 A 
ATOM      8  C   UNL     1      -1.220  12.243  23.199  0.00  0.00    +0.000 A 
ATOM      9  C   UNL     1      -0.939  13.087  22.126  0.00  0.00    +0.000 A 
ATOM     10  C   UNL     1      -0.532  12.554  20.901  0.00  0.00    +0.000 A 
ATOM     11  C   UNL     1      -0.390  11.169  20.748  0.00  0.00    +0.000 A 
ATOM     12  C   UNL     1      -0.024  10.560  19.403  0.00  0.00    +0.000 C 
ENDROOT
BRANCH   1  16
ATOM     13  N   UNL     1       3.960   6.382  17.831  0.00  0.00    +0.000 N 
ATOM     14  C   UNL     1       3.561   5.991  19.090  0.00  0.00    +0.000 A 
ATOM     15  C   UNL     1       2.667   6.938  19.536  0.00  0.00    +0.000 A 
ATOM     16  C   UNL     1       2.516   7.850  18.461  0.00  0.00    +0.000 A 
ATOM     17  N   UNL     1       3.337   7.515  17.458  0.00  0.00    +0.000 NA
BRANCH  13  25
ATOM     18  C   UNL     1       6.798   7.360  17.464  0.00  0.00    +0.000 C 
ATOM     19  C   UNL     1       6.187   6.187  16.739  0.00  0.00    +0.000 A 
ATOM     20  C   UNL     1       7.007   5.497  15.828  0.00  0.00    +0.000 A 
ATOM     21  C   UNL     1       6.530   4.383  15.148  0.00  0.00    +0.000 A 
ATOM     22  F   UNL     1       7.334   3.742  14.291  0.00  0.00    +0.000 F 
ATOM     23  C   UNL     1       5.237   3.926  15.347  0.00  0.00    +0.000 A 
ATOM     24  C   UNL     1       4.402   4.586  16.248  0.00  0.00    +0.000 A 
ATOM     25  C   UNL     1       4.864   5.721  16.946  0.00  0.00    +0.000 A 
ENDBRANCH  13  25
ENDBRANCH   1  16
BRANCH  12  26
ATOM     26  C   UNL     1      -1.311  10.260  18.586  0.00  0.00    +0.000 C 
BRANCH  26  27
ATOM     27  O   UNL     1      -1.138  10.361  17.172  0.00  0.00    +0.000 OA
ATOM     28  H   UNL     1      -0.258   9.998  16.948  0.00  0.00    +0.000 HD
ENDBRANCH  26  27
ENDBRANCH  12  26
TORSDOF 4
ENDMDL
MODEL 4
REMARK VINA RESULT:      -7.9      2.713      4.122
REMARK  Name = 
REMARK  5 active torsions:
REMARK  status: ('A' for Active; 'I' for Inactive)
REMARK    1  A    between atoms: C_1  and  C_2
REMARK    2  A    between atoms: C_8  and  N_9
REMARK    3  A    between atoms: C_12  and  C_13
REMARK    4  A    between atoms: C_24  and  C_25
REMARK    5  A    between atoms: C_25  and  O_26
REMARK                            x       y       z     vdW  Elec       q    Type
REMARK                         _______ _______ _______ _____ _____    ______ ____
ROOT
ATOM      1  C   UNL     1       1.464   9.247  18.554  0.00  0.00    +0.000 C 
ATOM      2  O   UNL     1       1.543   9.950  17.543  0.00  0.00    +0.000 OA
ATOM      3  N   UNL     1       0.623   9.625  19.619  0.00  0.00    +0.000 N 
ATOM      4  C   UNL     1       0.615   8.987  20.947  0.00  0.00    +0.000 C 
ATOM      5  C   UNL     1      -0.597   9.331  21.812  0.00  0.00    +0.000 C 
ATOM      6  C   UNL     1      -0.748  10.820  21.895  0.00  0.00    +0.000 A 
ATOM      7  C   UNL     1      -1.141  11.454  23.077  0.00  0.00    +0.000 A 
ATOM      8  C   UNL     1      -1.243  12.843  23.117  0.00  0.00    +0.000 A 
ATOM      9  C   UNL     1      -0.960  13.599  21.980  0.00  0.00    +0.000 A 
ATOM     10  C   UNL     1      -0.594  12.967  20.790  0.00  0.00    +0.000 A 
ATOM     11  C   UNL     1      -0.496  11.571  20.735  0.00  0.00    +0.000 A 
ATOM     12  C   UNL     1      -0.176  10.855  19.431  0.00  0.00    +0.000 C 
ENDROOT
BRANCH   1  16
ATOM     13  N   UNL     1       3.712   6.497  18.136  0.00  0.00    +0.000 N 
ATOM     14  C   UNL     1       3.206   6.127  19.362  0.00  0.00    +0.000 A 
ATOM     15  C   UNL     1       2.306   7.101  19.731  0.00  0.00    +0.000 A 
ATOM     16  C   UNL     1       2.263   8.007  18.642  0.00  0.00    +0.000 A 
ATOM     17  N   UNL     1       3.150   7.642  17.708  0.00  0.00    +0.000 NA
BRANCH  13  25
ATOM     18  C   UNL     1       3.164   3.709  17.103  0.00  0.00    +0.000 C 
ATOM     19  C   UNL     1       4.434   4.486  16.863  0.00  0.00    +0.000 A 
ATOM     20  C   UNL     1       5.434   3.861  16.095  0.00  0.00    +0.000 A 
ATOM     21  C   UNL     1       6.619   4.524  15.799  0.00  0.00    +0.000 A 
ATOM     22  F   UNL     1       7.550   3.907  15.062  0.00  0.00    +0.000 F 
ATOM     23  C   UNL     1       6.846   5.814  16.252  0.00  0.00    +0.000 A 
ATOM     24  C   UNL     1       5.871   6.462  17.011  0.00  0.00    +0.000 A 
ATOM     25  C   UNL     1       4.664   5.806  17.328  0.00  0.00    +0.000 A 
ENDBRANCH  13  25
ENDBRANCH   1  16
BRANCH  12  26
ATOM     26  C   UNL     1      -1.488  10.537  18.662  0.00  0.00    +0.000 C 
BRANCH  26  27
ATOM     27  O   UNL     1      -1.415  10.796  17.259  0.00  0.00    +0.000 OA
ATOM     28  H   UNL     1      -2.329  10.864  16.916  0.00  0.00    +0.000 HD
ENDBRANCH  26  27
ENDBRANCH  12  26
TORSDOF 4
ENDMDL
MODEL 5
REMARK VINA RESULT:      -7.9      3.360      8.061
REMARK  Name = 
REMARK  5 active torsions:
REMARK  status: ('A' for Active; 'I' for Inactive)
REMARK    1  A    between atoms: C_1  and  C_2
REMARK    2  A    between atoms: C_8  and  N_9
REMARK    3  A    between atoms: C_12  and  C_13
REMARK    4  A    between atoms: C_24  and  C_25
REMARK    5  A    between atoms: C_25  and  O_26
REMARK                            x       y       z     vdW  Elec       q    Type
REMARK                         _______ _______ _______ _____ _____    ______ ____
ROOT
ATOM      1  C   UNL     1       2.321   8.376  17.985  0.00  0.00    +0.000 C 
ATOM      2  O   UNL     1       2.750   8.411  16.829  0.00  0.00    +0.000 OA
ATOM      3  N   UNL     1       2.358   7.176  18.721  0.00  0.00    +0.000 N 
ATOM      4  C   UNL     1       1.684   6.966  20.014  0.00  0.00    +0.000 C 
ATOM      5  C   UNL     1       2.141   5.722  20.776  0.00  0.00    +0.000 C 
ATOM      6  C   UNL     1       2.046   4.523  19.882  0.00  0.00    +0.000 A 
ATOM      7  C   UNL     1       1.623   3.280  20.362  0.00  0.00    +0.000 A 
ATOM      8  C   UNL     1       1.524   2.198  19.491  0.00  0.00    +0.000 A 
ATOM      9  C   UNL     1       1.853   2.351  18.145  0.00  0.00    +0.000 A 
ATOM     10  C   UNL     1       2.302   3.583  17.668  0.00  0.00    +0.000 A 
ATOM     11  C   UNL     1       2.414   4.677  18.536  0.00  0.00    +0.000 A 
ATOM     12  C   UNL     1       2.975   6.008  18.057  0.00  0.00    +0.000 C 
ENDROOT
BRANCH   1  16
ATOM     13  N   UNL     1       0.609  10.866  19.899  0.00  0.00    +0.000 N 
ATOM     14  C   UNL     1       1.383  11.722  19.147  0.00  0.00    +0.000 A 
ATOM     15  C   UNL     1       2.165  10.937  18.330  0.00  0.00    +0.000 A 
ATOM     16  C   UNL     1       1.762   9.603  18.590  0.00  0.00    +0.000 A 
ATOM     17  N   UNL     1       0.850   9.584  19.570  0.00  0.00    +0.000 NA
BRANCH  13  25
ATOM     18  C   UNL     1      -1.748  12.635  19.222  0.00  0.00    +0.000 C 
ATOM     19  C   UNL     1      -1.470  12.049  20.583  0.00  0.00    +0.000 A 
ATOM     20  C   UNL     1      -2.382  12.349  21.611  0.00  0.00    +0.000 A 
ATOM     21  C   UNL     1      -2.216  11.819  22.884  0.00  0.00    +0.000 A 
ATOM     22  F   UNL     1      -3.103  12.117  23.841  0.00  0.00    +0.000 F 
ATOM     23  C   UNL     1      -1.149  10.984  23.175  0.00  0.00    +0.000 A 
ATOM     24  C   UNL     1      -0.230  10.664  22.175  0.00  0.00    +0.000 A 
ATOM     25  C   UNL     1      -0.376  11.195  20.878  0.00  0.00    +0.000 A 
ENDBRANCH  13  25
ENDBRANCH   1  16
BRANCH  12  26
ATOM     26  C   UNL     1       4.518   6.032  18.241  0.00  0.00    +0.000 C 
BRANCH  26  27
ATOM     27  O   UNL     1       5.225   6.587  17.132  0.00  0.00    +0.000 OA
ATOM     28  H   UNL     1       4.572   6.998  16.530  0.00  0.00    +0.000 HD
ENDBRANCH  26  27
ENDBRANCH  12  26
TORSDOF 4
ENDMDL
MODEL 6
REMARK VINA RESULT:      -7.8      2.364      3.591
REMARK  Name = 
REMARK  5 active torsions:
REMARK  status: ('A' for Active; 'I' for Inactive)
REMARK    1  A    between atoms: C_1  and  C_2
REMARK    2  A    between atoms: C_8  and  N_9
REMARK    3  A    between atoms: C_12  and  C_13
REMARK    4  A    between atoms: C_24  and  C_25
REMARK    5  A    between atoms: C_25  and  O_26
REMARK                            x       y       z     vdW  Elec       q    Type
REMARK                         _______ _______ _______ _____ _____    ______ ____
ROOT
ATOM      1  C   UNL     1       1.829   9.146  18.163  0.00  0.00    +0.000 C 
ATOM      2  O   UNL     1       1.815   9.986  17.259  0.00  0.00    +0.000 OA
ATOM      3  N   UNL     1       0.984   9.288  19.280  0.00  0.00    +0.000 N 
ATOM      4  C   UNL     1       1.071   8.474  20.505  0.00  0.00    +0.000 C 
ATOM      5  C   UNL     1      -0.146   8.575  21.424  0.00  0.00    +0.000 C 
ATOM      6  C   UNL     1      -0.437  10.015  21.717  0.00  0.00    +0.000 A 
ATOM      7  C   UNL     1      -0.859  10.437  22.981  0.00  0.00    +0.000 A 
ATOM      8  C   UNL     1      -1.092  11.790  23.217  0.00  0.00    +0.000 A 
ATOM      9  C   UNL     1      -0.912  12.721  22.195  0.00  0.00    +0.000 A 
ATOM     10  C   UNL     1      -0.517  12.299  20.924  0.00  0.00    +0.000 A 
ATOM     11  C   UNL     1      -0.288  10.940  20.671  0.00  0.00    +0.000 A 
ATOM     12  C   UNL     1       0.066  10.448  19.276  0.00  0.00    +0.000 C 
ENDROOT
BRANCH   1  16
ATOM     13  N   UNL     1       3.431   5.949  18.080  0.00  0.00    +0.000 N 
ATOM     14  C   UNL     1       4.513   6.700  17.675  0.00  0.00    +0.000 A 
ATOM     15  C   UNL     1       4.088   8.008  17.614  0.00  0.00    +0.000 A 
ATOM     16  C   UNL     1       2.745   7.990  18.066  0.00  0.00    +0.000 A 
ATOM     17  N   UNL     1       2.359   6.731  18.303  0.00  0.00    +0.000 NA
BRANCH  13  25
ATOM     18  C   UNL     1       2.421   4.830  20.701  0.00  0.00    +0.000 C 
ATOM     19  C   UNL     1       2.928   4.003  19.546  0.00  0.00    +0.000 A 
ATOM     20  C   UNL     1       2.924   2.605  19.705  0.00  0.00    +0.000 A 
ATOM     21  C   UNL     1       3.342   1.773  18.673  0.00  0.00    +0.000 A 
ATOM     22  F   UNL     1       3.321   0.446  18.851  0.00  0.00    +0.000 F 
ATOM     23  C   UNL     1       3.774   2.297  17.465  0.00  0.00    +0.000 A 
ATOM     24  C   UNL     1       3.784   3.679  17.276  0.00  0.00    +0.000 A 
ATOM     25  C   UNL     1       3.370   4.542  18.311  0.00  0.00    +0.000 A 
ENDBRANCH  13  25
ENDBRANCH   1  16
BRANCH  12  26
ATOM     26  C   UNL     1      -1.229  10.112  18.485  0.00  0.00    +0.000 C 
BRANCH  26  27
ATOM     27  O   UNL     1      -1.252  10.642  17.160  0.00  0.00    +0.000 OA
ATOM     28  H   UNL     1      -1.486  11.590  17.216  0.00  0.00    +0.000 HD
ENDBRANCH  26  27
ENDBRANCH  12  26
TORSDOF 4
ENDMDL
MODEL 7
REMARK VINA RESULT:      -7.7      1.769      2.484
REMARK  Name = 
REMARK  5 active torsions:
REMARK  status: ('A' for Active; 'I' for Inactive)
REMARK    1  A    between atoms: C_1  and  C_2
REMARK    2  A    between atoms: C_8  and  N_9
REMARK    3  A    between atoms: C_12  and  C_13
REMARK    4  A    between atoms: C_24  and  C_25
REMARK    5  A    between atoms: C_25  and  O_26
REMARK                            x       y       z     vdW  Elec       q    Type
REMARK                         _______ _______ _______ _____ _____    ______ ____
ROOT
ATOM      1  C   UNL     1       0.491  10.228  20.237  0.00  0.00    +0.000 C 
ATOM      2  O   UNL     1       0.946  11.054  21.033  0.00  0.00    +0.000 OA
ATOM      3  N   UNL     1      -0.634  10.543  19.451  0.00  0.00    +0.000 N 
ATOM      4  C   UNL     1      -1.385   9.572  18.637  0.00  0.00    +0.000 C 
ATOM      5  C   UNL     1      -2.339  10.196  17.619  0.00  0.00    +0.000 C 
ATOM      6  C   UNL     1      -3.238  11.177  18.309  0.00  0.00    +0.000 A 
ATOM      7  C   UNL     1      -4.586  11.306  17.965  0.00  0.00    +0.000 A 
ATOM      8  C   UNL     1      -5.393  12.212  18.650  0.00  0.00    +0.000 A 
ATOM      9  C   UNL     1      -4.856  12.992  19.673  0.00  0.00    +0.000 A 
ATOM     10  C   UNL     1      -3.503  12.885  20.001  0.00  0.00    +0.000 A 
ATOM     11  C   UNL     1      -2.680  11.984  19.313  0.00  0.00    +0.000 A 
ATOM     12  C   UNL     1      -1.188  11.906  19.598  0.00  0.00    +0.000 C 
ENDROOT
BRANCH   1  16
ATOM     13  N   UNL     1       2.316   7.296  19.307  0.00  0.00    +0.000 N 
ATOM     14  C   UNL     1       1.912   6.865  20.552  0.00  0.00    +0.000 A 
ATOM     15  C   UNL     1       1.189   7.894  21.113  0.00  0.00    +0.000 A 
ATOM     16  C   UNL     1       1.134   8.903  20.118  0.00  0.00    +0.000 A 
ATOM     17  N   UNL     1       1.855   8.534  19.053  0.00  0.00    +0.000 NA
BRANCH  13  25
ATOM     18  C   UNL     1       1.781   4.378  18.724  0.00  0.00    +0.000 C 
ATOM     19  C   UNL     1       2.857   5.207  18.068  0.00  0.00    +0.000 A 
ATOM     20  C   UNL     1       3.666   4.570  17.110  0.00  0.00    +0.000 A 
ATOM     21  C   UNL     1       4.655   5.275  16.436  0.00  0.00    +0.000 A 
ATOM     22  F   UNL     1       5.406   4.644  15.525  0.00  0.00    +0.000 F 
ATOM     23  C   UNL     1       4.871   6.621  16.689  0.00  0.00    +0.000 A 
ATOM     24  C   UNL     1       4.080   7.281  17.630  0.00  0.00    +0.000 A 
ATOM     25  C   UNL     1       3.075   6.584  18.330  0.00  0.00    +0.000 A 
ENDBRANCH  13  25
ENDBRANCH   1  16
BRANCH  12  26
ATOM     26  C   UNL     1      -0.419  12.905  18.690  0.00  0.00    +0.000 C 
BRANCH  26  27
ATOM     27  O   UNL     1      -0.960  13.028  17.374  0.00  0.00    +0.000 OA
ATOM     28  H   UNL     1      -1.877  12.686  17.391  0.00  0.00    +0.000 HD
ENDBRANCH  26  27
ENDBRANCH  12  26
TORSDOF 4
ENDMDL
MODEL 8
REMARK VINA RESULT:      -7.6      2.211      3.144
REMARK  Name = 
REMARK  5 active torsions:
REMARK  status: ('A' for Active; 'I' for Inactive)
REMARK    1  A    between atoms: C_1  and  C_2
REMARK    2  A    between atoms: C_8  and  N_9
REMARK    3  A    between atoms: C_12  and  C_13
REMARK    4  A    between atoms: C_24  and  C_25
REMARK    5  A    between atoms: C_25  and  O_26
REMARK                            x       y       z     vdW  Elec       q    Type
REMARK                         _______ _______ _______ _____ _____    ______ ____
ROOT
ATOM      1  C   UNL     1       1.723   9.714  18.317  0.00  0.00    +0.000 C 
ATOM      2  O   UNL     1       2.031  10.453  17.378  0.00  0.00    +0.000 OA
ATOM      3  N   UNL     1       0.843  10.167  19.320  0.00  0.00    +0.000 N 
ATOM      4  C   UNL     1       0.579   9.459  20.584  0.00  0.00    +0.000 C 
ATOM      5  C   UNL     1      -0.647   9.956  21.349  0.00  0.00    +0.000 C 
ATOM      6  C   UNL     1      -0.555  11.440  21.535  0.00  0.00    +0.000 A 
ATOM      7  C   UNL     1      -0.967  12.059  22.718  0.00  0.00    +0.000 A 
ATOM      8  C   UNL     1      -0.840  13.439  22.859  0.00  0.00    +0.000 A 
ATOM      9  C   UNL     1      -0.309  14.202  21.821  0.00  0.00    +0.000 A 
ATOM     10  C   UNL     1       0.078  13.591  20.627  0.00  0.00    +0.000 A 
ATOM     11  C   UNL     1      -0.053  12.205  20.470  0.00  0.00    +0.000 A 
ATOM     12  C   UNL     1       0.288  11.526  19.152  0.00  0.00    +0.000 C 
ENDROOT
BRANCH   1  16
ATOM     13  N   UNL     1       2.504   6.277  18.924  0.00  0.00    +0.000 N 
ATOM     14  C   UNL     1       3.499   6.524  18.004  0.00  0.00    +0.000 A 
ATOM     15  C   UNL     1       3.356   7.835  17.608  0.00  0.00    +0.000 A 
ATOM     16  C   UNL     1       2.288   8.350  18.385  0.00  0.00    +0.000 A 
ATOM     17  N   UNL     1       1.764   7.379  19.143  0.00  0.00    +0.000 NA
BRANCH  13  25
ATOM     18  C   UNL     1       1.337   3.854  17.542  0.00  0.00    +0.000 C 
ATOM     19  C   UNL     1       1.667   3.936  19.012  0.00  0.00    +0.000 A 
ATOM     20  C   UNL     1       1.414   2.793  19.792  0.00  0.00    +0.000 A 
ATOM     21  C   UNL     1       1.724   2.776  21.146  0.00  0.00    +0.000 A 
ATOM     22  F   UNL     1       1.478   1.673  21.863  0.00  0.00    +0.000 F 
ATOM     23  C   UNL     1       2.287   3.883  21.762  0.00  0.00    +0.000 A 
ATOM     24  C   UNL     1       2.555   5.028  21.013  0.00  0.00    +0.000 A 
ATOM     25  C   UNL     1       2.243   5.069  19.639  0.00  0.00    +0.000 A 
ENDBRANCH  13  25
ENDBRANCH   1  16
BRANCH  12  26
ATOM     26  C   UNL     1      -0.965  11.491  18.232  0.00  0.00    +0.000 C 
BRANCH  26  27
ATOM     27  O   UNL     1      -1.158  12.683  17.469  0.00  0.00    +0.000 OA
ATOM     28  H   UNL     1      -1.145  12.441  16.521  0.00  0.00    +0.000 HD
ENDBRANCH  26  27
ENDBRANCH  12  26
TORSDOF 4
ENDMDL
MODEL 9
REMARK VINA RESULT:      -7.6      1.268      1.527
REMARK  Name = 
REMARK  5 active torsions:
REMARK  status: ('A' for Active; 'I' for Inactive)
REMARK    1  A    between atoms: C_1  and  C_2
REMARK    2  A    between atoms: C_8  and  N_9
REMARK    3  A    between atoms: C_12  and  C_13
REMARK    4  A    between atoms: C_24  and  C_25
REMARK    5  A    between atoms: C_25  and  O_26
REMARK                            x       y       z     vdW  Elec       q    Type
REMARK                         _______ _______ _______ _____ _____    ______ ____
ROOT
ATOM      1  C   UNL     1       0.700  10.467  20.742  0.00  0.00    +0.000 C 
ATOM      2  O   UNL     1       1.219  10.723  21.831  0.00  0.00    +0.000 OA
ATOM      3  N   UNL     1      -0.456  11.156  20.326  0.00  0.00    +0.000 N 
ATOM      4  C   UNL     1      -1.276  10.786  19.159  0.00  0.00    +0.000 C 
ATOM      5  C   UNL     1      -2.265  11.862  18.709  0.00  0.00    +0.000 C 
ATOM      6  C   UNL     1      -3.098  12.298  19.876  0.00  0.00    +0.000 A 
ATOM      7  C   UNL     1      -4.458  12.588  19.740  0.00  0.00    +0.000 A 
ATOM      8  C   UNL     1      -5.201  12.965  20.856  0.00  0.00    +0.000 A 
ATOM      9  C   UNL     1      -4.589  13.059  22.105  0.00  0.00    +0.000 A 
ATOM     10  C   UNL     1      -3.225  12.797  22.240  0.00  0.00    +0.000 A 
ATOM     11  C   UNL     1      -2.465  12.426  21.123  0.00  0.00    +0.000 A 
ATOM     12  C   UNL     1      -0.962  12.211  21.229  0.00  0.00    +0.000 C 
ENDROOT
BRANCH   1  16
ATOM     13  N   UNL     1       2.090   7.523  19.262  0.00  0.00    +0.000 N 
ATOM     14  C   UNL     1       2.060   8.296  18.122  0.00  0.00    +0.000 A 
ATOM     15  C   UNL     1       1.514   9.509  18.480  0.00  0.00    +0.000 A 
ATOM     16  C   UNL     1       1.297   9.428  19.878  0.00  0.00    +0.000 A 
ATOM     17  N   UNL     1       1.616   8.205  20.320  0.00  0.00    +0.000 NA
BRANCH  13  25
ATOM     18  C   UNL     1       4.416   6.514  17.615  0.00  0.00    +0.000 C 
ATOM     19  C   UNL     1       3.653   5.695  18.626  0.00  0.00    +0.000 A 
ATOM     20  C   UNL     1       4.063   4.362  18.814  0.00  0.00    +0.000 A 
ATOM     21  C   UNL     1       3.433   3.554  19.752  0.00  0.00    +0.000 A 
ATOM     22  F   UNL     1       3.848   2.291  19.915  0.00  0.00    +0.000 F 
ATOM     23  C   UNL     1       2.388   4.036  20.524  0.00  0.00    +0.000 A 
ATOM     24  C   UNL     1       1.963   5.355  20.363  0.00  0.00    +0.000 A 
ATOM     25  C   UNL     1       2.583   6.192  19.413  0.00  0.00    +0.000 A 
ENDBRANCH  13  25
ENDBRANCH   1  16
BRANCH  12  26
ATOM     26  C   UNL     1      -0.214  13.549  20.972  0.00  0.00    +0.000 C 
BRANCH  26  27
ATOM     27  O   UNL     1       0.921  13.750  21.813  0.00  0.00    +0.000 OA
ATOM     28  H   UNL     1       1.583  14.267  21.312  0.00  0.00    +0.000 HD
ENDBRANCH  26  27
ENDBRANCH  12  26
TORSDOF 4
ENDMDL
