MODEL 1
REMARK VINA RESULT:      -8.2      0.000      0.000
REMARK  Name = 
REMARK  6 active torsions:
REMARK  status: ('A' for Active; 'I' for Inactive)
REMARK    1  A    between atoms: C_2  and  C_3
REMARK    2  A    between atoms: C_3  and  C_4
REMARK    3  A    between atoms: C_4  and  C_5
REMARK    4  A    between atoms: N_11  and  C_12
REMARK    5  A    between atoms: C_16  and  C_17
REMARK    6  A    between atoms: N_19  and  C_20
REMARK                            x       y       z     vdW  Elec       q    Type
REMARK                         _______ _______ _______ _____ _____    ______ ____
ROOT
ATOM      1  C   UNL     1       6.742   6.246  16.221  0.00  0.00    +0.000 A 
ATOM      2  C   UNL     1       7.345   5.521  15.194  0.00  0.00    +0.000 A 
ATOM      3  C   UNL     1       6.838   4.280  14.788  0.00  0.00    +0.000 A 
ATOM      4  C   UNL     1       5.739   3.721  15.435  0.00  0.00    +0.000 A 
ATOM      5  C   UNL     1       5.163   4.399  16.511  0.00  0.00    +0.000 A 
ATOM      6  C   UNL     1       5.646   5.668  16.883  0.00  0.00    +0.000 A 
ENDROOT
BRANCH   1   9
ATOM      7  O   UNL     1       8.245   7.041  18.651  0.00  0.00    +0.000 OA
ATOM      8  C   UNL     1       7.872   7.840  17.797  0.00  0.00    +0.000 C 
ATOM      9  N   UNL     1       7.168   7.530  16.641  0.00  0.00    +0.000 N 
ATOM     10  H   UNL     1       6.973   8.292  16.002  0.00  0.00    +0.000 HD
BRANCH   8  11
ATOM     11  C   UNL     1       8.103   9.336  17.970  0.00  0.00    +0.000 C 
BRANCH  11  12
ATOM     12  C   UNL     1       9.053   9.624  19.137  0.00  0.00    +0.000 C 
BRANCH  12  13
ATOM     13  C   UNL     1       9.737  10.959  19.013  0.00  0.00    +0.000 A 
ATOM     14  C   UNL     1      10.832  11.293  19.813  0.00  0.00    +0.000 A 
ATOM     15  C   UNL     1      11.444  12.536  19.668  0.00  0.00    +0.000 A 
ATOM     16  C   UNL     1      10.935  13.413  18.727  0.00  0.00    +0.000 A 
ATOM     17  N   UNL     1       9.873  13.132  17.942  0.00  0.00    +0.000 NA
ATOM     18  C   UNL     1       9.302  11.916  18.100  0.00  0.00    +0.000 A 
ENDBRANCH  12  13
ENDBRANCH  11  12
ENDBRANCH   8  11
ENDBRANCH   1   9
BRANCH   5  19
ATOM     19  C   UNL     1       4.032   3.814  17.287  0.00  0.00    +0.000 C 
ATOM     20  O   UNL     1       3.194   3.167  16.668  0.00  0.00    +0.000 OA
ATOM     21  N   UNL     1       3.998   4.141  18.634  0.00  0.00    +0.000 N 
ATOM     22  H   UNL     1       4.659   4.834  18.961  0.00  0.00    +0.000 HD
BRANCH  21  23
ATOM     23  C   UNL     1       2.983   3.775  19.550  0.00  0.00    +0.000 A 
ATOM     24  C   UNL     1       1.715   4.365  19.567  0.00  0.00    +0.000 A 
ATOM     25  C   UNL     1       0.771   4.015  20.538  0.00  0.00    +0.000 A 
ATOM     26  C   UNL     1       1.087   3.063  21.501  0.00  0.00    +0.000 A 
ATOM     27  C   UNL     1       2.335   2.453  21.466  0.00  0.00    +0.000 A 
ATOM     28  F   UNL     1       2.644   1.538  22.395  0.00  0.00    +0.000 F 
ATOM     29  C   UNL     1       3.276   2.785  20.494  0.00  0.00    +0.000 A 
ENDBRANCH  21  23
ENDBRANCH   5  19
TORSDOF 6
ENDMDL
MODEL 2
REMARK VINA RESULT:      -8.0      5.317      8.049
REMARK  Name = 
REMARK  6 active torsions:
REMARK  status: ('A' for Active; 'I' for Inactive)
REMARK    1  A    between atoms: C_2  and  C_3
REMARK    2  A    between atoms: C_3  and  C_4
REMARK    3  A    between atoms: C_4  and  C_5
REMARK    4  A    between atoms: N_11  and  C_12
REMARK    5  A    between atoms: C_16  and  C_17
REMARK    6  A    between atoms: N_19  and  C_20
REMARK                            x       y       z     vdW  Elec       q    Type
REMARK                         _______ _______ _______ _____ _____    ______ ____
ROOT
ATOM      1  C   UNL     1       3.437   5.359  19.018  0.00  0.00    +0.000 A 
ATOM      2  C   UNL     1       2.957   4.424  19.936  0.00  0.00    +0.000 A 
ATOM      3  C   UNL     1       1.960   4.761  20.860  0.00  0.00    +0.000 A 
ATOM      4  C   UNL     1       1.454   6.058  20.911  0.00  0.00    +0.000 A 
ATOM      5  C   UNL     1       1.970   7.025  20.048  0.00  0.00    +0.000 A 
ATOM      6  C   UNL     1       2.937   6.670  19.088  0.00  0.00    +0.000 A 
ENDROOT
BRANCH   1   9
ATOM      7  O   UNL     1       6.251   4.469  19.307  0.00  0.00    +0.000 OA
ATOM      8  C   UNL     1       5.710   4.655  18.221  0.00  0.00    +0.000 C 
ATOM      9  N   UNL     1       4.400   5.069  18.021  0.00  0.00    +0.000 N 
ATOM     10  H   UNL     1       4.077   5.130  17.063  0.00  0.00    +0.000 HD
BRANCH   8  11
ATOM     11  C   UNL     1       6.491   4.504  16.921  0.00  0.00    +0.000 C 
BRANCH  11  12
ATOM     12  C   UNL     1       5.575   4.095  15.763  0.00  0.00    +0.000 C 
BRANCH  12  13
ATOM     13  C   UNL     1       6.225   4.279  14.417  0.00  0.00    +0.000 A 
ATOM     14  C   UNL     1       5.855   3.499  13.318  0.00  0.00    +0.000 A 
ATOM     15  C   UNL     1       6.474   3.700  12.086  0.00  0.00    +0.000 A 
ATOM     16  C   UNL     1       7.452   4.673  11.994  0.00  0.00    +0.000 A 
ATOM     17  N   UNL     1       7.845   5.440  13.034  0.00  0.00    +0.000 NA
ATOM     18  C   UNL     1       7.223   5.227  14.216  0.00  0.00    +0.000 A 
ENDBRANCH  12  13
ENDBRANCH  11  12
ENDBRANCH   8  11
ENDBRANCH   1   9
BRANCH   5  19
ATOM     19  C   UNL     1       1.518   8.445  20.109  0.00  0.00    +0.000 C 
ATOM     20  O   UNL     1       1.217   8.898  21.207  0.00  0.00    +0.000 OA
ATOM     21  N   UNL     1       1.399   9.089  18.885  0.00  0.00    +0.000 N 
ATOM     22  H   UNL     1       1.508   8.525  18.052  0.00  0.00    +0.000 HD
BRANCH  21  23
ATOM     23  C   UNL     1       0.912  10.402  18.684  0.00  0.00    +0.000 A 
ATOM     24  C   UNL     1       1.740  11.528  18.633  0.00  0.00    +0.000 A 
ATOM     25  C   UNL     1       1.201  12.813  18.500  0.00  0.00    +0.000 A 
ATOM     26  C   UNL     1      -0.177  12.981  18.413  0.00  0.00    +0.000 A 
ATOM     27  C   UNL     1      -0.998  11.860  18.432  0.00  0.00    +0.000 A 
ATOM     28  F   UNL     1      -2.326  12.019  18.352  0.00  0.00    +0.000 F 
ATOM     29  C   UNL     1      -0.469  10.576  18.549  0.00  0.00    +0.000 A 
ENDBRANCH  21  23
ENDBRANCH   5  19
TORSDOF 6
ENDMDL
MODEL 3
REMARK VINA RESULT:      -8.0      5.581      8.921
REMARK  Name = 
REMARK  6 active torsions:
REMARK  status: ('A' for Active; 'I' for Inactive)
REMARK    1  A    between atoms: C_2  and  C_3
REMARK    2  A    between atoms: C_3  and  C_4
REMARK    3  A    between atoms: C_4  and  C_5
REMARK    4  A    between atoms: N_11  and  C_12
REMARK    5  A    between atoms: C_16  and  C_17
REMARK    6  A    between atoms: N_19  and  C_20
REMARK                            x       y       z     vdW  Elec       q    Type
REMARK                         _______ _______ _______ _____ _____    ______ ____
ROOT
ATOM      1  C   UNL     1       2.474   7.475  18.802  0.00  0.00    +0.000 A 
ATOM      2  C   UNL     1       2.599   6.474  19.765  0.00  0.00    +0.000 A 
ATOM      3  C   UNL     1       3.524   5.433  19.615  0.00  0.00    +0.000 A 
ATOM      4  C   UNL     1       4.313   5.351  18.470  0.00  0.00    +0.000 A 
ATOM      5  C   UNL     1       4.155   6.304  17.463  0.00  0.00    +0.000 A 
ATOM      6  C   UNL     1       3.260   7.376  17.640  0.00  0.00    +0.000 A 
ENDROOT
BRANCH   1   9
ATOM      7  O   UNL     1       2.534  10.086  17.396  0.00  0.00    +0.000 OA
ATOM      8  C   UNL     1       1.683   9.787  18.229  0.00  0.00    +0.000 C 
ATOM      9  N   UNL     1       1.602   8.585  18.919  0.00  0.00    +0.000 N 
ATOM     10  H   UNL     1       0.812   8.463  19.541  0.00  0.00    +0.000 HD
BRANCH   8  11
ATOM     11  C   UNL     1       0.619  10.791  18.656  0.00  0.00    +0.000 C 
BRANCH  11  12
ATOM     12  C   UNL     1      -0.691  10.090  19.032  0.00  0.00    +0.000 C 
BRANCH  12  13
ATOM     13  C   UNL     1      -1.812  10.408  18.080  0.00  0.00    +0.000 A 
ATOM     14  C   UNL     1      -1.854   9.858  16.796  0.00  0.00    +0.000 A 
ATOM     15  C   UNL     1      -2.910  10.169  15.942  0.00  0.00    +0.000 A 
ATOM     16  C   UNL     1      -3.891  11.031  16.398  0.00  0.00    +0.000 A 
ATOM     17  N   UNL     1      -3.882  11.591  17.627  0.00  0.00    +0.000 NA
ATOM     18  C   UNL     1      -2.848  11.266  18.437  0.00  0.00    +0.000 A 
ENDBRANCH  12  13
ENDBRANCH  11  12
ENDBRANCH   8  11
ENDBRANCH   1   9
BRANCH   5  19
ATOM     19  C   UNL     1       4.921   6.223  16.186  0.00  0.00    +0.000 C 
ATOM     20  O   UNL     1       5.108   7.266  15.569  0.00  0.00    +0.000 OA
ATOM     21  N   UNL     1       5.271   4.944  15.777  0.00  0.00    +0.000 N 
ATOM     22  H   UNL     1       4.887   4.168  16.301  0.00  0.00    +0.000 HD
BRANCH  21  23
ATOM     23  C   UNL     1       5.923   4.611  14.567  0.00  0.00    +0.000 A 
ATOM     24  C   UNL     1       7.154   5.153  14.182  0.00  0.00    +0.000 A 
ATOM     25  C   UNL     1       7.723   4.841  12.942  0.00  0.00    +0.000 A 
ATOM     26  C   UNL     1       7.063   3.978  12.075  0.00  0.00    +0.000 A 
ATOM     27  C   UNL     1       5.855   3.415  12.468  0.00  0.00    +0.000 A 
ATOM     28  F   UNL     1       5.215   2.585  11.632  0.00  0.00    +0.000 F 
ATOM     29  C   UNL     1       5.289   3.708  13.707  0.00  0.00    +0.000 A 
ENDBRANCH  21  23
ENDBRANCH   5  19
TORSDOF 6
ENDMDL
MODEL 4
REMARK VINA RESULT:      -8.0      6.532      9.583
REMARK  Name = 
REMARK  6 active torsions:
REMARK  status: ('A' for Active; 'I' for Inactive)
REMARK    1  A    between atoms: C_2  and  C_3
REMARK    2  A    between atoms: C_3  and  C_4
REMARK    3  A    between atoms: C_4  and  C_5
REMARK    4  A    between atoms: N_11  and  C_12
REMARK    5  A    between atoms: C_16  and  C_17
REMARK    6  A    between atoms: N_19  and  C_20
REMARK                            x       y       z     vdW  Elec       q    Type
REMARK                         _______ _______ _______ _____ _____    ______ ____
ROOT
ATOM      1  C   UNL     1       1.881   7.356  20.395  0.00  0.00    +0.000 A 
ATOM      2  C   UNL     1       1.932   7.829  19.084  0.00  0.00    +0.000 A 
ATOM      3  C   UNL     1       1.504   9.122  18.762  0.00  0.00    +0.000 A 
ATOM      4  C   UNL     1       0.972   9.954  19.744  0.00  0.00    +0.000 A 
ATOM      5  C   UNL     1       0.847   9.476  21.049  0.00  0.00    +0.000 A 
ATOM      6  C   UNL     1       1.325   8.193  21.378  0.00  0.00    +0.000 A 
ENDROOT
BRANCH   1   9
ATOM      7  O   UNL     1       0.550   4.710  20.237  0.00  0.00    +0.000 OA
ATOM      8  C   UNL     1       1.676   4.873  20.698  0.00  0.00    +0.000 C 
ATOM      9  N   UNL     1       2.350   6.082  20.798  0.00  0.00    +0.000 N 
ATOM     10  H   UNL     1       3.299   6.052  21.155  0.00  0.00    +0.000 HD
BRANCH   8  11
ATOM     11  C   UNL     1       2.453   3.706  21.297  0.00  0.00    +0.000 C 
BRANCH  11  12
ATOM     12  C   UNL     1       2.830   2.677  20.226  0.00  0.00    +0.000 C 
BRANCH  12  13
ATOM     13  C   UNL     1       3.717   3.254  19.155  0.00  0.00    +0.000 A 
ATOM     14  C   UNL     1       3.283   3.364  17.831  0.00  0.00    +0.000 A 
ATOM     15  C   UNL     1       4.128   3.907  16.867  0.00  0.00    +0.000 A 
ATOM     16  C   UNL     1       5.390   4.320  17.257  0.00  0.00    +0.000 A 
ATOM     17  N   UNL     1       5.850   4.222  18.523  0.00  0.00    +0.000 NA
ATOM     18  C   UNL     1       5.006   3.696  19.439  0.00  0.00    +0.000 A 
ENDBRANCH  12  13
ENDBRANCH  11  12
ENDBRANCH   8  11
ENDBRANCH   1   9
BRANCH   5  19
ATOM     19  C   UNL     1       0.219  10.296  22.124  0.00  0.00    +0.000 C 
ATOM     20  O   UNL     1       0.327   9.898  23.278  0.00  0.00    +0.000 OA
ATOM     21  N   UNL     1      -0.510  11.394  21.691  0.00  0.00    +0.000 N 
ATOM     22  H   UNL     1      -0.659  11.489  20.695  0.00  0.00    +0.000 HD
BRANCH  21  23
ATOM     23  C   UNL     1      -1.260  12.267  22.514  0.00  0.00    +0.000 A 
ATOM     24  C   UNL     1      -0.850  13.567  22.830  0.00  0.00    +0.000 A 
ATOM     25  C   UNL     1      -1.596  14.365  23.704  0.00  0.00    +0.000 A 
ATOM     26  C   UNL     1      -2.766  13.868  24.268  0.00  0.00    +0.000 A 
ATOM     27  C   UNL     1      -3.191  12.590  23.931  0.00  0.00    +0.000 A 
ATOM     28  F   UNL     1      -4.316  12.107  24.476  0.00  0.00    +0.000 F 
ATOM     29  C   UNL     1      -2.462  11.793  23.049  0.00  0.00    +0.000 A 
ENDBRANCH  21  23
ENDBRANCH   5  19
TORSDOF 6
ENDMDL
MODEL 5
REMARK VINA RESULT:      -8.0      1.173      1.486
REMARK  Name = 
REMARK  6 active torsions:
REMARK  status: ('A' for Active; 'I' for Inactive)
REMARK    1  A    between atoms: C_2  and  C_3
REMARK    2  A    between atoms: C_3  and  C_4
REMARK    3  A    between atoms: C_4  and  C_5
REMARK    4  A    between atoms: N_11  and  C_12
REMARK    5  A    between atoms: C_16  and  C_17
REMARK    6  A    between atoms: N_19  and  C_20
REMARK                            x       y       z     vdW  Elec       q    Type
REMARK                         _______ _______ _______ _____ _____    ______ ____
ROOT
ATOM      1  C   UNL     1       6.884   6.292  16.286  0.00  0.00    +0.000 A 
ATOM      2  C   UNL     1       7.386   5.673  15.142  0.00  0.00    +0.000 A 
ATOM      3  C   UNL     1       6.905   4.427  14.721  0.00  0.00    +0.000 A 
ATOM      4  C   UNL     1       5.939   3.755  15.467  0.00  0.00    +0.000 A 
ATOM      5  C   UNL     1       5.474   4.326  16.652  0.00  0.00    +0.000 A 
ATOM      6  C   UNL     1       5.924   5.601  17.045  0.00  0.00    +0.000 A 
ENDROOT
BRANCH   1   9
ATOM      7  O   UNL     1       8.373   7.064  18.732  0.00  0.00    +0.000 OA
ATOM      8  C   UNL     1       7.983   7.874  17.896  0.00  0.00    +0.000 C 
ATOM      9  N   UNL     1       7.284   7.575  16.734  0.00  0.00    +0.000 N 
ATOM     10  H   UNL     1       7.073   8.347  16.112  0.00  0.00    +0.000 HD
BRANCH   8  11
ATOM     11  C   UNL     1       8.184   9.370  18.102  0.00  0.00    +0.000 C 
BRANCH  11  12
ATOM     12  C   UNL     1       9.092   9.652  19.303  0.00  0.00    +0.000 C 
BRANCH  12  13
ATOM     13  C   UNL     1       9.906  10.907  19.132  0.00  0.00    +0.000 A 
ATOM     14  C   UNL     1      10.199  11.417  17.865  0.00  0.00    +0.000 A 
ATOM     15  C   UNL     1      10.950  12.584  17.743  0.00  0.00    +0.000 A 
ATOM     16  C   UNL     1      11.393  13.203  18.898  0.00  0.00    +0.000 A 
ATOM     17  N   UNL     1      11.140  12.737  20.140  0.00  0.00    +0.000 NA
ATOM     18  C   UNL     1      10.403  11.606  20.228  0.00  0.00    +0.000 A 
ENDBRANCH  12  13
ENDBRANCH  11  12
ENDBRANCH   8  11
ENDBRANCH   1   9
BRANCH   5  19
ATOM     19  C   UNL     1       4.495   3.619  17.527  0.00  0.00    +0.000 C 
ATOM     20  O   UNL     1       4.155   2.488  17.199  0.00  0.00    +0.000 OA
ATOM     21  N   UNL     1       3.997   4.359  18.590  0.00  0.00    +0.000 N 
ATOM     22  H   UNL     1       4.237   5.341  18.624  0.00  0.00    +0.000 HD
BRANCH  21  23
ATOM     23  C   UNL     1       3.003   3.933  19.502  0.00  0.00    +0.000 A 
ATOM     24  C   UNL     1       3.156   3.998  20.891  0.00  0.00    +0.000 A 
ATOM     25  C   UNL     1       2.168   3.501  21.748  0.00  0.00    +0.000 A 
ATOM     26  C   UNL     1       1.012   2.936  21.220  0.00  0.00    +0.000 A 
ATOM     27  C   UNL     1       0.845   2.900  19.841  0.00  0.00    +0.000 A 
ATOM     28  F   UNL     1      -0.266   2.352  19.329  0.00  0.00    +0.000 F 
ATOM     29  C   UNL     1       1.817   3.406  18.980  0.00  0.00    +0.000 A 
ENDBRANCH  21  23
ENDBRANCH   5  19
TORSDOF 6
ENDMDL
MODEL 6
REMARK VINA RESULT:      -7.9      5.477      8.913
REMARK  Name = 
REMARK  6 active torsions:
REMARK  status: ('A' for Active; 'I' for Inactive)
REMARK    1  A    between atoms: C_2  and  C_3
REMARK    2  A    between atoms: C_3  and  C_4
REMARK    3  A    between atoms: C_4  and  C_5
REMARK    4  A    between atoms: N_11  and  C_12
REMARK    5  A    between atoms: C_16  and  C_17
REMARK    6  A    between atoms: N_19  and  C_20
REMARK                            x       y       z     vdW  Elec       q    Type
REMARK                         _______ _______ _______ _____ _____    ______ ____
ROOT
ATOM      1  C   UNL     1       2.733   7.015  18.630  0.00  0.00    +0.000 A 
ATOM      2  C   UNL     1       2.501   6.222  19.753  0.00  0.00    +0.000 A 
ATOM      3  C   UNL     1       3.287   5.094  20.019  0.00  0.00    +0.000 A 
ATOM      4  C   UNL     1       4.296   4.713  19.138  0.00  0.00    +0.000 A 
ATOM      5  C   UNL     1       4.499   5.454  17.973  0.00  0.00    +0.000 A 
ATOM      6  C   UNL     1       3.739   6.615  17.734  0.00  0.00    +0.000 A 
ENDROOT
BRANCH   1   9
ATOM      7  O   UNL     1       1.342   8.895  20.454  0.00  0.00    +0.000 OA
ATOM      8  C   UNL     1       1.381   9.041  19.236  0.00  0.00    +0.000 C 
ATOM      9  N   UNL     1       2.014   8.199  18.332  0.00  0.00    +0.000 N 
ATOM     10  H   UNL     1       2.005   8.478  17.358  0.00  0.00    +0.000 HD
BRANCH   8  11
ATOM     11  C   UNL     1       0.640  10.189  18.562  0.00  0.00    +0.000 C 
BRANCH  11  12
ATOM     12  C   UNL     1      -0.753  10.389  19.168  0.00  0.00    +0.000 C 
BRANCH  12  13
ATOM     13  C   UNL     1      -1.825  10.539  18.122  0.00  0.00    +0.000 A 
ATOM     14  C   UNL     1      -1.792   9.802  16.935  0.00  0.00    +0.000 A 
ATOM     15  C   UNL     1      -2.802   9.963  15.990  0.00  0.00    +0.000 A 
ATOM     16  C   UNL     1      -3.816  10.865  16.260  0.00  0.00    +0.000 A 
ATOM     17  N   UNL     1      -3.878  11.603  17.388  0.00  0.00    +0.000 NA
ATOM     18  C   UNL     1      -2.887  11.422  18.291  0.00  0.00    +0.000 A 
ENDBRANCH  12  13
ENDBRANCH  11  12
ENDBRANCH   8  11
ENDBRANCH   1   9
BRANCH   5  19
ATOM     19  C   UNL     1       5.515   5.049  16.959  0.00  0.00    +0.000 C 
ATOM     20  O   UNL     1       6.677   4.943  17.331  0.00  0.00    +0.000 OA
ATOM     21  N   UNL     1       5.046   4.920  15.659  0.00  0.00    +0.000 N 
ATOM     22  H   UNL     1       4.096   5.219  15.477  0.00  0.00    +0.000 HD
BRANCH  21  23
ATOM     23  C   UNL     1       5.832   4.629  14.520  0.00  0.00    +0.000 A 
ATOM     24  C   UNL     1       7.055   5.253  14.251  0.00  0.00    +0.000 A 
ATOM     25  C   UNL     1       7.760   4.979  13.074  0.00  0.00    +0.000 A 
ATOM     26  C   UNL     1       7.248   4.069  12.155  0.00  0.00    +0.000 A 
ATOM     27  C   UNL     1       6.049   3.425  12.436  0.00  0.00    +0.000 A 
ATOM     28  F   UNL     1       5.551   2.552  11.550  0.00  0.00    +0.000 F 
ATOM     29  C   UNL     1       5.347   3.682  13.612  0.00  0.00    +0.000 A 
ENDBRANCH  21  23
ENDBRANCH   5  19
TORSDOF 6
ENDMDL
MODEL 7
REMARK VINA RESULT:      -7.9      5.647      8.257
REMARK  Name = 
REMARK  6 active torsions:
REMARK  status: ('A' for Active; 'I' for Inactive)
REMARK    1  A    between atoms: C_2  and  C_3
REMARK    2  A    between atoms: C_3  and  C_4
REMARK    3  A    between atoms: C_4  and  C_5
REMARK    4  A    between atoms: N_11  and  C_12
REMARK    5  A    between atoms: C_16  and  C_17
REMARK    6  A    between atoms: N_19  and  C_20
REMARK                            x       y       z     vdW  Elec       q    Type
REMARK                         _______ _______ _______ _____ _____    ______ ____
ROOT
ATOM      1  C   UNL     1       2.914   5.215  19.794  0.00  0.00    +0.000 A 
ATOM      2  C   UNL     1       2.745   3.859  20.074  0.00  0.00    +0.000 A 
ATOM      3  C   UNL     1       3.302   2.873  19.250  0.00  0.00    +0.000 A 
ATOM      4  C   UNL     1       4.005   3.228  18.101  0.00  0.00    +0.000 A 
ATOM      5  C   UNL     1       4.126   4.577  17.765  0.00  0.00    +0.000 A 
ATOM      6  C   UNL     1       3.606   5.567  18.622  0.00  0.00    +0.000 A 
ENDROOT
BRANCH   1   9
ATOM      7  O   UNL     1       1.905   7.900  19.040  0.00  0.00    +0.000 OA
ATOM      8  C   UNL     1       1.967   7.504  20.200  0.00  0.00    +0.000 C 
ATOM      9  N   UNL     1       2.427   6.261  20.615  0.00  0.00    +0.000 N 
ATOM     10  H   UNL     1       2.370   6.056  21.606  0.00  0.00    +0.000 HD
BRANCH   8  11
ATOM     11  C   UNL     1       1.584   8.415  21.360  0.00  0.00    +0.000 C 
BRANCH  11  12
ATOM     12  C   UNL     1       0.066   8.597  21.451  0.00  0.00    +0.000 C 
BRANCH  12  13
ATOM     13  C   UNL     1      -0.335  10.035  21.642  0.00  0.00    +0.000 A 
ATOM     14  C   UNL     1      -0.910  10.478  22.836  0.00  0.00    +0.000 A 
ATOM     15  C   UNL     1      -1.264  11.817  22.980  0.00  0.00    +0.000 A 
ATOM     16  C   UNL     1      -1.037  12.675  21.919  0.00  0.00    +0.000 A 
ATOM     17  N   UNL     1      -0.494  12.284  20.746  0.00  0.00    +0.000 NA
ATOM     18  C   UNL     1      -0.154  10.980  20.636  0.00  0.00    +0.000 A 
ENDBRANCH  12  13
ENDBRANCH  11  12
ENDBRANCH   8  11
ENDBRANCH   1   9
BRANCH   5  19
ATOM     19  C   UNL     1       4.803   5.011  16.509  0.00  0.00    +0.000 C 
ATOM     20  O   UNL     1       4.781   6.206  16.237  0.00  0.00    +0.000 OA
ATOM     21  N   UNL     1       5.319   3.991  15.724  0.00  0.00    +0.000 N 
ATOM     22  H   UNL     1       5.099   3.041  15.993  0.00  0.00    +0.000 HD
BRANCH  21  23
ATOM     23  C   UNL     1       5.928   4.149  14.457  0.00  0.00    +0.000 A 
ATOM     24  C   UNL     1       5.457   3.527  13.295  0.00  0.00    +0.000 A 
ATOM     25  C   UNL     1       6.137   3.662  12.080  0.00  0.00    +0.000 A 
ATOM     26  C   UNL     1       7.296   4.428  12.015  0.00  0.00    +0.000 A 
ATOM     27  C   UNL     1       7.747   5.072  13.161  0.00  0.00    +0.000 A 
ATOM     28  F   UNL     1       8.866   5.807  13.102  0.00  0.00    +0.000 F 
ATOM     29  C   UNL     1       7.068   4.955  14.372  0.00  0.00    +0.000 A 
ENDBRANCH  21  23
ENDBRANCH   5  19
TORSDOF 6
ENDMDL
MODEL 8
REMARK VINA RESULT:      -7.8      1.230      1.248
REMARK  Name = 
REMARK  6 active torsions:
REMARK  status: ('A' for Active; 'I' for Inactive)
REMARK    1  A    between atoms: C_2  and  C_3
REMARK    2  A    between atoms: C_3  and  C_4
REMARK    3  A    between atoms: C_4  and  C_5
REMARK    4  A    between atoms: N_11  and  C_12
REMARK    5  A    between atoms: C_16  and  C_17
REMARK    6  A    between atoms: N_19  and  C_20
REMARK                            x       y       z     vdW  Elec       q    Type
REMARK                         _______ _______ _______ _____ _____    ______ ____
ROOT
ATOM      1  C   UNL     1       7.132   6.633  16.574  0.00  0.00    +0.000 A 
ATOM      2  C   UNL     1       7.488   5.956  15.407  0.00  0.00    +0.000 A 
ATOM      3  C   UNL     1       6.960   4.694  15.111  0.00  0.00    +0.000 A 
ATOM      4  C   UNL     1       6.094   4.064  16.002  0.00  0.00    +0.000 A 
ATOM      5  C   UNL     1       5.779   4.693  17.207  0.00  0.00    +0.000 A 
ATOM      6  C   UNL     1       6.275   5.984  17.479  0.00  0.00    +0.000 A 
ENDROOT
BRANCH   1   9
ATOM      7  O   UNL     1       8.630   7.565  18.958  0.00  0.00    +0.000 OA
ATOM      8  C   UNL     1       8.284   8.309  18.045  0.00  0.00    +0.000 C 
ATOM      9  N   UNL     1       7.584   7.933  16.906  0.00  0.00    +0.000 N 
ATOM     10  H   UNL     1       7.413   8.652  16.213  0.00  0.00    +0.000 HD
BRANCH   8  11
ATOM     11  C   UNL     1       8.548   9.808  18.114  0.00  0.00    +0.000 C 
BRANCH  11  12
ATOM     12  C   UNL     1       9.409  10.169  19.329  0.00  0.00    +0.000 C 
BRANCH  12  13
ATOM     13  C   UNL     1      10.405  11.258  19.031  0.00  0.00    +0.000 A 
ATOM     14  C   UNL     1      11.109  11.899  20.054  0.00  0.00    +0.000 A 
ATOM     15  C   UNL     1      12.027  12.899  19.742  0.00  0.00    +0.000 A 
ATOM     16  C   UNL     1      12.207  13.233  18.412  0.00  0.00    +0.000 A 
ATOM     17  N   UNL     1      11.540  12.645  17.396  0.00  0.00    +0.000 NA
ATOM     18  C   UNL     1      10.659  11.673  17.728  0.00  0.00    +0.000 A 
ENDBRANCH  12  13
ENDBRANCH  11  12
ENDBRANCH   8  11
ENDBRANCH   1   9
BRANCH   5  19
ATOM     19  C   UNL     1       4.918   4.034  18.230  0.00  0.00    +0.000 C 
ATOM     20  O   UNL     1       5.462   3.282  19.030  0.00  0.00    +0.000 OA
ATOM     21  N   UNL     1       3.557   4.276  18.113  0.00  0.00    +0.000 N 
ATOM     22  H   UNL     1       3.243   4.773  17.289  0.00  0.00    +0.000 HD
BRANCH  21  23
ATOM     23  C   UNL     1       2.542   3.698  18.910  0.00  0.00    +0.000 A 
ATOM     24  C   UNL     1       1.380   3.126  18.380  0.00  0.00    +0.000 A 
ATOM     25  C   UNL     1       0.375   2.630  19.218  0.00  0.00    +0.000 A 
ATOM     26  C   UNL     1       0.527   2.698  20.598  0.00  0.00    +0.000 A 
ATOM     27  C   UNL     1       1.693   3.236  21.126  0.00  0.00    +0.000 A 
ATOM     28  F   UNL     1       1.841   3.307  22.456  0.00  0.00    +0.000 F 
ATOM     29  C   UNL     1       2.706   3.720  20.300  0.00  0.00    +0.000 A 
ENDBRANCH  21  23
ENDBRANCH   5  19
TORSDOF 6
ENDMDL
MODEL 9
REMARK VINA RESULT:      -7.8      5.258      7.974
REMARK  Name = 
REMARK  6 active torsions:
REMARK  status: ('A' for Active; 'I' for Inactive)
REMARK    1  A    between atoms: C_2  and  C_3
REMARK    2  A    between atoms: C_3  and  C_4
REMARK    3  A    between atoms: C_4  and  C_5
REMARK    4  A    between atoms: N_11  and  C_12
REMARK    5  A    between atoms: C_16  and  C_17
REMARK    6  A    between atoms: N_19  and  C_20
REMARK                            x       y       z     vdW  Elec       q    Type
REMARK                         _______ _______ _______ _____ _____    ______ ____
ROOT
ATOM      1  C   UNL     1       3.868   5.573  18.648  0.00  0.00    +0.000 A 
ATOM      2  C   UNL     1       3.431   5.024  19.854  0.00  0.00    +0.000 A 
ATOM      3  C   UNL     1       2.400   5.621  20.591  0.00  0.00    +0.000 A 
ATOM      4  C   UNL     1       1.816   6.808  20.155  0.00  0.00    +0.000 A 
ATOM      5  C   UNL     1       2.286   7.410  18.988  0.00  0.00    +0.000 A 
ATOM      6  C   UNL     1       3.288   6.781  18.224  0.00  0.00    +0.000 A 
ENDROOT
BRANCH   1   9
ATOM      7  O   UNL     1       6.822   5.713  18.864  0.00  0.00    +0.000 OA
ATOM      8  C   UNL     1       6.239   5.094  17.979  0.00  0.00    +0.000 C 
ATOM      9  N   UNL     1       4.863   4.991  17.826  0.00  0.00    +0.000 N 
ATOM     10  H   UNL     1       4.526   4.401  17.074  0.00  0.00    +0.000 HD
BRANCH   8  11
ATOM     11  C   UNL     1       7.015   4.398  16.868  0.00  0.00    +0.000 C 
BRANCH  11  12
ATOM     12  C   UNL     1       6.077   3.858  15.784  0.00  0.00    +0.000 C 
BRANCH  12  13
ATOM     13  C   UNL     1       6.554   4.177  14.392  0.00  0.00    +0.000 A 
ATOM     14  C   UNL     1       6.105   3.453  13.285  0.00  0.00    +0.000 A 
ATOM     15  C   UNL     1       6.563   3.779  12.011  0.00  0.00    +0.000 A 
ATOM     16  C   UNL     1       7.466   4.820  11.884  0.00  0.00    +0.000 A 
ATOM     17  N   UNL     1       7.931   5.537  12.929  0.00  0.00    +0.000 NA
ATOM     18  C   UNL     1       7.464   5.202  14.154  0.00  0.00    +0.000 A 
ENDBRANCH  12  13
ENDBRANCH  11  12
ENDBRANCH   8  11
ENDBRANCH   1   9
BRANCH   5  19
ATOM     19  C   UNL     1       1.748   8.718  18.513  0.00  0.00    +0.000 C 
ATOM     20  O   UNL     1       2.074   9.092  17.393  0.00  0.00    +0.000 OA
ATOM     21  N   UNL     1       0.996   9.427  19.438  0.00  0.00    +0.000 N 
ATOM     22  H   UNL     1       0.967   9.070  20.385  0.00  0.00    +0.000 HD
BRANCH  21  23
ATOM     23  C   UNL     1       0.454  10.720  19.248  0.00  0.00    +0.000 A 
ATOM     24  C   UNL     1       1.016  11.877  19.800  0.00  0.00    +0.000 A 
ATOM     25  C   UNL     1       0.402  13.123  19.638  0.00  0.00    +0.000 A 
ATOM     26  C   UNL     1      -0.782  13.224  18.916  0.00  0.00    +0.000 A 
ATOM     27  C   UNL     1      -1.324  12.081  18.340  0.00  0.00    +0.000 A 
ATOM     28  F   UNL     1      -2.467  12.175  17.647  0.00  0.00    +0.000 F 
ATOM     29  C   UNL     1      -0.711  10.838  18.484  0.00  0.00    +0.000 A 
ENDBRANCH  21  23
ENDBRANCH   5  19
TORSDOF 6
ENDMDL
