MODEL 1
REMARK VINA RESULT:      -9.2      0.000      0.000
REMARK  Name = 
REMARK  6 active torsions:
REMARK  status: ('A' for Active; 'I' for Inactive)
REMARK    1  A    between atoms: C_1  and  C_2
REMARK    2  A    between atoms: C_6  and  C_7
REMARK    3  A    between atoms: C_7  and  C_8
REMARK    4  A    between atoms: C_8  and  N_9
REMARK    5  A    between atoms: C_10  and  C_12
REMARK    6  A    between atoms: C_12  and  C_13
REMARK                            x       y       z     vdW  Elec       q    Type
REMARK                         _______ _______ _______ _____ _____    ______ ____
ROOT
ATOM      1  N   UNL     1       4.170   4.708  18.182  0.00  0.00    +0.000 N 
ATOM      2  C   UNL     1       5.400   4.263  18.635  0.00  0.00    +0.000 C 
ATOM      3  O   UNL     1       5.511   3.389  19.496  0.00  0.00    +0.000 OA
ATOM      4  H   UNL     1       4.141   5.288  17.348  0.00  0.00    +0.000 HD
ENDROOT
BRANCH   1   5
ATOM      5  C   UNL     1       2.975   4.025  18.633  0.00  0.00    +0.000 C 
BRANCH   5   6
ATOM      6  C   UNL     1       2.178   4.694  19.787  0.00  0.00    +0.000 C 
ATOM      7  C   UNL     1       0.821   3.945  19.911  0.00  0.00    +0.000 C 
ATOM      8  C   UNL     1       1.101   2.691  20.743  0.00  0.00    +0.000 C 
ATOM      9  C   UNL     1       2.401   2.952  21.492  0.00  0.00    +0.000 C 
ATOM     10  C   UNL     1       2.771   4.394  21.183  0.00  0.00    +0.000 C 
BRANCH   6  16
ATOM     11  C   UNL     1       1.010   9.295  21.528  0.00  0.00    +0.000 C 
ATOM     12  C   UNL     1       1.449   8.437  20.378  0.00  0.00    +0.000 A 
ATOM     13  C   UNL     1       1.657   8.969  19.106  0.00  0.00    +0.000 A 
ATOM     14  C   UNL     1       2.066   8.141  18.062  0.00  0.00    +0.000 A 
ATOM     15  C   UNL     1       2.253   6.770  18.276  0.00  0.00    +0.000 A 
ATOM     16  C   UNL     1       2.025   6.199  19.539  0.00  0.00    +0.000 A 
ATOM     17  C   UNL     1       1.641   7.064  20.583  0.00  0.00    +0.000 A 
ENDBRANCH   6  16
ENDBRANCH   5   6
ENDBRANCH   1   5
BRANCH   2  18
ATOM     18  C   UNL     1       6.604   4.981  18.074  0.00  0.00    +0.000 C 
BRANCH  18  19
ATOM     19  C   UNL     1       6.687   4.833  16.604  0.00  0.00    +0.000 A 
ATOM     20  N   UNL     1       7.551   5.585  15.853  0.00  0.00    +0.000 NA
ATOM     21  C   UNL     1       7.356   5.144  14.626  0.00  0.00    +0.000 A 
ATOM     22  N   UNL     1       7.959   5.520  13.459  0.00  0.00    +0.000 NA
ATOM     23  C   UNL     1       7.548   4.902  12.389  0.00  0.00    +0.000 A 
ATOM     24  C   UNL     1       6.504   3.844  12.320  0.00  0.00    +0.000 A 
ATOM     25  C   UNL     1       5.951   3.509  13.496  0.00  0.00    +0.000 A 
ATOM     26  N   UNL     1       6.371   4.147  14.656  0.00  0.00    +0.000 N 
ATOM     27  N   UNL     1       5.963   3.940  15.927  0.00  0.00    +0.000 NA
ENDBRANCH  18  19
ENDBRANCH   2  18
TORSDOF 5
ENDMDL
MODEL 2
REMARK VINA RESULT:      -9.2      1.131      1.513
REMARK  Name = 
REMARK  6 active torsions:
REMARK  status: ('A' for Active; 'I' for Inactive)
REMARK    1  A    between atoms: C_1  and  C_2
REMARK    2  A    between atoms: C_6  and  C_7
REMARK    3  A    between atoms: C_7  and  C_8
REMARK    4  A    between atoms: C_8  and  N_9
REMARK    5  A    between atoms: C_10  and  C_12
REMARK    6  A    between atoms: C_12  and  C_13
REMARK                            x       y       z     vdW  Elec       q    Type
REMARK                         _______ _______ _______ _____ _____    ______ ____
ROOT
ATOM      1  N   UNL     1       5.336   3.825  18.840  0.00  0.00    +0.000 N 
ATOM      2  C   UNL     1       6.158   4.907  18.575  0.00  0.00    +0.000 C 
ATOM      3  O   UNL     1       5.863   6.057  18.903  0.00  0.00    +0.000 OA
ATOM      4  H   UNL     1       5.711   2.888  18.716  0.00  0.00    +0.000 HD
ENDROOT
BRANCH   1   5
ATOM      5  C   UNL     1       4.156   4.032  19.654  0.00  0.00    +0.000 C 
BRANCH   5   6
ATOM      6  C   UNL     1       2.834   4.356  18.903  0.00  0.00    +0.000 C 
ATOM      7  C   UNL     1       2.974   3.804  17.456  0.00  0.00    +0.000 C 
ATOM      8  C   UNL     1       2.640   2.312  17.535  0.00  0.00    +0.000 C 
ATOM      9  C   UNL     1       1.855   2.114  18.825  0.00  0.00    +0.000 C 
ATOM     10  C   UNL     1       1.638   3.507  19.392  0.00  0.00    +0.000 C 
BRANCH   6  16
ATOM     11  C   UNL     1       1.156   8.366  21.485  0.00  0.00    +0.000 C 
ATOM     12  C   UNL     1       1.710   7.809  20.206  0.00  0.00    +0.000 A 
ATOM     13  C   UNL     1       1.894   8.609  19.080  0.00  0.00    +0.000 A 
ATOM     14  C   UNL     1       2.413   8.057  17.909  0.00  0.00    +0.000 A 
ATOM     15  C   UNL     1       2.735   6.696  17.849  0.00  0.00    +0.000 A 
ATOM     16  C   UNL     1       2.534   5.858  18.958  0.00  0.00    +0.000 A 
ATOM     17  C   UNL     1       2.037   6.448  20.137  0.00  0.00    +0.000 A 
ENDBRANCH   6  16
ENDBRANCH   5   6
ENDBRANCH   1   5
BRANCH   2  18
ATOM     18  C   UNL     1       7.402   4.604  17.775  0.00  0.00    +0.000 C 
BRANCH  18  19
ATOM     19  C   UNL     1       7.103   4.486  16.331  0.00  0.00    +0.000 A 
ATOM     20  N   UNL     1       7.799   5.200  15.392  0.00  0.00    +0.000 NA
ATOM     21  C   UNL     1       7.272   4.802  14.250  0.00  0.00    +0.000 A 
ATOM     22  N   UNL     1       7.586   5.166  12.972  0.00  0.00    +0.000 NA
ATOM     23  C   UNL     1       6.878   4.601  12.035  0.00  0.00    +0.000 A 
ATOM     24  C   UNL     1       5.782   3.614  12.225  0.00  0.00    +0.000 A 
ATOM     25  C   UNL     1       5.520   3.287  13.500  0.00  0.00    +0.000 A 
ATOM     26  N   UNL     1       6.261   3.869  14.521  0.00  0.00    +0.000 N 
ATOM     27  N   UNL     1       6.173   3.657  15.852  0.00  0.00    +0.000 NA
ENDBRANCH  18  19
ENDBRANCH   2  18
TORSDOF 5
ENDMDL
MODEL 3
REMARK VINA RESULT:      -9.1      1.023      1.619
REMARK  Name = 
REMARK  6 active torsions:
REMARK  status: ('A' for Active; 'I' for Inactive)
REMARK    1  A    between atoms: C_1  and  C_2
REMARK    2  A    between atoms: C_6  and  C_7
REMARK    3  A    between atoms: C_7  and  C_8
REMARK    4  A    between atoms: C_8  and  N_9
REMARK    5  A    between atoms: C_10  and  C_12
REMARK    6  A    between atoms: C_12  and  C_13
REMARK                            x       y       z     vdW  Elec       q    Type
REMARK                         _______ _______ _______ _____ _____    ______ ____
ROOT
ATOM      1  N   UNL     1       4.770   5.500  18.280  0.00  0.00    +0.000 N 
ATOM      2  C   UNL     1       6.145   5.347  18.333  0.00  0.00    +0.000 C 
ATOM      3  O   UNL     1       6.705   4.708  19.225  0.00  0.00    +0.000 OA
ATOM      4  H   UNL     1       4.355   5.872  17.430  0.00  0.00    +0.000 HD
ENDROOT
BRANCH   1   5
ATOM      5  C   UNL     1       3.952   4.767  19.224  0.00  0.00    +0.000 C 
BRANCH   5   6
ATOM      6  C   UNL     1       2.421   5.027  19.176  0.00  0.00    +0.000 C 
ATOM      7  C   UNL     1       1.871   4.331  17.899  0.00  0.00    +0.000 C 
ATOM      8  C   UNL     1       1.675   2.858  18.267  0.00  0.00    +0.000 C 
ATOM      9  C   UNL     1       1.614   2.798  19.787  0.00  0.00    +0.000 C 
ATOM     10  C   UNL     1       1.641   4.244  20.257  0.00  0.00    +0.000 C 
BRANCH   6  16
ATOM     11  C   UNL     1       0.941   9.080  21.811  0.00  0.00    +0.000 C 
ATOM     12  C   UNL     1       1.396   8.503  20.503  0.00  0.00    +0.000 A 
ATOM     13  C   UNL     1       1.494   9.284  19.353  0.00  0.00    +0.000 A 
ATOM     14  C   UNL     1       1.923   8.712  18.156  0.00  0.00    +0.000 A 
ATOM     15  C   UNL     1       2.240   7.350  18.094  0.00  0.00    +0.000 A 
ATOM     16  C   UNL     1       2.125   6.530  19.229  0.00  0.00    +0.000 A 
ATOM     17  C   UNL     1       1.718   7.140  20.432  0.00  0.00    +0.000 A 
ENDBRANCH   6  16
ENDBRANCH   5   6
ENDBRANCH   1   5
BRANCH   2  18
ATOM     18  C   UNL     1       6.928   6.090  17.278  0.00  0.00    +0.000 C 
BRANCH  18  19
ATOM     19  C   UNL     1       6.784   5.457  15.949  0.00  0.00    +0.000 A 
ATOM     20  N   UNL     1       5.691   4.697  15.628  0.00  0.00    +0.000 NA
ATOM     21  C   UNL     1       5.915   4.350  14.375  0.00  0.00    +0.000 A 
ATOM     22  N   UNL     1       5.148   3.600  13.530  0.00  0.00    +0.000 NA
ATOM     23  C   UNL     1       5.639   3.418  12.337  0.00  0.00    +0.000 A 
ATOM     24  C   UNL     1       6.932   3.941  11.819  0.00  0.00    +0.000 A 
ATOM     25  C   UNL     1       7.641   4.677  12.690  0.00  0.00    +0.000 A 
ATOM     26  N   UNL     1       7.141   4.893  13.968  0.00  0.00    +0.000 N 
ATOM     27  N   UNL     1       7.681   5.616  14.973  0.00  0.00    +0.000 NA
ENDBRANCH  18  19
ENDBRANCH   2  18
TORSDOF 5
ENDMDL
MODEL 4
REMARK VINA RESULT:      -9.0      1.062      1.785
REMARK  Name = 
REMARK  6 active torsions:
REMARK  status: ('A' for Active; 'I' for Inactive)
REMARK    1  A    between atoms: C_1  and  C_2
REMARK    2  A    between atoms: C_6  and  C_7
REMARK    3  A    between atoms: C_7  and  C_8
REMARK    4  A    between atoms: C_8  and  N_9
REMARK    5  A    between atoms: C_10  and  C_12
REMARK    6  A    between atoms: C_12  and  C_13
REMARK                            x       y       z     vdW  Elec       q    Type
REMARK                         _______ _______ _______ _____ _____    ______ ____
ROOT
ATOM      1  N   UNL     1       4.846   5.694  18.487  0.00  0.00    +0.000 N 
ATOM      2  C   UNL     1       6.145   5.269  18.261  0.00  0.00    +0.000 C 
ATOM      3  O   UNL     1       6.670   4.369  18.918  0.00  0.00    +0.000 OA
ATOM      4  H   UNL     1       4.408   6.301  17.800  0.00  0.00    +0.000 HD
ENDROOT
BRANCH   1   5
ATOM      5  C   UNL     1       4.030   4.961  19.433  0.00  0.00    +0.000 C 
BRANCH   5   6
ATOM      6  C   UNL     1       2.490   5.082  19.271  0.00  0.00    +0.000 C 
ATOM      7  C   UNL     1       2.137   4.633  17.825  0.00  0.00    +0.000 C 
ATOM      8  C   UNL     1       2.079   3.102  17.856  0.00  0.00    +0.000 C 
ATOM      9  C   UNL     1       1.892   2.709  19.315  0.00  0.00    +0.000 C 
ATOM     10  C   UNL     1       1.712   4.013  20.074  0.00  0.00    +0.000 C 
BRANCH   6  16
ATOM     11  C   UNL     1       1.898   9.904  17.870  0.00  0.00    +0.000 C 
ATOM     12  C   UNL     1       1.739   8.852  18.928  0.00  0.00    +0.000 A 
ATOM     13  C   UNL     1       1.238   9.156  20.192  0.00  0.00    +0.000 A 
ATOM     14  C   UNL     1       1.104   8.150  21.150  0.00  0.00    +0.000 A 
ATOM     15  C   UNL     1       1.486   6.836  20.857  0.00  0.00    +0.000 A 
ATOM     16  C   UNL     1       2.020   6.504  19.600  0.00  0.00    +0.000 A 
ATOM     17  C   UNL     1       2.117   7.533  18.643  0.00  0.00    +0.000 A 
ENDBRANCH   6  16
ENDBRANCH   5   6
ENDBRANCH   1   5
BRANCH   2  18
ATOM     18  C   UNL     1       6.913   6.041  17.216  0.00  0.00    +0.000 C 
BRANCH  18  19
ATOM     19  C   UNL     1       6.749   5.447  15.871  0.00  0.00    +0.000 A 
ATOM     20  N   UNL     1       7.698   5.600  14.896  0.00  0.00    +0.000 NA
ATOM     21  C   UNL     1       7.211   4.910  13.882  0.00  0.00    +0.000 A 
ATOM     22  N   UNL     1       7.741   4.694  12.642  0.00  0.00    +0.000 NA
ATOM     23  C   UNL     1       7.016   3.967  11.839  0.00  0.00    +0.000 A 
ATOM     24  C   UNL     1       5.692   3.361  12.143  0.00  0.00    +0.000 A 
ATOM     25  C   UNL     1       5.223   3.600  13.378  0.00  0.00    +0.000 A 
ATOM     26  N   UNL     1       5.975   4.367  14.258  0.00  0.00    +0.000 N 
ATOM     27  N   UNL     1       5.695   4.698  15.538  0.00  0.00    +0.000 NA
ENDBRANCH  18  19
ENDBRANCH   2  18
TORSDOF 5
ENDMDL
MODEL 5
REMARK VINA RESULT:      -8.9      1.171      2.032
REMARK  Name = 
REMARK  6 active torsions:
REMARK  status: ('A' for Active; 'I' for Inactive)
REMARK    1  A    between atoms: C_1  and  C_2
REMARK    2  A    between atoms: C_6  and  C_7
REMARK    3  A    between atoms: C_7  and  C_8
REMARK    4  A    between atoms: C_8  and  N_9
REMARK    5  A    between atoms: C_10  and  C_12
REMARK    6  A    between atoms: C_12  and  C_13
REMARK                            x       y       z     vdW  Elec       q    Type
REMARK                         _______ _______ _______ _____ _____    ______ ____
ROOT
ATOM      1  N   UNL     1       5.328   3.701  18.819  0.00  0.00    +0.000 N 
ATOM      2  C   UNL     1       6.087   4.857  18.750  0.00  0.00    +0.000 C 
ATOM      3  O   UNL     1       5.715   5.922  19.245  0.00  0.00    +0.000 OA
ATOM      4  H   UNL     1       5.762   2.819  18.561  0.00  0.00    +0.000 HD
ENDROOT
BRANCH   1   5
ATOM      5  C   UNL     1       4.122   3.708  19.621  0.00  0.00    +0.000 C 
BRANCH   5   6
ATOM      6  C   UNL     1       2.803   4.101  18.899  0.00  0.00    +0.000 C 
ATOM      7  C   UNL     1       3.030   3.902  17.374  0.00  0.00    +0.000 C 
ATOM      8  C   UNL     1       2.812   2.411  17.102  0.00  0.00    +0.000 C 
ATOM      9  C   UNL     1       2.006   1.872  18.276  0.00  0.00    +0.000 C 
ATOM     10  C   UNL     1       1.663   3.082  19.129  0.00  0.00    +0.000 C 
BRANCH   6  16
ATOM     11  C   UNL     1       2.298   8.966  17.619  0.00  0.00    +0.000 C 
ATOM     12  C   UNL     1       2.145   7.896  18.660  0.00  0.00    +0.000 A 
ATOM     13  C   UNL     1       1.695   8.186  19.947  0.00  0.00    +0.000 A 
ATOM     14  C   UNL     1       1.565   7.164  20.887  0.00  0.00    +0.000 A 
ATOM     15  C   UNL     1       1.901   5.847  20.554  0.00  0.00    +0.000 A 
ATOM     16  C   UNL     1       2.384   5.527  19.274  0.00  0.00    +0.000 A 
ATOM     17  C   UNL     1       2.478   6.573  18.335  0.00  0.00    +0.000 A 
ENDBRANCH   6  16
ENDBRANCH   5   6
ENDBRANCH   1   5
BRANCH   2  18
ATOM     18  C   UNL     1       7.363   4.756  17.949  0.00  0.00    +0.000 C 
BRANCH  18  19
ATOM     19  C   UNL     1       7.085   4.612  16.503  0.00  0.00    +0.000 A 
ATOM     20  N   UNL     1       7.754   5.351  15.564  0.00  0.00    +0.000 NA
ATOM     21  C   UNL     1       7.259   4.917  14.421  0.00  0.00    +0.000 A 
ATOM     22  N   UNL     1       7.568   5.286  13.143  0.00  0.00    +0.000 NA
ATOM     23  C   UNL     1       6.899   4.678  12.204  0.00  0.00    +0.000 A 
ATOM     24  C   UNL     1       5.851   3.639  12.391  0.00  0.00    +0.000 A 
ATOM     25  C   UNL     1       5.593   3.310  13.667  0.00  0.00    +0.000 A 
ATOM     26  N   UNL     1       6.294   3.937  14.690  0.00  0.00    +0.000 N 
ATOM     27  N   UNL     1       6.202   3.733  16.022  0.00  0.00    +0.000 NA
ENDBRANCH  18  19
ENDBRANCH   2  18
TORSDOF 5
ENDMDL
MODEL 6
REMARK VINA RESULT:      -8.9      1.121      2.104
REMARK  Name = 
REMARK  6 active torsions:
REMARK  status: ('A' for Active; 'I' for Inactive)
REMARK    1  A    between atoms: C_1  and  C_2
REMARK    2  A    between atoms: C_6  and  C_7
REMARK    3  A    between atoms: C_7  and  C_8
REMARK    4  A    between atoms: C_8  and  N_9
REMARK    5  A    between atoms: C_10  and  C_12
REMARK    6  A    between atoms: C_12  and  C_13
REMARK                            x       y       z     vdW  Elec       q    Type
REMARK                         _______ _______ _______ _____ _____    ______ ____
ROOT
ATOM      1  N   UNL     1       4.892   5.647  18.615  0.00  0.00    +0.000 N 
ATOM      2  C   UNL     1       6.256   5.451  18.745  0.00  0.00    +0.000 C 
ATOM      3  O   UNL     1       6.746   4.825  19.687  0.00  0.00    +0.000 OA
ATOM      4  H   UNL     1       4.535   6.004  17.733  0.00  0.00    +0.000 HD
ENDROOT
BRANCH   1   5
ATOM      5  C   UNL     1       4.001   4.975  19.538  0.00  0.00    +0.000 C 
BRANCH   5   6
ATOM      6  C   UNL     1       2.477   5.122  19.275  0.00  0.00    +0.000 C 
ATOM      7  C   UNL     1       2.219   4.713  17.797  0.00  0.00    +0.000 C 
ATOM      8  C   UNL     1       2.140   3.184  17.785  0.00  0.00    +0.000 C 
ATOM      9  C   UNL     1       1.848   2.757  19.218  0.00  0.00    +0.000 C 
ATOM     10  C   UNL     1       1.633   4.045  19.995  0.00  0.00    +0.000 C 
BRANCH   6  16
ATOM     11  C   UNL     1       1.855   9.941  17.877  0.00  0.00    +0.000 C 
ATOM     12  C   UNL     1       1.708   8.888  18.936  0.00  0.00    +0.000 A 
ATOM     13  C   UNL     1       1.214   9.190  20.204  0.00  0.00    +0.000 A 
ATOM     14  C   UNL     1       1.090   8.185  21.162  0.00  0.00    +0.000 A 
ATOM     15  C   UNL     1       1.476   6.872  20.867  0.00  0.00    +0.000 A 
ATOM     16  C   UNL     1       2.003   6.542  19.607  0.00  0.00    +0.000 A 
ATOM     17  C   UNL     1       2.090   7.571  18.649  0.00  0.00    +0.000 A 
ENDBRANCH   6  16
ENDBRANCH   5   6
ENDBRANCH   1   5
BRANCH   2  18
ATOM     18  C   UNL     1       7.118   6.131  17.710  0.00  0.00    +0.000 C 
BRANCH  18  19
ATOM     19  C   UNL     1       6.945   5.519  16.374  0.00  0.00    +0.000 A 
ATOM     20  N   UNL     1       5.921   4.649  16.108  0.00  0.00    +0.000 NA
ATOM     21  C   UNL     1       6.086   4.361  14.831  0.00  0.00    +0.000 A 
ATOM     22  N   UNL     1       5.345   3.552  14.018  0.00  0.00    +0.000 NA
ATOM     23  C   UNL     1       5.762   3.456  12.787  0.00  0.00    +0.000 A 
ATOM     24  C   UNL     1       6.946   4.135  12.196  0.00  0.00    +0.000 A 
ATOM     25  C   UNL     1       7.633   4.923  13.038  0.00  0.00    +0.000 A 
ATOM     26  N   UNL     1       7.211   5.049  14.355  0.00  0.00    +0.000 N 
ATOM     27  N   UNL     1       7.743   5.803  15.342  0.00  0.00    +0.000 NA
ENDBRANCH  18  19
ENDBRANCH   2  18
TORSDOF 5
ENDMDL
MODEL 7
REMARK VINA RESULT:      -8.9      0.538      1.174
REMARK  Name = 
REMARK  6 active torsions:
REMARK  status: ('A' for Active; 'I' for Inactive)
REMARK    1  A    between atoms: C_1  and  C_2
REMARK    2  A    between atoms: C_6  and  C_7
REMARK    3  A    between atoms: C_7  and  C_8
REMARK    4  A    between atoms: C_8  and  N_9
REMARK    5  A    between atoms: C_10  and  C_12
REMARK    6  A    between atoms: C_12  and  C_13
REMARK                            x       y       z     vdW  Elec       q    Type
REMARK                         _______ _______ _______ _____ _____    ______ ____
ROOT
ATOM      1  N   UNL     1       4.185   4.679  18.052  0.00  0.00    +0.000 N 
ATOM      2  C   UNL     1       5.439   4.294  18.497  0.00  0.00    +0.000 C 
ATOM      3  O   UNL     1       5.595   3.456  19.387  0.00  0.00    +0.000 OA
ATOM      4  H   UNL     1       4.120   5.226  17.198  0.00  0.00    +0.000 HD
ENDROOT
BRANCH   1   5
ATOM      5  C   UNL     1       3.024   3.971  18.550  0.00  0.00    +0.000 C 
BRANCH   5   6
ATOM      6  C   UNL     1       2.244   4.638  19.716  0.00  0.00    +0.000 C 
ATOM      7  C   UNL     1       0.891   3.885  19.862  0.00  0.00    +0.000 C 
ATOM      8  C   UNL     1       1.189   2.632  20.691  0.00  0.00    +0.000 C 
ATOM      9  C   UNL     1       2.500   2.898  21.419  0.00  0.00    +0.000 C 
ATOM     10  C   UNL     1       2.860   4.340  21.103  0.00  0.00    +0.000 C 
BRANCH   6  16
ATOM     11  C   UNL     1       1.066   9.233  21.468  0.00  0.00    +0.000 C 
ATOM     12  C   UNL     1       1.501   8.377  20.314  0.00  0.00    +0.000 A 
ATOM     13  C   UNL     1       1.697   8.911  19.042  0.00  0.00    +0.000 A 
ATOM     14  C   UNL     1       2.102   8.085  17.994  0.00  0.00    +0.000 A 
ATOM     15  C   UNL     1       2.298   6.715  18.206  0.00  0.00    +0.000 A 
ATOM     16  C   UNL     1       2.082   6.143  19.470  0.00  0.00    +0.000 A 
ATOM     17  C   UNL     1       1.701   7.005  20.517  0.00  0.00    +0.000 A 
ENDBRANCH   6  16
ENDBRANCH   5   6
ENDBRANCH   1   5
BRANCH   2  18
ATOM     18  C   UNL     1       6.605   5.032  17.887  0.00  0.00    +0.000 C 
BRANCH  18  19
ATOM     19  C   UNL     1       6.699   4.792  16.431  0.00  0.00    +0.000 A 
ATOM     20  N   UNL     1       5.916   3.859  15.804  0.00  0.00    +0.000 NA
ATOM     21  C   UNL     1       6.263   3.968  14.536  0.00  0.00    +0.000 A 
ATOM     22  N   UNL     1       5.795   3.294  13.444  0.00  0.00    +0.000 NA
ATOM     23  C   UNL     1       6.341   3.617  12.306  0.00  0.00    +0.000 A 
ATOM     24  C   UNL     1       7.405   4.634  12.089  0.00  0.00    +0.000 A 
ATOM     25  C   UNL     1       7.822   5.270  13.195  0.00  0.00    +0.000 A 
ATOM     26  N   UNL     1       7.256   4.951  14.423  0.00  0.00    +0.000 N 
ATOM     27  N   UNL     1       7.515   5.487  15.635  0.00  0.00    +0.000 NA
ENDBRANCH  18  19
ENDBRANCH   2  18
TORSDOF 5
ENDMDL
MODEL 8
REMARK VINA RESULT:      -8.8      3.111      7.784
REMARK  Name = 
REMARK  6 active torsions:
REMARK  status: ('A' for Active; 'I' for Inactive)
REMARK    1  A    between atoms: C_1  and  C_2
REMARK    2  A    between atoms: C_6  and  C_7
REMARK    3  A    between atoms: C_7  and  C_8
REMARK    4  A    between atoms: C_8  and  N_9
REMARK    5  A    between atoms: C_10  and  C_12
REMARK    6  A    between atoms: C_12  and  C_13
REMARK                            x       y       z     vdW  Elec       q    Type
REMARK                         _______ _______ _______ _____ _____    ______ ____
ROOT
ATOM      1  N   UNL     1       2.588   6.337  18.967  0.00  0.00    +0.000 N 
ATOM      2  C   UNL     1       3.040   7.400  18.204  0.00  0.00    +0.000 C 
ATOM      3  O   UNL     1       4.229   7.548  17.915  0.00  0.00    +0.000 OA
ATOM      4  H   UNL     1       1.588   6.165  19.015  0.00  0.00    +0.000 HD
ENDROOT
BRANCH   1   5
ATOM      5  C   UNL     1       3.522   5.286  19.317  0.00  0.00    +0.000 C 
BRANCH   5   6
ATOM      6  C   UNL     1       3.657   4.106  18.315  0.00  0.00    +0.000 C 
ATOM      7  C   UNL     1       3.645   2.790  19.143  0.00  0.00    +0.000 C 
ATOM      8  C   UNL     1       2.172   2.473  19.419  0.00  0.00    +0.000 C 
ATOM      9  C   UNL     1       1.364   3.251  18.390  0.00  0.00    +0.000 C 
ATOM     10  C   UNL     1       2.385   3.890  17.462  0.00  0.00    +0.000 C 
BRANCH   6  16
ATOM     11  C   UNL     1       5.846   3.965  13.760  0.00  0.00    +0.000 C 
ATOM     12  C   UNL     1       5.981   4.195  15.237  0.00  0.00    +0.000 A 
ATOM     13  C   UNL     1       7.211   4.492  15.821  0.00  0.00    +0.000 A 
ATOM     14  C   UNL     1       7.298   4.701  17.197  0.00  0.00    +0.000 A 
ATOM     15  C   UNL     1       6.159   4.597  18.003  0.00  0.00    +0.000 A 
ATOM     16  C   UNL     1       4.910   4.272  17.448  0.00  0.00    +0.000 A 
ATOM     17  C   UNL     1       4.846   4.095  16.052  0.00  0.00    +0.000 A 
ENDBRANCH   6  16
ENDBRANCH   5   6
ENDBRANCH   1   5
BRANCH   2  18
ATOM     18  C   UNL     1       1.998   8.424  17.824  0.00  0.00    +0.000 C 
BRANCH  18  19
ATOM     19  C   UNL     1       1.359   9.017  19.019  0.00  0.00    +0.000 A 
ATOM     20  N   UNL     1       0.656  10.191  18.951  0.00  0.00    +0.000 NA
ATOM     21  C   UNL     1       0.224  10.362  20.186  0.00  0.00    +0.000 A 
ATOM     22  N   UNL     1      -0.548  11.361  20.707  0.00  0.00    +0.000 NA
ATOM     23  C   UNL     1      -0.812  11.262  21.979  0.00  0.00    +0.000 A 
ATOM     24  C   UNL     1      -0.361  10.184  22.899  0.00  0.00    +0.000 A 
ATOM     25  C   UNL     1       0.388   9.225  22.332  0.00  0.00    +0.000 A 
ATOM     26  N   UNL     1       0.683   9.299  20.976  0.00  0.00    +0.000 N 
ATOM     27  N   UNL     1       1.391   8.433  20.219  0.00  0.00    +0.000 NA
ENDBRANCH  18  19
ENDBRANCH   2  18
TORSDOF 5
ENDMDL
MODEL 9
REMARK VINA RESULT:      -8.7      3.144      7.776
REMARK  Name = 
REMARK  6 active torsions:
REMARK  status: ('A' for Active; 'I' for Inactive)
REMARK    1  A    between atoms: C_1  and  C_2
REMARK    2  A    between atoms: C_6  and  C_7
REMARK    3  A    between atoms: C_7  and  C_8
REMARK    4  A    between atoms: C_8  and  N_9
REMARK    5  A    between atoms: C_10  and  C_12
REMARK    6  A    between atoms: C_12  and  C_13
REMARK                            x       y       z     vdW  Elec       q    Type
REMARK                         _______ _______ _______ _____ _____    ______ ____
ROOT
ATOM      1  N   UNL     1       2.387   6.381  18.913  0.00  0.00    +0.000 N 
ATOM      2  C   UNL     1       2.892   7.439  18.176  0.00  0.00    +0.000 C 
ATOM      3  O   UNL     1       4.101   7.609  18.008  0.00  0.00    +0.000 OA
ATOM      4  H   UNL     1       1.391   6.186  18.861  0.00  0.00    +0.000 HD
ENDROOT
BRANCH   1   5
ATOM      5  C   UNL     1       3.302   5.362  19.383  0.00  0.00    +0.000 C 
BRANCH   5   6
ATOM      6  C   UNL     1       3.528   4.139  18.452  0.00  0.00    +0.000 C 
ATOM      7  C   UNL     1       3.509   2.865  19.345  0.00  0.00    +0.000 C 
ATOM      8  C   UNL     1       2.033   2.515  19.556  0.00  0.00    +0.000 C 
ATOM      9  C   UNL     1       1.261   3.214  18.445  0.00  0.00    +0.000 C 
ATOM     10  C   UNL     1       2.313   3.839  17.543  0.00  0.00    +0.000 C 
BRANCH   6  16
ATOM     11  C   UNL     1       5.931   4.021  14.005  0.00  0.00    +0.000 C 
ATOM     12  C   UNL     1       5.998   4.236  15.489  0.00  0.00    +0.000 A 
ATOM     13  C   UNL     1       7.201   4.518  16.134  0.00  0.00    +0.000 A 
ATOM     14  C   UNL     1       7.223   4.714  17.514  0.00  0.00    +0.000 A 
ATOM     15  C   UNL     1       6.046   4.612  18.264  0.00  0.00    +0.000 A 
ATOM     16  C   UNL     1       4.822   4.302  17.647  0.00  0.00    +0.000 A 
ATOM     17  C   UNL     1       4.824   4.138  16.248  0.00  0.00    +0.000 A 
ENDBRANCH   6  16
ENDBRANCH   5   6
ENDBRANCH   1   5
BRANCH   2  18
ATOM     18  C   UNL     1       1.872   8.427  17.664  0.00  0.00    +0.000 C 
BRANCH  18  19
ATOM     19  C   UNL     1       1.191   9.128  18.775  0.00  0.00    +0.000 A 
ATOM     20  N   UNL     1       1.513   8.884  20.084  0.00  0.00    +0.000 NA
ATOM     21  C   UNL     1       0.730   9.709  20.752  0.00  0.00    +0.000 A 
ATOM     22  N   UNL     1       0.629   9.916  22.098  0.00  0.00    +0.000 NA
ATOM     23  C   UNL     1      -0.250  10.804  22.467  0.00  0.00    +0.000 A 
ATOM     24  C   UNL     1      -1.136  11.600  21.576  0.00  0.00    +0.000 A 
ATOM     25  C   UNL     1      -0.989  11.362  20.263  0.00  0.00    +0.000 A 
ATOM     26  N   UNL     1      -0.057  10.424  19.838  0.00  0.00    +0.000 N 
ATOM     27  N   UNL     1       0.258  10.061  18.575  0.00  0.00    +0.000 NA
ENDBRANCH  18  19
ENDBRANCH   2  18
TORSDOF 5
ENDMDL
