MODEL 1
REMARK VINA RESULT:      -8.6      0.000      0.000
REMARK  Name = 
REMARK  3 active torsions:
REMARK  status: ('A' for Active; 'I' for Inactive)
REMARK    1  A    between atoms: C_2  and  C_3
REMARK    2  A    between atoms: C_3  and  C_4
REMARK    3  A    between atoms: C_17  and  C_18
REMARK                            x       y       z     vdW  Elec       q    Type
REMARK                         _______ _______ _______ _____ _____    ______ ____
ROOT
ATOM      1  O   UNL     1       0.418   9.395  21.839  0.00  0.00    +0.000 OA
ATOM      2  C   UNL     1       0.958   8.679  20.978  0.00  0.00    +0.000 C 
ATOM      3  N   UNL     1       1.238   7.382  21.304  0.00  0.00    +0.000 N 
ATOM      4  C   UNL     1       1.856   6.504  20.458  0.00  0.00    +0.000 A 
ATOM      5  N   UNL     1       2.601   6.785  19.423  0.00  0.00    +0.000 NA
ATOM      6  C   UNL     1       2.998   5.624  18.800  0.00  0.00    +0.000 A 
ATOM      7  C   UNL     1       2.482   4.472  19.361  0.00  0.00    +0.000 A 
ATOM      8  S   UNL     1       1.598   4.860  20.786  0.00  0.00    +0.000 S 
ATOM      9  H   UNL     1       0.879   7.051  22.186  0.00  0.00    +0.000 HD
ENDROOT
BRANCH   6  10
ATOM     10  C   UNL     1       3.906   5.649  17.659  0.00  0.00    +0.000 A 
ATOM     11  C   UNL     1       4.434   6.881  17.215  0.00  0.00    +0.000 A 
ATOM     12  C   UNL     1       5.296   6.945  16.116  0.00  0.00    +0.000 A 
ATOM     13  C   UNL     1       5.591   5.764  15.476  0.00  0.00    +0.000 A 
ATOM     14  C   UNL     1       5.063   4.539  15.883  0.00  0.00    +0.000 A 
ATOM     15  C   UNL     1       4.222   4.459  16.980  0.00  0.00    +0.000 A 
ATOM     16  C   UNL     1       5.544   3.461  14.953  0.00  0.00    +0.000 C 
ATOM     17  C   UNL     1       6.458   4.239  13.990  0.00  0.00    +0.000 C 
ATOM     18  O   UNL     1       7.095   3.787  13.067  0.00  0.00    +0.000 OA
ATOM     19  N   UNL     1       6.406   5.580  14.373  0.00  0.00    +0.000 N 
ATOM     20  H   UNL     1       6.919   6.301  13.887  0.00  0.00    +0.000 HD
ENDBRANCH   6  10
BRANCH   2  21
ATOM     21  C   UNL     1       1.245   9.176  19.564  0.00  0.00    +0.000 C 
BRANCH  21  22
ATOM     22  C   UNL     1       0.267  10.173  18.965  0.00  0.00    +0.000 A 
ATOM     23  C   UNL     1      -0.890   9.690  18.336  0.00  0.00    +0.000 A 
ATOM     24  C   UNL     1      -1.817  10.557  17.778  0.00  0.00    +0.000 A 
ATOM     25  C   UNL     1      -1.613  11.930  17.854  0.00  0.00    +0.000 A 
ATOM     26  C   UNL     1      -0.492  12.455  18.512  0.00  0.00    +0.000 A 
ATOM     27  C   UNL     1      -0.336  13.850  18.618  0.00  0.00    +0.000 A 
ATOM     28  C   UNL     1       0.757  14.403  19.282  0.00  0.00    +0.000 A 
ATOM     29  C   UNL     1       1.714  13.572  19.841  0.00  0.00    +0.000 A 
ATOM     30  C   UNL     1       1.574  12.183  19.739  0.00  0.00    +0.000 A 
ATOM     31  C   UNL     1       0.473  11.584  19.077  0.00  0.00    +0.000 A 
ENDBRANCH  21  22
ENDBRANCH   2  21
TORSDOF 3
ENDMDL
MODEL 2
REMARK VINA RESULT:      -8.4      3.351      8.340
REMARK  Name = 
REMARK  3 active torsions:
REMARK  status: ('A' for Active; 'I' for Inactive)
REMARK    1  A    between atoms: C_2  and  C_3
REMARK    2  A    between atoms: C_3  and  C_4
REMARK    3  A    between atoms: C_17  and  C_18
REMARK                            x       y       z     vdW  Elec       q    Type
REMARK                         _______ _______ _______ _____ _____    ______ ____
ROOT
ATOM      1  O   UNL     1       2.535   6.685  21.141  0.00  0.00    +0.000 OA
ATOM      2  C   UNL     1       1.802   7.498  20.551  0.00  0.00    +0.000 C 
ATOM      3  N   UNL     1       1.202   8.478  21.289  0.00  0.00    +0.000 N 
ATOM      4  C   UNL     1       0.351   9.410  20.765  0.00  0.00    +0.000 A 
ATOM      5  N   UNL     1      -0.324   9.335  19.651  0.00  0.00    +0.000 NA
ATOM      6  C   UNL     1      -1.030  10.499  19.447  0.00  0.00    +0.000 A 
ATOM      7  C   UNL     1      -0.816  11.469  20.408  0.00  0.00    +0.000 A 
ATOM      8  S   UNL     1       0.180  10.839  21.663  0.00  0.00    +0.000 S 
ATOM      9  H   UNL     1       1.488   8.554  22.253  0.00  0.00    +0.000 HD
ENDROOT
BRANCH   6  10
ATOM     10  C   UNL     1      -1.933  10.649  18.312  0.00  0.00    +0.000 A 
ATOM     11  C   UNL     1      -3.094  11.442  18.443  0.00  0.00    +0.000 A 
ATOM     12  C   UNL     1      -3.989  11.596  17.382  0.00  0.00    +0.000 A 
ATOM     13  C   UNL     1      -3.702  10.929  16.213  0.00  0.00    +0.000 A 
ATOM     14  C   UNL     1      -2.574  10.122  16.067  0.00  0.00    +0.000 A 
ATOM     15  C   UNL     1      -1.671   9.975  17.107  0.00  0.00    +0.000 A 
ATOM     16  C   UNL     1      -2.580   9.509  14.696  0.00  0.00    +0.000 C 
ATOM     17  C   UNL     1      -3.844  10.119  14.066  0.00  0.00    +0.000 C 
ATOM     18  O   UNL     1      -4.260   9.933  12.946  0.00  0.00    +0.000 OA
ATOM     19  N   UNL     1      -4.436  10.924  15.039  0.00  0.00    +0.000 N 
ATOM     20  H   UNL     1      -5.292  11.433  14.872  0.00  0.00    +0.000 HD
ENDBRANCH   6  10
BRANCH   2  21
ATOM     21  C   UNL     1       1.613   7.478  19.037  0.00  0.00    +0.000 C 
BRANCH  21  22
ATOM     22  C   UNL     1       2.633   6.705  18.218  0.00  0.00    +0.000 A 
ATOM     23  C   UNL     1       3.723   7.397  17.669  0.00  0.00    +0.000 A 
ATOM     24  C   UNL     1       4.685   6.739  16.918  0.00  0.00    +0.000 A 
ATOM     25  C   UNL     1       4.585   5.367  16.716  0.00  0.00    +0.000 A 
ATOM     26  C   UNL     1       3.536   4.631  17.284  0.00  0.00    +0.000 A 
ATOM     27  C   UNL     1       3.487   3.236  17.106  0.00  0.00    +0.000 A 
ATOM     28  C   UNL     1       2.468   2.473  17.673  0.00  0.00    +0.000 A 
ATOM     29  C   UNL     1       1.478   3.094  18.418  0.00  0.00    +0.000 A 
ATOM     30  C   UNL     1       1.512   4.481  18.599  0.00  0.00    +0.000 A 
ATOM     31  C   UNL     1       2.535   5.289  18.043  0.00  0.00    +0.000 A 
ENDBRANCH  21  22
ENDBRANCH   2  21
TORSDOF 3
ENDMDL
MODEL 3
REMARK VINA RESULT:      -8.4      3.100      7.935
REMARK  Name = 
REMARK  3 active torsions:
REMARK  status: ('A' for Active; 'I' for Inactive)
REMARK    1  A    between atoms: C_2  and  C_3
REMARK    2  A    between atoms: C_3  and  C_4
REMARK    3  A    between atoms: C_17  and  C_18
REMARK                            x       y       z     vdW  Elec       q    Type
REMARK                         _______ _______ _______ _____ _____    ______ ____
ROOT
ATOM      1  O   UNL     1       2.532   5.132  21.228  0.00  0.00    +0.000 OA
ATOM      2  C   UNL     1       2.024   6.161  20.751  0.00  0.00    +0.000 C 
ATOM      3  N   UNL     1       1.619   7.139  21.615  0.00  0.00    +0.000 N 
ATOM      4  C   UNL     1       1.020   8.302  21.218  0.00  0.00    +0.000 A 
ATOM      5  N   UNL     1       0.397   8.534  20.095  0.00  0.00    +0.000 NA
ATOM      6  C   UNL     1      -0.025   9.844  20.052  0.00  0.00    +0.000 A 
ATOM      7  C   UNL     1       0.351  10.599  21.146  0.00  0.00    +0.000 A 
ATOM      8  S   UNL     1       1.125   9.595  22.311  0.00  0.00    +0.000 S 
ATOM      9  H   UNL     1       1.870   7.016  22.584  0.00  0.00    +0.000 HD
ENDROOT
BRANCH   6  10
ATOM     10  C   UNL     1      -0.819  10.347  18.937  0.00  0.00    +0.000 A 
ATOM     11  C   UNL     1      -1.277  11.683  18.953  0.00  0.00    +0.000 A 
ATOM     12  C   UNL     1      -2.051  12.195  17.909  0.00  0.00    +0.000 A 
ATOM     13  C   UNL     1      -2.365  11.339  16.878  0.00  0.00    +0.000 A 
ATOM     14  C   UNL     1      -1.944  10.010  16.852  0.00  0.00    +0.000 A 
ATOM     15  C   UNL     1      -1.161   9.496  17.872  0.00  0.00    +0.000 A 
ATOM     16  C   UNL     1      -2.489   9.344  15.621  0.00  0.00    +0.000 C 
ATOM     17  C   UNL     1      -3.239  10.494  14.926  0.00  0.00    +0.000 C 
ATOM     18  O   UNL     1      -3.833  10.445  13.875  0.00  0.00    +0.000 OA
ATOM     19  N   UNL     1      -3.118  11.614  15.749  0.00  0.00    +0.000 N 
ATOM     20  H   UNL     1      -3.535  12.504  15.516  0.00  0.00    +0.000 HD
ENDBRANCH   6  10
BRANCH   2  21
ATOM     21  C   UNL     1       1.906   6.394  19.248  0.00  0.00    +0.000 C 
BRANCH  21  22
ATOM     22  C   UNL     1       2.444   5.307  18.331  0.00  0.00    +0.000 A 
ATOM     23  C   UNL     1       1.707   4.123  18.180  0.00  0.00    +0.000 A 
ATOM     24  C   UNL     1       2.150   3.103  17.352  0.00  0.00    +0.000 A 
ATOM     25  C   UNL     1       3.335   3.256  16.642  0.00  0.00    +0.000 A 
ATOM     26  C   UNL     1       4.080   4.441  16.730  0.00  0.00    +0.000 A 
ATOM     27  C   UNL     1       5.249   4.589  15.961  0.00  0.00    +0.000 A 
ATOM     28  C   UNL     1       6.001   5.760  16.011  0.00  0.00    +0.000 A 
ATOM     29  C   UNL     1       5.601   6.798  16.837  0.00  0.00    +0.000 A 
ATOM     30  C   UNL     1       4.442   6.664  17.611  0.00  0.00    +0.000 A 
ATOM     31  C   UNL     1       3.649   5.489  17.582  0.00  0.00    +0.000 A 
ENDBRANCH  21  22
ENDBRANCH   2  21
TORSDOF 3
ENDMDL
MODEL 4
REMARK VINA RESULT:      -8.3      0.932      2.155
REMARK  Name = 
REMARK  3 active torsions:
REMARK  status: ('A' for Active; 'I' for Inactive)
REMARK    1  A    between atoms: C_2  and  C_3
REMARK    2  A    between atoms: C_3  and  C_4
REMARK    3  A    between atoms: C_17  and  C_18
REMARK                            x       y       z     vdW  Elec       q    Type
REMARK                         _______ _______ _______ _____ _____    ______ ____
ROOT
ATOM      1  O   UNL     1       0.426   8.902  21.597  0.00  0.00    +0.000 OA
ATOM      2  C   UNL     1       1.092   8.219  20.799  0.00  0.00    +0.000 C 
ATOM      3  N   UNL     1       1.399   6.936  21.150  0.00  0.00    +0.000 N 
ATOM      4  C   UNL     1       2.149   6.096  20.376  0.00  0.00    +0.000 A 
ATOM      5  N   UNL     1       2.988   6.420  19.430  0.00  0.00    +0.000 NA
ATOM      6  C   UNL     1       3.509   5.285  18.852  0.00  0.00    +0.000 A 
ATOM      7  C   UNL     1       2.993   4.105  19.350  0.00  0.00    +0.000 A 
ATOM      8  S   UNL     1       1.939   4.438  20.670  0.00  0.00    +0.000 S 
ATOM      9  H   UNL     1       0.962   6.581  21.987  0.00  0.00    +0.000 HD
ENDROOT
BRANCH   6  10
ATOM     10  C   UNL     1       4.535   5.364  17.818  0.00  0.00    +0.000 A 
ATOM     11  C   UNL     1       5.652   6.207  18.006  0.00  0.00    +0.000 A 
ATOM     12  C   UNL     1       6.647   6.319  17.031  0.00  0.00    +0.000 A 
ATOM     13  C   UNL     1       6.482   5.590  15.875  0.00  0.00    +0.000 A 
ATOM     14  C   UNL     1       5.376   4.770  15.658  0.00  0.00    +0.000 A 
ATOM     15  C   UNL     1       4.392   4.637  16.624  0.00  0.00    +0.000 A 
ATOM     16  C   UNL     1       5.478   4.156  14.291  0.00  0.00    +0.000 C 
ATOM     17  C   UNL     1       6.822   4.705  13.781  0.00  0.00    +0.000 C 
ATOM     18  O   UNL     1       7.348   4.470  12.718  0.00  0.00    +0.000 OA
ATOM     19  N   UNL     1       7.323   5.545  14.777  0.00  0.00    +0.000 N 
ATOM     20  H   UNL     1       8.198   6.038  14.678  0.00  0.00    +0.000 HD
ENDBRANCH   6  10
BRANCH   2  21
ATOM     21  C   UNL     1       1.508   8.740  19.426  0.00  0.00    +0.000 C 
BRANCH  21  22
ATOM     22  C   UNL     1       1.103  10.161  19.069  0.00  0.00    +0.000 A 
ATOM     23  C   UNL     1       2.058  11.183  19.177  0.00  0.00    +0.000 A 
ATOM     24  C   UNL     1       1.743  12.495  18.859  0.00  0.00    +0.000 A 
ATOM     25  C   UNL     1       0.466  12.809  18.407  0.00  0.00    +0.000 A 
ATOM     26  C   UNL     1      -0.505  11.811  18.243  0.00  0.00    +0.000 A 
ATOM     27  C   UNL     1      -1.774  12.148  17.735  0.00  0.00    +0.000 A 
ATOM     28  C   UNL     1      -2.753  11.177  17.543  0.00  0.00    +0.000 A 
ATOM     29  C   UNL     1      -2.484   9.856  17.863  0.00  0.00    +0.000 A 
ATOM     30  C   UNL     1      -1.228   9.507  18.372  0.00  0.00    +0.000 A 
ATOM     31  C   UNL     1      -0.205  10.466  18.576  0.00  0.00    +0.000 A 
ENDBRANCH  21  22
ENDBRANCH   2  21
TORSDOF 3
ENDMDL
MODEL 5
REMARK VINA RESULT:      -8.2      2.509      8.225
REMARK  Name = 
REMARK  3 active torsions:
REMARK  status: ('A' for Active; 'I' for Inactive)
REMARK    1  A    between atoms: C_2  and  C_3
REMARK    2  A    between atoms: C_3  and  C_4
REMARK    3  A    between atoms: C_17  and  C_18
REMARK                            x       y       z     vdW  Elec       q    Type
REMARK                         _______ _______ _______ _____ _____    ______ ____
ROOT
ATOM      1  O   UNL     1       2.807   1.754  17.215  0.00  0.00    +0.000 OA
ATOM      2  C   UNL     1       2.736   2.916  17.652  0.00  0.00    +0.000 C 
ATOM      3  N   UNL     1       2.317   3.095  18.940  0.00  0.00    +0.000 N 
ATOM      4  C   UNL     1       2.168   4.321  19.526  0.00  0.00    +0.000 A 
ATOM      5  N   UNL     1       2.012   5.473  18.933  0.00  0.00    +0.000 NA
ATOM      6  C   UNL     1       1.946   6.480  19.870  0.00  0.00    +0.000 A 
ATOM      7  C   UNL     1       2.117   6.056  21.173  0.00  0.00    +0.000 A 
ATOM      8  S   UNL     1       2.217   4.338  21.222  0.00  0.00    +0.000 S 
ATOM      9  H   UNL     1       2.207   2.262  19.498  0.00  0.00    +0.000 HD
ENDROOT
BRANCH   6  10
ATOM     10  C   UNL     1       1.694   7.862  19.479  0.00  0.00    +0.000 A 
ATOM     11  C   UNL     1       2.088   8.309  18.200  0.00  0.00    +0.000 A 
ATOM     12  C   UNL     1       1.875   9.630  17.797  0.00  0.00    +0.000 A 
ATOM     13  C   UNL     1       1.285  10.479  18.705  0.00  0.00    +0.000 A 
ATOM     14  C   UNL     1       0.909  10.066  19.982  0.00  0.00    +0.000 A 
ATOM     15  C   UNL     1       1.098   8.755  20.387  0.00  0.00    +0.000 A 
ATOM     16  C   UNL     1       0.339  11.237  20.731  0.00  0.00    +0.000 C 
ATOM     17  C   UNL     1       0.401  12.362  19.683  0.00  0.00    +0.000 C 
ATOM     18  O   UNL     1       0.029  13.505  19.820  0.00  0.00    +0.000 OA
ATOM     19  N   UNL     1       0.982  11.820  18.537  0.00  0.00    +0.000 N 
ATOM     20  H   UNL     1       1.143  12.364  17.702  0.00  0.00    +0.000 HD
ENDBRANCH   6  10
BRANCH   2  21
ATOM     21  C   UNL     1       3.165   4.127  16.828  0.00  0.00    +0.000 C 
BRANCH  21  22
ATOM     22  C   UNL     1       4.632   4.221  16.442  0.00  0.00    +0.000 A 
ATOM     23  C   UNL     1       5.004   3.924  15.122  0.00  0.00    +0.000 A 
ATOM     24  C   UNL     1       6.328   4.000  14.716  0.00  0.00    +0.000 A 
ATOM     25  C   UNL     1       7.307   4.393  15.621  0.00  0.00    +0.000 A 
ATOM     26  C   UNL     1       6.971   4.741  16.938  0.00  0.00    +0.000 A 
ATOM     27  C   UNL     1       7.975   5.185  17.819  0.00  0.00    +0.000 A 
ATOM     28  C   UNL     1       7.672   5.556  19.127  0.00  0.00    +0.000 A 
ATOM     29  C   UNL     1       6.364   5.481  19.577  0.00  0.00    +0.000 A 
ATOM     30  C   UNL     1       5.357   5.038  18.713  0.00  0.00    +0.000 A 
ATOM     31  C   UNL     1       5.625   4.657  17.375  0.00  0.00    +0.000 A 
ENDBRANCH  21  22
ENDBRANCH   2  21
TORSDOF 3
ENDMDL
MODEL 6
REMARK VINA RESULT:      -8.0      2.511      8.498
REMARK  Name = 
REMARK  3 active torsions:
REMARK  status: ('A' for Active; 'I' for Inactive)
REMARK    1  A    between atoms: C_2  and  C_3
REMARK    2  A    between atoms: C_3  and  C_4
REMARK    3  A    between atoms: C_17  and  C_18
REMARK                            x       y       z     vdW  Elec       q    Type
REMARK                         _______ _______ _______ _____ _____    ______ ____
ROOT
ATOM      1  O   UNL     1       3.073   1.482  17.484  0.00  0.00    +0.000 OA
ATOM      2  C   UNL     1       2.963   2.658  17.870  0.00  0.00    +0.000 C 
ATOM      3  N   UNL     1       2.526   2.879  19.145  0.00  0.00    +0.000 N 
ATOM      4  C   UNL     1       2.333   4.123  19.677  0.00  0.00    +0.000 A 
ATOM      5  N   UNL     1       2.150   5.245  19.034  0.00  0.00    +0.000 NA
ATOM      6  C   UNL     1       2.044   6.287  19.927  0.00  0.00    +0.000 A 
ATOM      7  C   UNL     1       2.214   5.924  21.248  0.00  0.00    +0.000 A 
ATOM      8  S   UNL     1       2.364   4.213  21.371  0.00  0.00    +0.000 S 
ATOM      9  H   UNL     1       2.433   2.067  19.736  0.00  0.00    +0.000 HD
ENDROOT
BRANCH   6  10
ATOM     10  C   UNL     1       1.756   7.644  19.475  0.00  0.00    +0.000 A 
ATOM     11  C   UNL     1       2.173   8.056  18.191  0.00  0.00    +0.000 A 
ATOM     12  C   UNL     1       1.927   9.352  17.731  0.00  0.00    +0.000 A 
ATOM     13  C   UNL     1       1.280  10.213  18.588  0.00  0.00    +0.000 A 
ATOM     14  C   UNL     1       0.879   9.836  19.869  0.00  0.00    +0.000 A 
ATOM     15  C   UNL     1       1.103   8.549  20.330  0.00  0.00    +0.000 A 
ATOM     16  C   UNL     1       0.247  11.013  20.555  0.00  0.00    +0.000 C 
ATOM     17  C   UNL     1       0.301  12.099  19.466  0.00  0.00    +0.000 C 
ATOM     18  O   UNL     1      -0.114  13.231  19.547  0.00  0.00    +0.000 OA
ATOM     19  N   UNL     1       0.936  11.534  18.359  0.00  0.00    +0.000 N 
ATOM     20  H   UNL     1       1.102  12.052  17.509  0.00  0.00    +0.000 HD
ENDBRANCH   6  10
BRANCH   2  21
ATOM     21  C   UNL     1       3.366   3.845  17.000  0.00  0.00    +0.000 C 
BRANCH  21  22
ATOM     22  C   UNL     1       4.839   4.215  16.966  0.00  0.00    +0.000 A 
ATOM     23  C   UNL     1       5.520   4.392  18.180  0.00  0.00    +0.000 A 
ATOM     24  C   UNL     1       6.866   4.724  18.205  0.00  0.00    +0.000 A 
ATOM     25  C   UNL     1       7.565   4.869  17.011  0.00  0.00    +0.000 A 
ATOM     26  C   UNL     1       6.933   4.659  15.778  0.00  0.00    +0.000 A 
ATOM     27  C   UNL     1       7.676   4.762  14.587  0.00  0.00    +0.000 A 
ATOM     28  C   UNL     1       7.082   4.541  13.347  0.00  0.00    +0.000 A 
ATOM     29  C   UNL     1       5.736   4.221  13.276  0.00  0.00    +0.000 A 
ATOM     30  C   UNL     1       4.984   4.118  14.452  0.00  0.00    +0.000 A 
ATOM     31  C   UNL     1       5.554   4.331  15.731  0.00  0.00    +0.000 A 
ENDBRANCH  21  22
ENDBRANCH   2  21
TORSDOF 3
ENDMDL
MODEL 7
REMARK VINA RESULT:      -8.0      7.156      9.252
REMARK  Name = 
REMARK  3 active torsions:
REMARK  status: ('A' for Active; 'I' for Inactive)
REMARK    1  A    between atoms: C_2  and  C_3
REMARK    2  A    between atoms: C_3  and  C_4
REMARK    3  A    between atoms: C_17  and  C_18
REMARK                            x       y       z     vdW  Elec       q    Type
REMARK                         _______ _______ _______ _____ _____    ______ ____
ROOT
ATOM      1  O   UNL     1      -3.464  13.260  25.646  0.00  0.00    +0.000 OA
ATOM      2  C   UNL     1      -3.879  13.225  24.475  0.00  0.00    +0.000 C 
ATOM      3  N   UNL     1      -5.183  12.879  24.264  0.00  0.00    +0.000 N 
ATOM      4  C   UNL     1      -5.750  12.775  23.025  0.00  0.00    +0.000 A 
ATOM      5  N   UNL     1      -5.143  12.601  21.883  0.00  0.00    +0.000 NA
ATOM      6  C   UNL     1      -6.060  12.596  20.857  0.00  0.00    +0.000 A 
ATOM      7  C   UNL     1      -7.361  12.832  21.256  0.00  0.00    +0.000 A 
ATOM      8  S   UNL     1      -7.441  12.915  22.974  0.00  0.00    +0.000 S 
ATOM      9  H   UNL     1      -5.764  12.789  25.084  0.00  0.00    +0.000 HD
ENDROOT
BRANCH   6  10
ATOM     10  C   UNL     1      -5.654  12.340  19.480  0.00  0.00    +0.000 A 
ATOM     11  C   UNL     1      -6.514  12.701  18.419  0.00  0.00    +0.000 A 
ATOM     12  C   UNL     1      -6.165  12.457  17.089  0.00  0.00    +0.000 A 
ATOM     13  C   UNL     1      -4.960  11.834  16.857  0.00  0.00    +0.000 A 
ATOM     14  C   UNL     1      -4.105  11.448  17.888  0.00  0.00    +0.000 A 
ATOM     15  C   UNL     1      -4.432  11.699  19.211  0.00  0.00    +0.000 A 
ATOM     16  C   UNL     1      -2.905  10.760  17.303  0.00  0.00    +0.000 C 
ATOM     17  C   UNL     1      -3.175  10.853  15.791  0.00  0.00    +0.000 C 
ATOM     18  O   UNL     1      -2.466  10.448  14.899  0.00  0.00    +0.000 OA
ATOM     19  N   UNL     1      -4.408  11.487  15.636  0.00  0.00    +0.000 N 
ATOM     20  H   UNL     1      -4.816  11.661  14.729  0.00  0.00    +0.000 HD
ENDBRANCH   6  10
BRANCH   2  21
ATOM     21  C   UNL     1      -3.008  13.624  23.287  0.00  0.00    +0.000 C 
BRANCH  21  22
ATOM     22  C   UNL     1      -2.069  12.569  22.727  0.00  0.00    +0.000 A 
ATOM     23  C   UNL     1      -1.834  11.407  23.478  0.00  0.00    +0.000 A 
ATOM     24  C   UNL     1      -0.990  10.411  23.010  0.00  0.00    +0.000 A 
ATOM     25  C   UNL     1      -0.377  10.549  21.770  0.00  0.00    +0.000 A 
ATOM     26  C   UNL     1      -0.620  11.674  20.970  0.00  0.00    +0.000 A 
ATOM     27  C   UNL     1      -0.027  11.765  19.697  0.00  0.00    +0.000 A 
ATOM     28  C   UNL     1      -0.263  12.860  18.869  0.00  0.00    +0.000 A 
ATOM     29  C   UNL     1      -1.088  13.885  19.304  0.00  0.00    +0.000 A 
ATOM     30  C   UNL     1      -1.681  13.810  20.569  0.00  0.00    +0.000 A 
ATOM     31  C   UNL     1      -1.469  12.709  21.436  0.00  0.00    +0.000 A 
ENDBRANCH  21  22
ENDBRANCH   2  21
TORSDOF 3
ENDMDL
MODEL 8
REMARK VINA RESULT:      -7.9      5.788     11.307
REMARK  Name = 
REMARK  3 active torsions:
REMARK  status: ('A' for Active; 'I' for Inactive)
REMARK    1  A    between atoms: C_2  and  C_3
REMARK    2  A    between atoms: C_3  and  C_4
REMARK    3  A    between atoms: C_17  and  C_18
REMARK                            x       y       z     vdW  Elec       q    Type
REMARK                         _______ _______ _______ _____ _____    ______ ____
ROOT
ATOM      1  O   UNL     1      -2.156  10.984  16.430  0.00  0.00    +0.000 OA
ATOM      2  C   UNL     1      -2.594  11.348  17.534  0.00  0.00    +0.000 C 
ATOM      3  N   UNL     1      -3.948  11.380  17.711  0.00  0.00    +0.000 N 
ATOM      4  C   UNL     1      -4.554  11.790  18.865  0.00  0.00    +0.000 A 
ATOM      5  N   UNL     1      -4.051  12.544  19.804  0.00  0.00    +0.000 NA
ATOM      6  C   UNL     1      -4.959  12.689  20.829  0.00  0.00    +0.000 A 
ATOM      7  C   UNL     1      -6.128  11.975  20.658  0.00  0.00    +0.000 A 
ATOM      8  S   UNL     1      -6.136  11.226  19.108  0.00  0.00    +0.000 S 
ATOM      9  H   UNL     1      -4.508  10.989  16.968  0.00  0.00    +0.000 HD
ENDROOT
BRANCH   6  10
ATOM     10  C   UNL     1      -4.679  13.551  21.972  0.00  0.00    +0.000 A 
ATOM     11  C   UNL     1      -3.645  13.206  22.870  0.00  0.00    +0.000 A 
ATOM     12  C   UNL     1      -3.359  14.001  23.983  0.00  0.00    +0.000 A 
ATOM     13  C   UNL     1      -4.137  15.118  24.178  0.00  0.00    +0.000 A 
ATOM     14  C   UNL     1      -5.178  15.466  23.318  0.00  0.00    +0.000 A 
ATOM     15  C   UNL     1      -5.461  14.696  22.201  0.00  0.00    +0.000 A 
ATOM     16  C   UNL     1      -5.852  16.705  23.834  0.00  0.00    +0.000 C 
ATOM     17  C   UNL     1      -5.017  17.040  25.082  0.00  0.00    +0.000 C 
ATOM     18  O   UNL     1      -5.169  17.979  25.829  0.00  0.00    +0.000 OA
ATOM     19  N   UNL     1      -4.047  16.044  25.203  0.00  0.00    +0.000 N 
ATOM     20  H   UNL     1      -3.374  16.033  25.955  0.00  0.00    +0.000 HD
ENDBRANCH   6  10
BRANCH   2  21
ATOM     21  C   UNL     1      -1.678  11.685  18.707  0.00  0.00    +0.000 C 
BRANCH  21  22
ATOM     22  C   UNL     1      -0.629  10.653  19.090  0.00  0.00    +0.000 A 
ATOM     23  C   UNL     1       0.162  10.086  18.080  0.00  0.00    +0.000 A 
ATOM     24  C   UNL     1       1.136   9.144  18.376  0.00  0.00    +0.000 A 
ATOM     25  C   UNL     1       1.351   8.764  19.695  0.00  0.00    +0.000 A 
ATOM     26  C   UNL     1       0.612   9.339  20.739  0.00  0.00    +0.000 A 
ATOM     27  C   UNL     1       0.886   8.973  22.071  0.00  0.00    +0.000 A 
ATOM     28  C   UNL     1       0.183   9.539  23.132  0.00  0.00    +0.000 A 
ATOM     29  C   UNL     1      -0.809  10.473  22.879  0.00  0.00    +0.000 A 
ATOM     30  C   UNL     1      -1.094  10.843  21.560  0.00  0.00    +0.000 A 
ATOM     31  C   UNL     1      -0.397  10.293  20.455  0.00  0.00    +0.000 A 
ENDBRANCH  21  22
ENDBRANCH   2  21
TORSDOF 3
ENDMDL
MODEL 9
REMARK VINA RESULT:      -7.9      2.694      8.002
REMARK  Name = 
REMARK  3 active torsions:
REMARK  status: ('A' for Active; 'I' for Inactive)
REMARK    1  A    between atoms: C_2  and  C_3
REMARK    2  A    between atoms: C_3  and  C_4
REMARK    3  A    between atoms: C_17  and  C_18
REMARK                            x       y       z     vdW  Elec       q    Type
REMARK                         _______ _______ _______ _____ _____    ______ ____
ROOT
ATOM      1  O   UNL     1       2.806   1.674  16.782  0.00  0.00    +0.000 OA
ATOM      2  C   UNL     1       2.719   2.707  17.468  0.00  0.00    +0.000 C 
ATOM      3  N   UNL     1       2.329   2.584  18.771  0.00  0.00    +0.000 N 
ATOM      4  C   UNL     1       2.166   3.643  19.618  0.00  0.00    +0.000 A 
ATOM      5  N   UNL     1       1.970   4.894  19.301  0.00  0.00    +0.000 NA
ATOM      6  C   UNL     1       1.904   5.665  20.440  0.00  0.00    +0.000 A 
ATOM      7  C   UNL     1       2.117   4.966  21.612  0.00  0.00    +0.000 A 
ATOM      8  S   UNL     1       2.257   3.284  21.274  0.00  0.00    +0.000 S 
ATOM      9  H   UNL     1       2.251   1.645  19.131  0.00  0.00    +0.000 HD
ENDROOT
BRANCH   6  10
ATOM     10  C   UNL     1       1.611   7.092  20.373  0.00  0.00    +0.000 A 
ATOM     11  C   UNL     1       0.930   7.716  21.441  0.00  0.00    +0.000 A 
ATOM     12  C   UNL     1       0.621   9.078  21.405  0.00  0.00    +0.000 A 
ATOM     13  C   UNL     1       0.987   9.779  20.279  0.00  0.00    +0.000 A 
ATOM     14  C   UNL     1       1.639   9.179  19.202  0.00  0.00    +0.000 A 
ATOM     15  C   UNL     1       1.967   7.833  19.233  0.00  0.00    +0.000 A 
ATOM     16  C   UNL     1       1.856  10.203  18.124  0.00  0.00    +0.000 C 
ATOM     17  C   UNL     1       1.279  11.479  18.760  0.00  0.00    +0.000 C 
ATOM     18  O   UNL     1       1.245  12.584  18.270  0.00  0.00    +0.000 OA
ATOM     19  N   UNL     1       0.784  11.122  20.014  0.00  0.00    +0.000 N 
ATOM     20  H   UNL     1       0.342  11.788  20.631  0.00  0.00    +0.000 HD
ENDBRANCH   6  10
BRANCH   2  21
ATOM     21  C   UNL     1       3.101   4.083  16.927  0.00  0.00    +0.000 C 
BRANCH  21  22
ATOM     22  C   UNL     1       4.536   4.276  16.466  0.00  0.00    +0.000 A 
ATOM     23  C   UNL     1       4.846   4.067  15.114  0.00  0.00    +0.000 A 
ATOM     24  C   UNL     1       6.139   4.235  14.641  0.00  0.00    +0.000 A 
ATOM     25  C   UNL     1       7.147   4.635  15.511  0.00  0.00    +0.000 A 
ATOM     26  C   UNL     1       6.870   4.896  16.860  0.00  0.00    +0.000 A 
ATOM     27  C   UNL     1       7.899   5.349  17.708  0.00  0.00    +0.000 A 
ATOM     28  C   UNL     1       7.653   5.636  19.048  0.00  0.00    +0.000 A 
ATOM     29  C   UNL     1       6.379   5.467  19.565  0.00  0.00    +0.000 A 
ATOM     30  C   UNL     1       5.347   5.014  18.735  0.00  0.00    +0.000 A 
ATOM     31  C   UNL     1       5.558   4.718  17.365  0.00  0.00    +0.000 A 
ENDBRANCH  21  22
ENDBRANCH   2  21
TORSDOF 3
ENDMDL
