MODEL 1
REMARK VINA RESULT:      -9.0      0.000      0.000
REMARK  Name = 
REMARK  5 active torsions:
REMARK  status: ('A' for Active; 'I' for Inactive)
REMARK    1  A    between atoms: C_2  and  C_3
REMARK    2  A    between atoms: C_6  and  C_7
REMARK    3  A    between atoms: C_7  and  N_8
REMARK    4  A    between atoms: N_8  and  S_9
REMARK    5  A    between atoms: S_9  and  C_12
REMARK                            x       y       z     vdW  Elec       q    Type
REMARK                         _______ _______ _______ _____ _____    ______ ____
ROOT
ATOM      1  N   UNL     1       1.226   9.458  20.608  0.00  0.00    +0.000 NA
ATOM      2  H   UNL     1       1.190   9.563  19.593  0.00  0.00    +0.000 HD
ENDROOT
BRANCH   1   3
ATOM      3  S   UNL     1       0.199  10.563  21.373  0.00  0.00    +0.000 S 
ATOM      4  O   UNL     1      -0.526   9.811  22.379  0.00  0.00    +0.000 OA
ATOM      5  O   UNL     1       0.956  11.743  21.694  0.00  0.00    +0.000 OA
BRANCH   3   6
ATOM      6  C   UNL     1      -0.969  10.957  20.094  0.00  0.00    +0.000 A 
ATOM      7  C   UNL     1      -1.947  11.950  20.340  0.00  0.00    +0.000 A 
ATOM      8  C   UNL     1      -2.898  12.269  19.365  0.00  0.00    +0.000 A 
ATOM      9  C   UNL     1      -2.785  11.617  18.159  0.00  0.00    +0.000 A 
ATOM     10  N   UNL     1      -3.560  11.732  17.012  0.00  0.00    +0.000 N 
ATOM     11  C   UNL     1      -2.942  11.015  15.978  0.00  0.00    +0.000 A 
ATOM     12  O   UNL     1      -3.289  10.974  14.811  0.00  0.00    +0.000 OA
ATOM     13  N   UNL     1      -1.839  10.360  16.549  0.00  0.00    +0.000 N 
ATOM     14  C   UNL     1      -1.759  10.711  17.891  0.00  0.00    +0.000 A 
ATOM     15  C   UNL     1      -0.861  10.314  18.851  0.00  0.00    +0.000 A 
ATOM     16  H   UNL     1      -4.436  12.218  16.909  0.00  0.00    +0.000 HD
ATOM     17  H   UNL     1      -1.205   9.780  16.026  0.00  0.00    +0.000 HD
ENDBRANCH   3   6
ENDBRANCH   1   3
BRANCH   1  18
ATOM     18  C   UNL     1       1.184   8.098  21.134  0.00  0.00    +0.000 C 
BRANCH  18  22
ATOM     19  C   UNL     1       2.923   5.204  18.414  0.00  0.00    +0.000 A 
ATOM     20  C   UNL     1       2.435   4.778  19.659  0.00  0.00    +0.000 A 
ATOM     21  C   UNL     1       1.878   5.702  20.562  0.00  0.00    +0.000 A 
ATOM     22  C   UNL     1       1.819   7.067  20.238  0.00  0.00    +0.000 A 
ATOM     23  C   UNL     1       2.272   7.471  18.979  0.00  0.00    +0.000 A 
ATOM     24  C   UNL     1       2.754   6.543  18.062  0.00  0.00    +0.000 A 
BRANCH  19  26
ATOM     25  O   UNL     1       2.770   3.392  16.962  0.00  0.00    +0.000 OA
ATOM     26  C   UNL     1       3.528   4.217  17.468  0.00  0.00    +0.000 C 
ATOM     27  N   UNL     1       4.901   4.255  17.178  0.00  0.00    +0.000 N 
ATOM     28  C   UNL     1       5.937   5.056  17.834  0.00  0.00    +0.000 C 
ATOM     29  C   UNL     1       6.538   6.035  16.823  0.00  0.00    +0.000 C 
ATOM     30  C   UNL     1       7.110   5.274  15.626  0.00  0.00    +0.000 C 
ATOM     31  C   UNL     1       6.082   4.308  15.027  0.00  0.00    +0.000 C 
ATOM     32  C   UNL     1       5.420   3.429  16.092  0.00  0.00    +0.000 C 
ENDBRANCH  19  26
ENDBRANCH  18  22
ENDBRANCH   1  18
TORSDOF 5
ENDMDL
MODEL 2
REMARK VINA RESULT:      -8.8      1.157      1.555
REMARK  Name = 
REMARK  5 active torsions:
REMARK  status: ('A' for Active; 'I' for Inactive)
REMARK    1  A    between atoms: C_2  and  C_3
REMARK    2  A    between atoms: C_6  and  C_7
REMARK    3  A    between atoms: C_7  and  N_8
REMARK    4  A    between atoms: N_8  and  S_9
REMARK    5  A    between atoms: S_9  and  C_12
REMARK                            x       y       z     vdW  Elec       q    Type
REMARK                         _______ _______ _______ _____ _____    ______ ____
ROOT
ATOM      1  N   UNL     1      -0.355   9.738  20.863  0.00  0.00    +0.000 NA
ATOM      2  H   UNL     1      -1.083   9.516  21.545  0.00  0.00    +0.000 HD
ENDROOT
BRANCH   1   3
ATOM      3  S   UNL     1      -0.479  11.342  20.341  0.00  0.00    +0.000 S 
ATOM      4  O   UNL     1      -1.091  12.075  21.432  0.00  0.00    +0.000 OA
ATOM      5  O   UNL     1       0.779  11.733  19.764  0.00  0.00    +0.000 OA
BRANCH   3   6
ATOM      6  C   UNL     1      -1.698  11.238  19.053  0.00  0.00    +0.000 A 
ATOM      7  C   UNL     1      -2.942  11.889  19.232  0.00  0.00    +0.000 A 
ATOM      8  C   UNL     1      -3.935  11.808  18.250  0.00  0.00    +0.000 A 
ATOM      9  C   UNL     1      -3.608  11.126  17.100  0.00  0.00    +0.000 A 
ATOM     10  N   UNL     1      -4.368  10.894  15.960  0.00  0.00    +0.000 N 
ATOM     11  C   UNL     1      -3.543  10.325  14.979  0.00  0.00    +0.000 A 
ATOM     12  O   UNL     1      -3.847  10.078  13.826  0.00  0.00    +0.000 OA
ATOM     13  N   UNL     1      -2.296  10.102  15.584  0.00  0.00    +0.000 N 
ATOM     14  C   UNL     1      -2.345  10.571  16.892  0.00  0.00    +0.000 A 
ATOM     15  C   UNL     1      -1.378  10.561  17.866  0.00  0.00    +0.000 A 
ATOM     16  H   UNL     1      -5.351  11.069  15.831  0.00  0.00    +0.000 HD
ATOM     17  H   UNL     1      -1.505   9.710  15.101  0.00  0.00    +0.000 HD
ENDBRANCH   3   6
ENDBRANCH   1   3
BRANCH   1  18
ATOM     18  C   UNL     1       0.997   9.281  21.165  0.00  0.00    +0.000 C 
BRANCH  18  22
ATOM     19  C   UNL     1       2.546   6.079  18.688  0.00  0.00    +0.000 A 
ATOM     20  C   UNL     1       2.432   7.372  18.156  0.00  0.00    +0.000 A 
ATOM     21  C   UNL     1       1.920   8.424  18.938  0.00  0.00    +0.000 A 
ATOM     22  C   UNL     1       1.500   8.190  20.257  0.00  0.00    +0.000 A 
ATOM     23  C   UNL     1       1.656   6.906  20.787  0.00  0.00    +0.000 A 
ATOM     24  C   UNL     1       2.231   5.888  20.032  0.00  0.00    +0.000 A 
BRANCH  19  26
ATOM     25  O   UNL     1       2.252   4.187  17.365  0.00  0.00    +0.000 OA
ATOM     26  C   UNL     1       3.076   4.965  17.843  0.00  0.00    +0.000 C 
ATOM     27  N   UNL     1       4.454   4.837  17.611  0.00  0.00    +0.000 N 
ATOM     28  C   UNL     1       5.546   5.573  18.253  0.00  0.00    +0.000 C 
ATOM     29  C   UNL     1       6.284   6.404  17.201  0.00  0.00    +0.000 C 
ATOM     30  C   UNL     1       6.814   5.498  16.088  0.00  0.00    +0.000 C 
ATOM     31  C   UNL     1       5.711   4.602  15.515  0.00  0.00    +0.000 C 
ATOM     32  C   UNL     1       4.921   3.881  16.611  0.00  0.00    +0.000 C 
ENDBRANCH  19  26
ENDBRANCH  18  22
ENDBRANCH   1  18
TORSDOF 5
ENDMDL
MODEL 3
REMARK VINA RESULT:      -8.8      3.121      4.596
REMARK  Name = 
REMARK  5 active torsions:
REMARK  status: ('A' for Active; 'I' for Inactive)
REMARK    1  A    between atoms: C_2  and  C_3
REMARK    2  A    between atoms: C_6  and  C_7
REMARK    3  A    between atoms: C_7  and  N_8
REMARK    4  A    between atoms: N_8  and  S_9
REMARK    5  A    between atoms: S_9  and  C_12
REMARK                            x       y       z     vdW  Elec       q    Type
REMARK                         _______ _______ _______ _____ _____    ______ ____
ROOT
ATOM      1  N   UNL     1      -0.397  10.281  20.697  0.00  0.00    +0.000 NA
ATOM      2  H   UNL     1      -0.464   9.322  21.042  0.00  0.00    +0.000 HD
ENDROOT
BRANCH   1   3
ATOM      3  S   UNL     1      -0.265  11.381  21.975  0.00  0.00    +0.000 S 
ATOM      4  O   UNL     1      -0.070  10.587  23.172  0.00  0.00    +0.000 OA
ATOM      5  O   UNL     1       0.647  12.424  21.588  0.00  0.00    +0.000 OA
BRANCH   3   6
ATOM      6  C   UNL     1      -1.905  12.057  22.076  0.00  0.00    +0.000 A 
ATOM      7  C   UNL     1      -2.482  12.631  20.917  0.00  0.00    +0.000 A 
ATOM      8  C   UNL     1      -3.761  13.195  20.965  0.00  0.00    +0.000 A 
ATOM      9  C   UNL     1      -4.431  13.101  22.163  0.00  0.00    +0.000 A 
ATOM     10  N   UNL     1      -5.702  13.545  22.507  0.00  0.00    +0.000 N 
ATOM     11  C   UNL     1      -6.023  13.047  23.778  0.00  0.00    +0.000 A 
ATOM     12  O   UNL     1      -7.090  13.157  24.354  0.00  0.00    +0.000 OA
ATOM     13  N   UNL     1      -4.876  12.392  24.253  0.00  0.00    +0.000 N 
ATOM     14  C   UNL     1      -3.893  12.447  23.272  0.00  0.00    +0.000 A 
ATOM     15  C   UNL     1      -2.611  11.957  23.284  0.00  0.00    +0.000 A 
ATOM     16  H   UNL     1      -6.308  14.145  21.972  0.00  0.00    +0.000 HD
ATOM     17  H   UNL     1      -4.830  11.927  25.144  0.00  0.00    +0.000 HD
ENDBRANCH   3   6
ENDBRANCH   1   3
BRANCH   1  18
ATOM     18  C   UNL     1       0.501  10.519  19.572  0.00  0.00    +0.000 C 
BRANCH  18  22
ATOM     19  C   UNL     1       2.842   7.035  18.487  0.00  0.00    +0.000 A 
ATOM     20  C   UNL     1       2.669   8.070  17.556  0.00  0.00    +0.000 A 
ATOM     21  C   UNL     1       1.902   9.204  17.882  0.00  0.00    +0.000 A 
ATOM     22  C   UNL     1       1.286   9.308  19.139  0.00  0.00    +0.000 A 
ATOM     23  C   UNL     1       1.500   8.288  20.071  0.00  0.00    +0.000 A 
ATOM     24  C   UNL     1       2.318   7.205  19.768  0.00  0.00    +0.000 A 
BRANCH  19  26
ATOM     25  O   UNL     1       4.864   5.966  18.057  0.00  0.00    +0.000 OA
ATOM     26  C   UNL     1       3.645   5.827  18.124  0.00  0.00    +0.000 C 
ATOM     27  N   UNL     1       3.014   4.596  17.884  0.00  0.00    +0.000 N 
ATOM     28  C   UNL     1       1.579   4.331  17.755  0.00  0.00    +0.000 C 
ATOM     29  C   UNL     1       1.131   3.402  18.885  0.00  0.00    +0.000 C 
ATOM     30  C   UNL     1       1.933   2.100  18.848  0.00  0.00    +0.000 C 
ATOM     31  C   UNL     1       3.442   2.367  18.820  0.00  0.00    +0.000 C 
ATOM     32  C   UNL     1       3.830   3.393  17.751  0.00  0.00    +0.000 C 
ENDBRANCH  19  26
ENDBRANCH  18  22
ENDBRANCH   1  18
TORSDOF 5
ENDMDL
MODEL 4
REMARK VINA RESULT:      -8.7      1.390      2.062
REMARK  Name = 
REMARK  5 active torsions:
REMARK  status: ('A' for Active; 'I' for Inactive)
REMARK    1  A    between atoms: C_2  and  C_3
REMARK    2  A    between atoms: C_6  and  C_7
REMARK    3  A    between atoms: C_7  and  N_8
REMARK    4  A    between atoms: N_8  and  S_9
REMARK    5  A    between atoms: S_9  and  C_12
REMARK                            x       y       z     vdW  Elec       q    Type
REMARK                         _______ _______ _______ _____ _____    ______ ____
ROOT
ATOM      1  N   UNL     1      -0.154   9.404  20.669  0.00  0.00    +0.000 NA
ATOM      2  H   UNL     1      -0.932   9.227  21.306  0.00  0.00    +0.000 HD
ENDROOT
BRANCH   1   3
ATOM      3  S   UNL     1      -0.151  11.011  20.141  0.00  0.00    +0.000 S 
ATOM      4  O   UNL     1      -0.543  11.812  21.284  0.00  0.00    +0.000 OA
ATOM      5  O   UNL     1       1.067  11.251  19.416  0.00  0.00    +0.000 OA
BRANCH   3   6
ATOM      6  C   UNL     1      -1.516  11.048  19.004  0.00  0.00    +0.000 A 
ATOM      7  C   UNL     1      -1.514  10.159  17.902  0.00  0.00    +0.000 A 
ATOM      8  C   UNL     1      -2.560  10.177  16.973  0.00  0.00    +0.000 A 
ATOM      9  C   UNL     1      -3.595  11.047  17.228  0.00  0.00    +0.000 A 
ATOM     10  N   UNL     1      -4.761  11.274  16.508  0.00  0.00    +0.000 N 
ATOM     11  C   UNL     1      -5.600  12.106  17.263  0.00  0.00    +0.000 A 
ATOM     12  O   UNL     1      -6.740  12.435  16.985  0.00  0.00    +0.000 OA
ATOM     13  N   UNL     1      -4.873  12.479  18.404  0.00  0.00    +0.000 N 
ATOM     14  C   UNL     1      -3.635  11.848  18.369  0.00  0.00    +0.000 A 
ATOM     15  C   UNL     1      -2.589  11.916  19.256  0.00  0.00    +0.000 A 
ATOM     16  H   UNL     1      -4.989  10.938  15.587  0.00  0.00    +0.000 HD
ATOM     17  H   UNL     1      -5.242  13.069  19.131  0.00  0.00    +0.000 HD
ENDBRANCH   3   6
ENDBRANCH   1   3
BRANCH   1  18
ATOM     18  C   UNL     1       1.148   8.869  21.050  0.00  0.00    +0.000 C 
BRANCH  18  22
ATOM     19  C   UNL     1       2.751   5.719  18.539  0.00  0.00    +0.000 A 
ATOM     20  C   UNL     1       2.671   7.028  18.041  0.00  0.00    +0.000 A 
ATOM     21  C   UNL     1       2.143   8.063  18.834  0.00  0.00    +0.000 A 
ATOM     22  C   UNL     1       1.672   7.797  20.129  0.00  0.00    +0.000 A 
ATOM     23  C   UNL     1       1.793   6.496  20.627  0.00  0.00    +0.000 A 
ATOM     24  C   UNL     1       2.383   5.494  19.865  0.00  0.00    +0.000 A 
BRANCH  19  26
ATOM     25  O   UNL     1       2.496   3.791  17.261  0.00  0.00    +0.000 OA
ATOM     26  C   UNL     1       3.298   4.622  17.682  0.00  0.00    +0.000 C 
ATOM     27  N   UNL     1       4.667   4.569  17.377  0.00  0.00    +0.000 N 
ATOM     28  C   UNL     1       5.747   5.377  17.948  0.00  0.00    +0.000 C 
ATOM     29  C   UNL     1       6.379   6.231  16.846  0.00  0.00    +0.000 C 
ATOM     30  C   UNL     1       6.900   5.338  15.719  0.00  0.00    +0.000 C 
ATOM     31  C   UNL     1       5.821   4.371  15.220  0.00  0.00    +0.000 C 
ATOM     32  C   UNL     1       5.134   3.625  16.367  0.00  0.00    +0.000 C 
ENDBRANCH  19  26
ENDBRANCH  18  22
ENDBRANCH   1  18
TORSDOF 5
ENDMDL
MODEL 5
REMARK VINA RESULT:      -8.7      1.981      2.904
REMARK  Name = 
REMARK  5 active torsions:
REMARK  status: ('A' for Active; 'I' for Inactive)
REMARK    1  A    between atoms: C_2  and  C_3
REMARK    2  A    between atoms: C_6  and  C_7
REMARK    3  A    between atoms: C_7  and  N_8
REMARK    4  A    between atoms: N_8  and  S_9
REMARK    5  A    between atoms: S_9  and  C_12
REMARK                            x       y       z     vdW  Elec       q    Type
REMARK                         _______ _______ _______ _____ _____    ______ ____
ROOT
ATOM      1  N   UNL     1       0.884  11.631  20.469  0.00  0.00    +0.000 NA
ATOM      2  H   UNL     1       1.579  11.783  19.736  0.00  0.00    +0.000 HD
ENDROOT
BRANCH   1   3
ATOM      3  S   UNL     1      -0.233  12.900  20.523  0.00  0.00    +0.000 S 
ATOM      4  O   UNL     1      -0.786  12.893  21.863  0.00  0.00    +0.000 OA
ATOM      5  O   UNL     1       0.377  14.069  19.950  0.00  0.00    +0.000 OA
BRANCH   3   6
ATOM      6  C   UNL     1      -1.521  12.330  19.440  0.00  0.00    +0.000 A 
ATOM      7  C   UNL     1      -2.863  12.384  19.884  0.00  0.00    +0.000 A 
ATOM      8  C   UNL     1      -3.901  11.921  19.068  0.00  0.00    +0.000 A 
ATOM      9  C   UNL     1      -3.548  11.481  17.813  0.00  0.00    +0.000 A 
ATOM     10  N   UNL     1      -4.345  10.986  16.789  0.00  0.00    +0.000 N 
ATOM     11  C   UNL     1      -3.562  10.854  15.633  0.00  0.00    +0.000 A 
ATOM     12  O   UNL     1      -3.950  10.539  14.523  0.00  0.00    +0.000 OA
ATOM     13  N   UNL     1      -2.244  11.162  16.006  0.00  0.00    +0.000 N 
ATOM     14  C   UNL     1      -2.233  11.523  17.348  0.00  0.00    +0.000 A 
ATOM     15  C   UNL     1      -1.182  11.892  18.151  0.00  0.00    +0.000 A 
ATOM     16  H   UNL     1      -5.318  10.730  16.837  0.00  0.00    +0.000 HD
ATOM     17  H   UNL     1      -1.469  11.160  15.364  0.00  0.00    +0.000 HD
ENDBRANCH   3   6
ENDBRANCH   1   3
BRANCH   1  18
ATOM     18  C   UNL     1       0.315  10.292  20.574  0.00  0.00    +0.000 C 
BRANCH  18  22
ATOM     19  C   UNL     1       2.637   7.222  18.579  0.00  0.00    +0.000 A 
ATOM     20  C   UNL     1       2.253   8.370  17.870  0.00  0.00    +0.000 A 
ATOM     21  C   UNL     1       1.488   9.373  18.494  0.00  0.00    +0.000 A 
ATOM     22  C   UNL     1       1.085   9.231  19.831  0.00  0.00    +0.000 A 
ATOM     23  C   UNL     1       1.508   8.101  20.537  0.00  0.00    +0.000 A 
ATOM     24  C   UNL     1       2.324   7.149  19.936  0.00  0.00    +0.000 A 
BRANCH  19  26
ATOM     25  O   UNL     1       4.601   6.422  17.620  0.00  0.00    +0.000 OA
ATOM     26  C   UNL     1       3.435   6.154  17.902  0.00  0.00    +0.000 C 
ATOM     27  N   UNL     1       2.861   4.905  17.618  0.00  0.00    +0.000 N 
ATOM     28  C   UNL     1       1.453   4.515  17.733  0.00  0.00    +0.000 C 
ATOM     29  C   UNL     1       1.316   3.414  18.786  0.00  0.00    +0.000 C 
ATOM     30  C   UNL     1       2.188   2.214  18.412  0.00  0.00    +0.000 C 
ATOM     31  C   UNL     1       3.635   2.633  18.130  0.00  0.00    +0.000 C 
ATOM     32  C   UNL     1       3.719   3.816  17.162  0.00  0.00    +0.000 C 
ENDBRANCH  19  26
ENDBRANCH  18  22
ENDBRANCH   1  18
TORSDOF 5
ENDMDL
MODEL 6
REMARK VINA RESULT:      -8.5      2.982      4.417
REMARK  Name = 
REMARK  5 active torsions:
REMARK  status: ('A' for Active; 'I' for Inactive)
REMARK    1  A    between atoms: C_2  and  C_3
REMARK    2  A    between atoms: C_6  and  C_7
REMARK    3  A    between atoms: C_7  and  N_8
REMARK    4  A    between atoms: N_8  and  S_9
REMARK    5  A    between atoms: S_9  and  C_12
REMARK                            x       y       z     vdW  Elec       q    Type
REMARK                         _______ _______ _______ _____ _____    ______ ____
ROOT
ATOM      1  N   UNL     1       0.911  11.058  21.511  0.00  0.00    +0.000 NA
ATOM      2  H   UNL     1       1.929  10.968  21.522  0.00  0.00    +0.000 HD
ENDROOT
BRANCH   1   3
ATOM      3  S   UNL     1       0.441  12.577  20.934  0.00  0.00    +0.000 S 
ATOM      4  O   UNL     1       1.099  13.552  21.782  0.00  0.00    +0.000 OA
ATOM      5  O   UNL     1       0.579  12.586  19.503  0.00  0.00    +0.000 OA
BRANCH   3   6
ATOM      6  C   UNL     1      -1.287  12.631  21.347  0.00  0.00    +0.000 A 
ATOM      7  C   UNL     1      -2.234  12.807  20.310  0.00  0.00    +0.000 A 
ATOM      8  C   UNL     1      -3.600  12.879  20.600  0.00  0.00    +0.000 A 
ATOM      9  C   UNL     1      -3.960  12.706  21.917  0.00  0.00    +0.000 A 
ATOM     10  N   UNL     1      -5.220  12.708  22.501  0.00  0.00    +0.000 N 
ATOM     11  C   UNL     1      -5.099  12.295  23.836  0.00  0.00    +0.000 A 
ATOM     12  O   UNL     1      -6.007  12.089  24.620  0.00  0.00    +0.000 OA
ATOM     13  N   UNL     1      -3.724  12.158  24.088  0.00  0.00    +0.000 N 
ATOM     14  C   UNL     1      -3.026  12.434  22.918  0.00  0.00    +0.000 A 
ATOM     15  C   UNL     1      -1.674  12.440  22.682  0.00  0.00    +0.000 A 
ATOM     16  H   UNL     1      -6.093  12.978  22.077  0.00  0.00    +0.000 HD
ATOM     17  H   UNL     1      -3.348  11.858  24.972  0.00  0.00    +0.000 HD
ENDBRANCH   3   6
ENDBRANCH   1   3
BRANCH   1  18
ATOM     18  C   UNL     1       0.153   9.928  20.987  0.00  0.00    +0.000 C 
BRANCH  18  22
ATOM     19  C   UNL     1       2.602   7.112  18.781  0.00  0.00    +0.000 A 
ATOM     20  C   UNL     1       2.210   8.314  18.172  0.00  0.00    +0.000 A 
ATOM     21  C   UNL     1       1.405   9.236  18.865  0.00  0.00    +0.000 A 
ATOM     22  C   UNL     1       0.968   8.959  20.170  0.00  0.00    +0.000 A 
ATOM     23  C   UNL     1       1.398   7.777  20.778  0.00  0.00    +0.000 A 
ATOM     24  C   UNL     1       2.254   6.904  20.114  0.00  0.00    +0.000 A 
BRANCH  19  26
ATOM     25  O   UNL     1       4.605   6.459  17.791  0.00  0.00    +0.000 OA
ATOM     26  C   UNL     1       3.444   6.131  18.030  0.00  0.00    +0.000 C 
ATOM     27  N   UNL     1       2.915   4.893  17.632  0.00  0.00    +0.000 N 
ATOM     28  C   UNL     1       1.520   4.451  17.690  0.00  0.00    +0.000 C 
ATOM     29  C   UNL     1       1.404   3.261  18.644  0.00  0.00    +0.000 C 
ATOM     30  C   UNL     1       2.320   2.125  18.186  0.00  0.00    +0.000 C 
ATOM     31  C   UNL     1       3.756   2.611  17.964  0.00  0.00    +0.000 C 
ATOM     32  C   UNL     1       3.815   3.874  17.100  0.00  0.00    +0.000 C 
ENDBRANCH  19  26
ENDBRANCH  18  22
ENDBRANCH   1  18
TORSDOF 5
ENDMDL
MODEL 7
REMARK VINA RESULT:      -8.5      3.022      8.900
REMARK  Name = 
REMARK  5 active torsions:
REMARK  status: ('A' for Active; 'I' for Inactive)
REMARK    1  A    between atoms: C_2  and  C_3
REMARK    2  A    between atoms: C_6  and  C_7
REMARK    3  A    between atoms: C_7  and  N_8
REMARK    4  A    between atoms: N_8  and  S_9
REMARK    5  A    between atoms: S_9  and  C_12
REMARK                            x       y       z     vdW  Elec       q    Type
REMARK                         _______ _______ _______ _____ _____    ______ ____
ROOT
ATOM      1  N   UNL     1       1.930   5.074  19.786  0.00  0.00    +0.000 NA
ATOM      2  H   UNL     1       0.937   5.259  19.630  0.00  0.00    +0.000 HD
ENDROOT
BRANCH   1   3
ATOM      3  S   UNL     1       2.414   3.653  19.006  0.00  0.00    +0.000 S 
ATOM      4  O   UNL     1       2.734   2.706  20.055  0.00  0.00    +0.000 OA
ATOM      5  O   UNL     1       1.466   3.357  17.966  0.00  0.00    +0.000 OA
BRANCH   3   6
ATOM      6  C   UNL     1       3.957   4.127  18.262  0.00  0.00    +0.000 A 
ATOM      7  C   UNL     1       5.109   4.227  19.078  0.00  0.00    +0.000 A 
ATOM      8  C   UNL     1       6.335   4.621  18.532  0.00  0.00    +0.000 A 
ATOM      9  C   UNL     1       6.363   4.837  17.174  0.00  0.00    +0.000 A 
ATOM     10  N   UNL     1       7.421   5.214  16.356  0.00  0.00    +0.000 N 
ATOM     11  C   UNL     1       7.013   5.114  15.018  0.00  0.00    +0.000 A 
ATOM     12  O   UNL     1       7.708   5.274  14.031  0.00  0.00    +0.000 OA
ATOM     13  N   UNL     1       5.648   4.785  15.040  0.00  0.00    +0.000 N 
ATOM     14  C   UNL     1       5.245   4.639  16.362  0.00  0.00    +0.000 A 
ATOM     15  C   UNL     1       4.009   4.335  16.876  0.00  0.00    +0.000 A 
ATOM     16  H   UNL     1       8.332   5.535  16.640  0.00  0.00    +0.000 HD
ATOM     17  H   UNL     1       5.098   4.638  14.209  0.00  0.00    +0.000 HD
ENDBRANCH   3   6
ENDBRANCH   1   3
BRANCH   1  18
ATOM     18  C   UNL     1       2.843   6.203  19.653  0.00  0.00    +0.000 C 
BRANCH  18  22
ATOM     19  C   UNL     1       0.757   9.931  18.913  0.00  0.00    +0.000 A 
ATOM     20  C   UNL     1       1.371   9.258  17.846  0.00  0.00    +0.000 A 
ATOM     21  C   UNL     1       2.064   8.053  18.066  0.00  0.00    +0.000 A 
ATOM     22  C   UNL     1       2.165   7.516  19.359  0.00  0.00    +0.000 A 
ATOM     23  C   UNL     1       1.515   8.177  20.406  0.00  0.00    +0.000 A 
ATOM     24  C   UNL     1       0.771   9.328  20.169  0.00  0.00    +0.000 A 
BRANCH  19  26
ATOM     25  O   UNL     1      -1.172  11.153  18.465  0.00  0.00    +0.000 OA
ATOM     26  C   UNL     1       0.038  11.219  18.672  0.00  0.00    +0.000 C 
ATOM     27  N   UNL     1       0.731  12.440  18.695  0.00  0.00    +0.000 N 
ATOM     28  C   UNL     1       2.180  12.650  18.750  0.00  0.00    +0.000 C 
ATOM     29  C   UNL     1       2.538  13.369  20.052  0.00  0.00    +0.000 C 
ATOM     30  C   UNL     1       1.788  14.698  20.147  0.00  0.00    +0.000 C 
ATOM     31  C   UNL     1       0.283  14.514  19.928  0.00  0.00    +0.000 C 
ATOM     32  C   UNL     1      -0.027  13.688  18.677  0.00  0.00    +0.000 C 
ENDBRANCH  19  26
ENDBRANCH  18  22
ENDBRANCH   1  18
TORSDOF 5
ENDMDL
MODEL 8
REMARK VINA RESULT:      -8.5      2.975      8.749
REMARK  Name = 
REMARK  5 active torsions:
REMARK  status: ('A' for Active; 'I' for Inactive)
REMARK    1  A    between atoms: C_2  and  C_3
REMARK    2  A    between atoms: C_6  and  C_7
REMARK    3  A    between atoms: C_7  and  N_8
REMARK    4  A    between atoms: N_8  and  S_9
REMARK    5  A    between atoms: S_9  and  C_12
REMARK                            x       y       z     vdW  Elec       q    Type
REMARK                         _______ _______ _______ _____ _____    ______ ____
ROOT
ATOM      1  N   UNL     1       2.039   5.218  21.191  0.00  0.00    +0.000 NA
ATOM      2  H   UNL     1       1.081   5.483  21.425  0.00  0.00    +0.000 HD
ENDROOT
BRANCH   1   3
ATOM      3  S   UNL     1       2.120   3.606  20.687  0.00  0.00    +0.000 S 
ATOM      4  O   UNL     1       2.911   2.911  21.684  0.00  0.00    +0.000 OA
ATOM      5  O   UNL     1       0.798   3.175  20.320  0.00  0.00    +0.000 OA
BRANCH   3   6
ATOM      6  C   UNL     1       3.121   3.706  19.223  0.00  0.00    +0.000 A 
ATOM      7  C   UNL     1       2.488   3.694  17.957  0.00  0.00    +0.000 A 
ATOM      8  C   UNL     1       3.246   3.747  16.783  0.00  0.00    +0.000 A 
ATOM      9  C   UNL     1       4.607   3.873  16.934  0.00  0.00    +0.000 A 
ATOM     10  N   UNL     1       5.603   3.966  15.969  0.00  0.00    +0.000 N 
ATOM     11  C   UNL     1       6.814   4.281  16.602  0.00  0.00    +0.000 A 
ATOM     12  O   UNL     1       7.875   4.531  16.060  0.00  0.00    +0.000 OA
ATOM     13  N   UNL     1       6.562   4.258  17.983  0.00  0.00    +0.000 N 
ATOM     14  C   UNL     1       5.214   3.984  18.185  0.00  0.00    +0.000 A 
ATOM     15  C   UNL     1       4.510   3.853  19.357  0.00  0.00    +0.000 A 
ATOM     16  H   UNL     1       5.513   3.815  14.978  0.00  0.00    +0.000 HD
ATOM     17  H   UNL     1       7.259   4.462  18.679  0.00  0.00    +0.000 HD
ENDBRANCH   3   6
ENDBRANCH   1   3
BRANCH   1  18
ATOM     18  C   UNL     1       2.810   6.163  20.391  0.00  0.00    +0.000 C 
BRANCH  18  22
ATOM     19  C   UNL     1       0.736   9.727  19.052  0.00  0.00    +0.000 A 
ATOM     20  C   UNL     1       0.666   9.351  20.401  0.00  0.00    +0.000 A 
ATOM     21  C   UNL     1       1.320   8.192  20.855  0.00  0.00    +0.000 A 
ATOM     22  C   UNL     1       2.040   7.384  19.960  0.00  0.00    +0.000 A 
ATOM     23  C   UNL     1       2.134   7.792  18.626  0.00  0.00    +0.000 A 
ATOM     24  C   UNL     1       1.546   8.978  18.199  0.00  0.00    +0.000 A 
BRANCH  19  26
ATOM     25  O   UNL     1      -1.093  10.792  18.083  0.00  0.00    +0.000 OA
ATOM     26  C   UNL     1       0.022  10.952  18.576  0.00  0.00    +0.000 C 
ATOM     27  N   UNL     1       0.613  12.218  18.704  0.00  0.00    +0.000 N 
ATOM     28  C   UNL     1       1.988  12.533  19.101  0.00  0.00    +0.000 C 
ATOM     29  C   UNL     1       1.970  13.321  20.413  0.00  0.00    +0.000 C 
ATOM     30  C   UNL     1       1.141  14.596  20.252  0.00  0.00    +0.000 C 
ATOM     31  C   UNL     1      -0.250  14.297  19.683  0.00  0.00    +0.000 C 
ATOM     32  C   UNL     1      -0.190  13.408  18.438  0.00  0.00    +0.000 C 
ENDBRANCH  19  26
ENDBRANCH  18  22
ENDBRANCH   1  18
TORSDOF 5
ENDMDL
MODEL 9
REMARK VINA RESULT:      -8.5      1.935      2.678
REMARK  Name = 
REMARK  5 active torsions:
REMARK  status: ('A' for Active; 'I' for Inactive)
REMARK    1  A    between atoms: C_2  and  C_3
REMARK    2  A    between atoms: C_6  and  C_7
REMARK    3  A    between atoms: C_7  and  N_8
REMARK    4  A    between atoms: N_8  and  S_9
REMARK    5  A    between atoms: S_9  and  C_12
REMARK                            x       y       z     vdW  Elec       q    Type
REMARK                         _______ _______ _______ _____ _____    ______ ____
ROOT
ATOM      1  N   UNL     1       0.888  11.220  21.395  0.00  0.00    +0.000 NA
ATOM      2  H   UNL     1       1.907  11.186  21.351  0.00  0.00    +0.000 HD
ENDROOT
BRANCH   1   3
ATOM      3  S   UNL     1       0.309  12.741  20.931  0.00  0.00    +0.000 S 
ATOM      4  O   UNL     1      -0.263  13.335  22.124  0.00  0.00    +0.000 OA
ATOM      5  O   UNL     1       1.326  13.400  20.157  0.00  0.00    +0.000 OA
BRANCH   3   6
ATOM      6  C   UNL     1      -1.052  12.330  19.866  0.00  0.00    +0.000 A 
ATOM      7  C   UNL     1      -2.371  12.426  20.371  0.00  0.00    +0.000 A 
ATOM      8  C   UNL     1      -3.466  12.087  19.569  0.00  0.00    +0.000 A 
ATOM      9  C   UNL     1      -3.188  11.725  18.271  0.00  0.00    +0.000 A 
ATOM     10  N   UNL     1      -4.054  11.357  17.248  0.00  0.00    +0.000 N 
ATOM     11  C   UNL     1      -3.326  11.270  16.053  0.00  0.00    +0.000 A 
ATOM     12  O   UNL     1      -3.775  11.065  14.940  0.00  0.00    +0.000 OA
ATOM     13  N   UNL     1      -1.978  11.474  16.390  0.00  0.00    +0.000 N 
ATOM     14  C   UNL     1      -1.893  11.728  17.753  0.00  0.00    +0.000 A 
ATOM     15  C   UNL     1      -0.791  11.975  18.534  0.00  0.00    +0.000 A 
ATOM     16  H   UNL     1      -5.037  11.154  17.319  0.00  0.00    +0.000 HD
ATOM     17  H   UNL     1      -1.231  11.477  15.715  0.00  0.00    +0.000 HD
ENDBRANCH   3   6
ENDBRANCH   1   3
BRANCH   1  18
ATOM     18  C   UNL     1       0.162  10.081  20.844  0.00  0.00    +0.000 C 
BRANCH  18  22
ATOM     19  C   UNL     1       2.584   7.151  18.760  0.00  0.00    +0.000 A 
ATOM     20  C   UNL     1       2.155   6.889  20.070  0.00  0.00    +0.000 A 
ATOM     21  C   UNL     1       1.379   7.831  20.770  0.00  0.00    +0.000 A 
ATOM     22  C   UNL     1       1.037   9.055  20.173  0.00  0.00    +0.000 A 
ATOM     23  C   UNL     1       1.437   9.286  18.853  0.00  0.00    +0.000 A 
ATOM     24  C   UNL     1       2.142   8.320  18.142  0.00  0.00    +0.000 A 
BRANCH  19  26
ATOM     25  O   UNL     1       4.586   6.467  17.790  0.00  0.00    +0.000 OA
ATOM     26  C   UNL     1       3.422   6.151  18.031  0.00  0.00    +0.000 C 
ATOM     27  N   UNL     1       2.888   4.908  17.656  0.00  0.00    +0.000 N 
ATOM     28  C   UNL     1       1.490   4.475  17.717  0.00  0.00    +0.000 C 
ATOM     29  C   UNL     1       1.364   3.304  18.694  0.00  0.00    +0.000 C 
ATOM     30  C   UNL     1       2.275   2.154  18.261  0.00  0.00    +0.000 C 
ATOM     31  C   UNL     1       3.715   2.628  18.035  0.00  0.00    +0.000 C 
ATOM     32  C   UNL     1       3.784   3.874  17.147  0.00  0.00    +0.000 C 
ENDBRANCH  19  26
ENDBRANCH  18  22
ENDBRANCH   1  18
TORSDOF 5
ENDMDL
