MODEL 1
REMARK VINA RESULT:      -8.6      0.000      0.000
REMARK  Name = 
REMARK  5 active torsions:
REMARK  status: ('A' for Active; 'I' for Inactive)
REMARK    1  A    between atoms: C_2  and  C_4
REMARK    2  A    between atoms: C_4  and  S_5
REMARK    3  A    between atoms: C_4  and  C_22
REMARK    4  A    between atoms: S_5  and  C_6
REMARK    5  A    between atoms: N_12  and  C_13
REMARK                            x       y       z     vdW  Elec       q    Type
REMARK                         _______ _______ _______ _____ _____    ______ ____
ROOT
ATOM      1  C   UNL     1       5.771   4.992  19.312  0.00  0.00    +0.000 A 
ATOM      2  N   UNL     1       4.787   5.831  19.251  0.00  0.00    +0.000 NA
ATOM      3  C   UNL     1       3.559   5.238  19.178  0.00  0.00    +0.000 A 
ATOM      4  C   UNL     1       3.322   3.885  19.181  0.00  0.00    +0.000 A 
ATOM      5  C   UNL     1       1.939   3.732  19.167  0.00  0.00    +0.000 A 
ATOM      6  N   UNL     1       1.307   4.909  19.172  0.00  0.00    +0.000 NA
ATOM      7  N   UNL     1       2.307   5.852  19.171  0.00  0.00    +0.000 N 
ATOM      8  C   UNL     1       4.431   2.979  19.244  0.00  0.00    +0.000 A 
ATOM      9  O   UNL     1       4.324   1.760  19.251  0.00  0.00    +0.000 OA
ATOM     10  N   UNL     1       5.646   3.624  19.326  0.00  0.00    +0.000 N 
ATOM     11  H   UNL     1       6.464   3.047  19.420  0.00  0.00    +0.000 HD
ENDROOT
BRANCH   7  12
ATOM     12  C   UNL     1       1.981   7.240  19.191  0.00  0.00    +0.000 A 
ATOM     13  C   UNL     1       1.494   7.821  20.376  0.00  0.00    +0.000 A 
ATOM     14  C   UNL     1       1.169   9.180  20.413  0.00  0.00    +0.000 A 
ATOM     15  C   UNL     1       1.313   9.965  19.270  0.00  0.00    +0.000 A 
ATOM     16  C   UNL     1       1.794   9.399  18.096  0.00  0.00    +0.000 A 
ATOM     17  C   UNL     1       2.132   8.043  18.055  0.00  0.00    +0.000 A 
ENDBRANCH   7  12
BRANCH   1  18
ATOM     18  S   UNL     1       7.405   5.533  19.538  0.00  0.00    +0.000 S 
BRANCH  18  19
ATOM     19  C   UNL     1       7.831   6.226  17.907  0.00  0.00    +0.000 C 
BRANCH  19  20
ATOM     20  C   UNL     1       6.980   5.657  16.776  0.00  0.00    +0.000 A 
ATOM     21  C   UNL     1       7.317   4.413  16.203  0.00  0.00    +0.000 A 
ATOM     22  C   UNL     1       6.572   3.891  15.143  0.00  0.00    +0.000 A 
ATOM     23  C   UNL     1       5.487   4.601  14.649  0.00  0.00    +0.000 A 
ATOM     24  F   UNL     1       4.792   4.115  13.613  0.00  0.00    +0.000 F 
ATOM     25  C   UNL     1       5.113   5.811  15.216  0.00  0.00    +0.000 A 
ATOM     26  C   UNL     1       5.849   6.331  16.282  0.00  0.00    +0.000 A 
ENDBRANCH  19  20
BRANCH  19  28
ATOM     27  N   UNL     1       8.679   8.316  18.928  0.00  0.00    +0.000 N 
ATOM     28  C   UNL     1       7.904   7.759  17.947  0.00  0.00    +0.000 C 
ATOM     29  O   UNL     1       7.341   8.511  17.151  0.00  0.00    +0.000 OA
ATOM     30  H   UNL     1       8.777   9.323  18.896  0.00  0.00    +0.000 HD
ATOM     31  H   UNL     1       9.371   7.798  19.451  0.00  0.00    +0.000 HD
ENDBRANCH  19  28
ENDBRANCH  18  19
ENDBRANCH   1  18
TORSDOF 5
ENDMDL
MODEL 2
REMARK VINA RESULT:      -8.4      0.092      1.293
REMARK  Name = 
REMARK  5 active torsions:
REMARK  status: ('A' for Active; 'I' for Inactive)
REMARK    1  A    between atoms: C_2  and  C_4
REMARK    2  A    between atoms: C_4  and  S_5
REMARK    3  A    between atoms: C_4  and  C_22
REMARK    4  A    between atoms: S_5  and  C_6
REMARK    5  A    between atoms: N_12  and  C_13
REMARK                            x       y       z     vdW  Elec       q    Type
REMARK                         _______ _______ _______ _____ _____    ______ ____
ROOT
ATOM      1  C   UNL     1       5.757   4.989  19.277  0.00  0.00    +0.000 A 
ATOM      2  N   UNL     1       4.782   5.838  19.206  0.00  0.00    +0.000 NA
ATOM      3  C   UNL     1       3.550   5.257  19.113  0.00  0.00    +0.000 A 
ATOM      4  C   UNL     1       3.300   3.905  19.108  0.00  0.00    +0.000 A 
ATOM      5  C   UNL     1       1.916   3.766  19.075  0.00  0.00    +0.000 A 
ATOM      6  N   UNL     1       1.295   4.949  19.075  0.00  0.00    +0.000 NA
ATOM      7  N   UNL     1       2.304   5.882  19.092  0.00  0.00    +0.000 N 
ATOM      8  C   UNL     1       4.399   2.990  19.183  0.00  0.00    +0.000 A 
ATOM      9  O   UNL     1       4.282   1.771  19.184  0.00  0.00    +0.000 OA
ATOM     10  N   UNL     1       5.620   3.623  19.284  0.00  0.00    +0.000 N 
ATOM     11  H   UNL     1       6.431   3.038  19.387  0.00  0.00    +0.000 HD
ENDROOT
BRANCH   7  12
ATOM     12  C   UNL     1       1.990   7.273  19.113  0.00  0.00    +0.000 A 
ATOM     13  C   UNL     1       2.181   8.044  17.952  0.00  0.00    +0.000 A 
ATOM     14  C   UNL     1       1.880   9.410  17.955  0.00  0.00    +0.000 A 
ATOM     15  C   UNL     1       1.399  10.017  19.114  0.00  0.00    +0.000 A 
ATOM     16  C   UNL     1       1.208   9.262  20.266  0.00  0.00    +0.000 A 
ATOM     17  C   UNL     1       1.496   7.894  20.265  0.00  0.00    +0.000 A 
ENDBRANCH   7  12
BRANCH   1  18
ATOM     18  S   UNL     1       7.393   5.514  19.527  0.00  0.00    +0.000 S 
BRANCH  18  19
ATOM     19  C   UNL     1       7.838   6.233  17.913  0.00  0.00    +0.000 C 
BRANCH  19  20
ATOM     20  C   UNL     1       7.024   5.658  16.758  0.00  0.00    +0.000 A 
ATOM     21  C   UNL     1       5.926   6.379  16.248  0.00  0.00    +0.000 A 
ATOM     22  C   UNL     1       5.145   5.854  15.214  0.00  0.00    +0.000 A 
ATOM     23  C   UNL     1       5.457   4.611  14.681  0.00  0.00    +0.000 A 
ATOM     24  F   UNL     1       4.691   4.094  13.712  0.00  0.00    +0.000 F 
ATOM     25  C   UNL     1       6.553   3.895  15.141  0.00  0.00    +0.000 A 
ATOM     26  C   UNL     1       7.340   4.421  16.168  0.00  0.00    +0.000 A 
ENDBRANCH  19  20
BRANCH  19  28
ATOM     27  N   UNL     1       8.671   8.331  18.932  0.00  0.00    +0.000 N 
ATOM     28  C   UNL     1       7.878   7.768  17.970  0.00  0.00    +0.000 C 
ATOM     29  O   UNL     1       7.271   8.515  17.203  0.00  0.00    +0.000 OA
ATOM     30  H   UNL     1       8.745   9.340  18.909  0.00  0.00    +0.000 HD
ATOM     31  H   UNL     1       9.393   7.823  19.425  0.00  0.00    +0.000 HD
ENDBRANCH  19  28
ENDBRANCH  18  19
ENDBRANCH   1  18
TORSDOF 5
ENDMDL
MODEL 3
REMARK VINA RESULT:      -8.3      2.008      2.535
REMARK  Name = 
REMARK  5 active torsions:
REMARK  status: ('A' for Active; 'I' for Inactive)
REMARK    1  A    between atoms: C_2  and  C_4
REMARK    2  A    between atoms: C_4  and  S_5
REMARK    3  A    between atoms: C_4  and  C_22
REMARK    4  A    between atoms: S_5  and  C_6
REMARK    5  A    between atoms: N_12  and  C_13
REMARK                            x       y       z     vdW  Elec       q    Type
REMARK                         _______ _______ _______ _____ _____    ______ ____
ROOT
ATOM      1  C   UNL     1       3.906   6.055  17.552  0.00  0.00    +0.000 A 
ATOM      2  N   UNL     1       3.199   6.912  18.218  0.00  0.00    +0.000 NA
ATOM      3  C   UNL     1       2.493   6.363  19.249  0.00  0.00    +0.000 A 
ATOM      4  C   UNL     1       2.502   5.036  19.609  0.00  0.00    +0.000 A 
ATOM      5  C   UNL     1       1.708   4.937  20.747  0.00  0.00    +0.000 A 
ATOM      6  N   UNL     1       1.222   6.123  21.123  0.00  0.00    +0.000 NA
ATOM      7  N   UNL     1       1.700   7.015  20.192  0.00  0.00    +0.000 N 
ATOM      8  C   UNL     1       3.289   4.110  18.850  0.00  0.00    +0.000 A 
ATOM      9  O   UNL     1       3.362   2.911  19.089  0.00  0.00    +0.000 OA
ATOM     10  N   UNL     1       3.989   4.713  17.827  0.00  0.00    +0.000 N 
ATOM     11  H   UNL     1       4.599   4.126  17.284  0.00  0.00    +0.000 HD
ENDROOT
BRANCH   7  12
ATOM     12  C   UNL     1       1.381   8.401  20.302  0.00  0.00    +0.000 A 
ATOM     13  C   UNL     1       1.116   8.954  21.567  0.00  0.00    +0.000 A 
ATOM     14  C   UNL     1       0.801  10.311  21.692  0.00  0.00    +0.000 A 
ATOM     15  C   UNL     1       0.736  11.120  20.559  0.00  0.00    +0.000 A 
ATOM     16  C   UNL     1       0.997  10.582  19.305  0.00  0.00    +0.000 A 
ATOM     17  C   UNL     1       1.324   9.228  19.175  0.00  0.00    +0.000 A 
ENDBRANCH   7  12
BRANCH   1  18
ATOM     18  S   UNL     1       4.975   6.562  16.282  0.00  0.00    +0.000 S 
BRANCH  18  19
ATOM     19  C   UNL     1       6.152   5.176  16.166  0.00  0.00    +0.000 C 
BRANCH  19  20
ATOM     20  C   UNL     1       6.480   4.790  14.727  0.00  0.00    +0.000 A 
ATOM     21  C   UNL     1       5.685   3.837  14.059  0.00  0.00    +0.000 A 
ATOM     22  C   UNL     1       5.990   3.443  12.753  0.00  0.00    +0.000 A 
ATOM     23  C   UNL     1       7.085   3.998  12.105  0.00  0.00    +0.000 A 
ATOM     24  F   UNL     1       7.395   3.598  10.865  0.00  0.00    +0.000 F 
ATOM     25  C   UNL     1       7.864   4.963  12.727  0.00  0.00    +0.000 A 
ATOM     26  C   UNL     1       7.557   5.365  14.028  0.00  0.00    +0.000 A 
ENDBRANCH  19  20
BRANCH  19  28
ATOM     27  N   UNL     1       8.008   4.278  17.536  0.00  0.00    +0.000 N 
ATOM     28  C   UNL     1       7.375   5.397  17.067  0.00  0.00    +0.000 C 
ATOM     29  O   UNL     1       7.834   6.498  17.371  0.00  0.00    +0.000 OA
ATOM     30  H   UNL     1       8.855   4.439  18.067  0.00  0.00    +0.000 HD
ATOM     31  H   UNL     1       7.874   3.357  17.143  0.00  0.00    +0.000 HD
ENDBRANCH  19  28
ENDBRANCH  18  19
ENDBRANCH   1  18
TORSDOF 5
ENDMDL
MODEL 4
REMARK VINA RESULT:      -8.2      2.013      2.715
REMARK  Name = 
REMARK  5 active torsions:
REMARK  status: ('A' for Active; 'I' for Inactive)
REMARK    1  A    between atoms: C_2  and  C_4
REMARK    2  A    between atoms: C_4  and  S_5
REMARK    3  A    between atoms: C_4  and  C_22
REMARK    4  A    between atoms: S_5  and  C_6
REMARK    5  A    between atoms: N_12  and  C_13
REMARK                            x       y       z     vdW  Elec       q    Type
REMARK                         _______ _______ _______ _____ _____    ______ ____
ROOT
ATOM      1  C   UNL     1       3.956   6.158  17.610  0.00  0.00    +0.000 A 
ATOM      2  N   UNL     1       3.219   7.040  18.207  0.00  0.00    +0.000 NA
ATOM      3  C   UNL     1       2.523   6.549  19.274  0.00  0.00    +0.000 A 
ATOM      4  C   UNL     1       2.570   5.254  19.733  0.00  0.00    +0.000 A 
ATOM      5  C   UNL     1       1.772   5.217  20.871  0.00  0.00    +0.000 A 
ATOM      6  N   UNL     1       1.248   6.413  21.154  0.00  0.00    +0.000 NA
ATOM      7  N   UNL     1       1.705   7.246  20.161  0.00  0.00    +0.000 N 
ATOM      8  C   UNL     1       3.389   4.298  19.049  0.00  0.00    +0.000 A 
ATOM      9  O   UNL     1       3.497   3.123  19.378  0.00  0.00    +0.000 OA
ATOM     10  N   UNL     1       4.078   4.843  17.987  0.00  0.00    +0.000 N 
ATOM     11  H   UNL     1       4.709   4.236  17.491  0.00  0.00    +0.000 HD
ENDROOT
BRANCH   7  12
ATOM     12  C   UNL     1       1.343   8.626  20.164  0.00  0.00    +0.000 A 
ATOM     13  C   UNL     1       1.286   9.330  18.948  0.00  0.00    +0.000 A 
ATOM     14  C   UNL     1       0.934  10.683  18.932  0.00  0.00    +0.000 A 
ATOM     15  C   UNL     1       0.651  11.345  20.125  0.00  0.00    +0.000 A 
ATOM     16  C   UNL     1       0.706  10.657  21.332  0.00  0.00    +0.000 A 
ATOM     17  C   UNL     1       1.045   9.301  21.353  0.00  0.00    +0.000 A 
ENDBRANCH   7  12
BRANCH   1  18
ATOM     18  S   UNL     1       5.018   6.600  16.310  0.00  0.00    +0.000 S 
BRANCH  18  19
ATOM     19  C   UNL     1       6.159   5.182  16.219  0.00  0.00    +0.000 C 
BRANCH  19  20
ATOM     20  C   UNL     1       6.499   4.781  14.787  0.00  0.00    +0.000 A 
ATOM     21  C   UNL     1       7.562   5.417  14.115  0.00  0.00    +0.000 A 
ATOM     22  C   UNL     1       7.869   5.090  12.792  0.00  0.00    +0.000 A 
ATOM     23  C   UNL     1       7.120   4.125  12.132  0.00  0.00    +0.000 A 
ATOM     24  F   UNL     1       7.393   3.833  10.854  0.00  0.00    +0.000 F 
ATOM     25  C   UNL     1       6.090   3.459  12.780  0.00  0.00    +0.000 A 
ATOM     26  C   UNL     1       5.788   3.777  14.105  0.00  0.00    +0.000 A 
ENDBRANCH  19  20
BRANCH  19  28
ATOM     27  N   UNL     1       8.001   4.242  17.580  0.00  0.00    +0.000 N 
ATOM     28  C   UNL     1       7.373   5.375  17.139  0.00  0.00    +0.000 C 
ATOM     29  O   UNL     1       7.830   6.466  17.481  0.00  0.00    +0.000 OA
ATOM     30  H   UNL     1       8.843   4.386  18.124  0.00  0.00    +0.000 HD
ATOM     31  H   UNL     1       7.870   3.333  17.158  0.00  0.00    +0.000 HD
ENDBRANCH  19  28
ENDBRANCH  18  19
ENDBRANCH   1  18
TORSDOF 5
ENDMDL
MODEL 5
REMARK VINA RESULT:      -7.9      0.625      1.105
REMARK  Name = 
REMARK  5 active torsions:
REMARK  status: ('A' for Active; 'I' for Inactive)
REMARK    1  A    between atoms: C_2  and  C_4
REMARK    2  A    between atoms: C_4  and  S_5
REMARK    3  A    between atoms: C_4  and  C_22
REMARK    4  A    between atoms: S_5  and  C_6
REMARK    5  A    between atoms: N_12  and  C_13
REMARK                            x       y       z     vdW  Elec       q    Type
REMARK                         _______ _______ _______ _____ _____    ______ ____
ROOT
ATOM      1  C   UNL     1       5.786   5.015  19.201  0.00  0.00    +0.000 A 
ATOM      2  N   UNL     1       4.799   5.853  19.161  0.00  0.00    +0.000 NA
ATOM      3  C   UNL     1       3.570   5.262  19.227  0.00  0.00    +0.000 A 
ATOM      4  C   UNL     1       3.334   3.913  19.342  0.00  0.00    +0.000 A 
ATOM      5  C   UNL     1       1.955   3.766  19.449  0.00  0.00    +0.000 A 
ATOM      6  N   UNL     1       1.324   4.944  19.423  0.00  0.00    +0.000 NA
ATOM      7  N   UNL     1       2.321   5.880  19.278  0.00  0.00    +0.000 N 
ATOM      8  C   UNL     1       4.446   3.009  19.378  0.00  0.00    +0.000 A 
ATOM      9  O   UNL     1       4.342   1.793  19.477  0.00  0.00    +0.000 OA
ATOM     10  N   UNL     1       5.663   3.653  19.318  0.00  0.00    +0.000 N 
ATOM     11  H   UNL     1       6.487   3.080  19.386  0.00  0.00    +0.000 HD
ENDROOT
BRANCH   7  12
ATOM     12  C   UNL     1       1.996   7.268  19.229  0.00  0.00    +0.000 A 
ATOM     13  C   UNL     1       2.188   7.983  18.033  0.00  0.00    +0.000 A 
ATOM     14  C   UNL     1       1.875   9.344  17.968  0.00  0.00    +0.000 A 
ATOM     15  C   UNL     1       1.383  10.003  19.093  0.00  0.00    +0.000 A 
ATOM     16  C   UNL     1       1.190   9.304  20.279  0.00  0.00    +0.000 A 
ATOM     17  C   UNL     1       1.490   7.939  20.347  0.00  0.00    +0.000 A 
ENDBRANCH   7  12
BRANCH   1  18
ATOM     18  S   UNL     1       7.432   5.563  19.258  0.00  0.00    +0.000 S 
BRANCH  18  19
ATOM     19  C   UNL     1       7.648   6.363  17.635  0.00  0.00    +0.000 C 
BRANCH  19  20
ATOM     20  C   UNL     1       6.865   5.676  16.521  0.00  0.00    +0.000 A 
ATOM     21  C   UNL     1       7.206   4.365  16.131  0.00  0.00    +0.000 A 
ATOM     22  C   UNL     1       6.525   3.730  15.089  0.00  0.00    +0.000 A 
ATOM     23  C   UNL     1       5.499   4.395  14.433  0.00  0.00    +0.000 A 
ATOM     24  F   UNL     1       4.867   3.799  13.414  0.00  0.00    +0.000 F 
ATOM     25  C   UNL     1       5.121   5.673  14.818  0.00  0.00    +0.000 A 
ATOM     26  C   UNL     1       5.793   6.307  15.865  0.00  0.00    +0.000 A 
ENDBRANCH  19  20
BRANCH  19  28
ATOM     27  N   UNL     1       6.149   8.332  17.724  0.00  0.00    +0.000 N 
ATOM     28  C   UNL     1       7.442   7.883  17.722  0.00  0.00    +0.000 C 
ATOM     29  O   UNL     1       8.347   8.711  17.815  0.00  0.00    +0.000 OA
ATOM     30  H   UNL     1       6.027   9.328  17.857  0.00  0.00    +0.000 HD
ATOM     31  H   UNL     1       5.354   7.737  17.913  0.00  0.00    +0.000 HD
ENDBRANCH  19  28
ENDBRANCH  18  19
ENDBRANCH   1  18
TORSDOF 5
ENDMDL
MODEL 6
REMARK VINA RESULT:      -7.9      2.795      5.304
REMARK  Name = 
REMARK  5 active torsions:
REMARK  status: ('A' for Active; 'I' for Inactive)
REMARK    1  A    between atoms: C_2  and  C_4
REMARK    2  A    between atoms: C_4  and  S_5
REMARK    3  A    between atoms: C_4  and  C_22
REMARK    4  A    between atoms: S_5  and  C_6
REMARK    5  A    between atoms: N_12  and  C_13
REMARK                            x       y       z     vdW  Elec       q    Type
REMARK                         _______ _______ _______ _____ _____    ______ ____
ROOT
ATOM      1  C   UNL     1       2.220   6.773  19.801  0.00  0.00    +0.000 A 
ATOM      2  N   UNL     1       1.556   7.743  20.345  0.00  0.00    +0.000 NA
ATOM      3  C   UNL     1       1.508   8.875  19.584  0.00  0.00    +0.000 A 
ATOM      4  C   UNL     1       2.077   9.030  18.342  0.00  0.00    +0.000 A 
ATOM      5  C   UNL     1       1.721  10.303  17.907  0.00  0.00    +0.000 A 
ATOM      6  N   UNL     1       0.954  10.938  18.797  0.00  0.00    +0.000 NA
ATOM      7  N   UNL     1       0.822  10.060  19.846  0.00  0.00    +0.000 N 
ATOM      8  C   UNL     1       2.811   7.941  17.767  0.00  0.00    +0.000 A 
ATOM      9  O   UNL     1       3.354   7.980  16.670  0.00  0.00    +0.000 OA
ATOM     10  N   UNL     1       2.822   6.820  18.568  0.00  0.00    +0.000 N 
ATOM     11  H   UNL     1       3.281   6.002  18.203  0.00  0.00    +0.000 HD
ENDROOT
BRANCH   7  12
ATOM     12  C   UNL     1       0.039  10.418  20.983  0.00  0.00    +0.000 A 
ATOM     13  C   UNL     1      -0.795  11.549  20.923  0.00  0.00    +0.000 A 
ATOM     14  C   UNL     1      -1.569  11.914  22.028  0.00  0.00    +0.000 A 
ATOM     15  C   UNL     1      -1.509  11.165  23.202  0.00  0.00    +0.000 A 
ATOM     16  C   UNL     1      -0.688  10.046  23.270  0.00  0.00    +0.000 A 
ATOM     17  C   UNL     1       0.080   9.668  22.164  0.00  0.00    +0.000 A 
ENDBRANCH   7  12
BRANCH   1  18
ATOM     18  S   UNL     1       2.296   5.206  20.543  0.00  0.00    +0.000 S 
BRANCH  18  19
ATOM     19  C   UNL     1       2.423   4.086  19.111  0.00  0.00    +0.000 C 
BRANCH  19  20
ATOM     20  C   UNL     1       3.780   4.156  18.417  0.00  0.00    +0.000 A 
ATOM     21  C   UNL     1       4.949   4.346  19.181  0.00  0.00    +0.000 A 
ATOM     22  C   UNL     1       6.198   4.448  18.562  0.00  0.00    +0.000 A 
ATOM     23  C   UNL     1       6.289   4.358  17.180  0.00  0.00    +0.000 A 
ATOM     24  F   UNL     1       7.481   4.487  16.585  0.00  0.00    +0.000 F 
ATOM     25  C   UNL     1       5.159   4.138  16.406  0.00  0.00    +0.000 A 
ATOM     26  C   UNL     1       3.911   4.026  17.022  0.00  0.00    +0.000 A 
ENDBRANCH  19  20
BRANCH  19  28
ATOM     27  N   UNL     1       1.791   1.795  18.418  0.00  0.00    +0.000 N 
ATOM     28  C   UNL     1       1.952   2.667  19.460  0.00  0.00    +0.000 C 
ATOM     29  O   UNL     1       1.737   2.259  20.601  0.00  0.00    +0.000 OA
ATOM     30  H   UNL     1       1.552   0.843  18.670  0.00  0.00    +0.000 HD
ATOM     31  H   UNL     1       2.182   1.948  17.499  0.00  0.00    +0.000 HD
ENDBRANCH  19  28
ENDBRANCH  18  19
ENDBRANCH   1  18
TORSDOF 5
ENDMDL
MODEL 7
REMARK VINA RESULT:      -7.9      2.553      3.419
REMARK  Name = 
REMARK  5 active torsions:
REMARK  status: ('A' for Active; 'I' for Inactive)
REMARK    1  A    between atoms: C_2  and  C_4
REMARK    2  A    between atoms: C_4  and  S_5
REMARK    3  A    between atoms: C_4  and  C_22
REMARK    4  A    between atoms: S_5  and  C_6
REMARK    5  A    between atoms: N_12  and  C_13
REMARK                            x       y       z     vdW  Elec       q    Type
REMARK                         _______ _______ _______ _____ _____    ______ ____
ROOT
ATOM      1  C   UNL     1       4.362   3.631  18.128  0.00  0.00    +0.000 A 
ATOM      2  N   UNL     1       3.769   4.776  18.248  0.00  0.00    +0.000 NA
ATOM      3  C   UNL     1       3.036   4.901  19.393  0.00  0.00    +0.000 A 
ATOM      4  C   UNL     1       2.912   3.946  20.373  0.00  0.00    +0.000 A 
ATOM      5  C   UNL     1       2.143   4.520  21.380  0.00  0.00    +0.000 A 
ATOM      6  N   UNL     1       1.796   5.777  21.090  0.00  0.00    +0.000 NA
ATOM      7  N   UNL     1       2.342   6.020  19.852  0.00  0.00    +0.000 N 
ATOM      8  C   UNL     1       3.576   2.686  20.211  0.00  0.00    +0.000 A 
ATOM      9  O   UNL     1       3.527   1.772  21.024  0.00  0.00    +0.000 OA
ATOM     10  N   UNL     1       4.309   2.612  19.046  0.00  0.00    +0.000 N 
ATOM     11  H   UNL     1       4.839   1.771  18.892  0.00  0.00    +0.000 HD
ENDROOT
BRANCH   7  12
ATOM     12  C   UNL     1       2.175   7.296  19.236  0.00  0.00    +0.000 A 
ATOM     13  C   UNL     1       2.799   7.557  18.003  0.00  0.00    +0.000 A 
ATOM     14  C   UNL     1       2.647   8.802  17.386  0.00  0.00    +0.000 A 
ATOM     15  C   UNL     1       1.885   9.797  17.997  0.00  0.00    +0.000 A 
ATOM     16  C   UNL     1       1.265   9.547  19.215  0.00  0.00    +0.000 A 
ATOM     17  C   UNL     1       1.404   8.300  19.832  0.00  0.00    +0.000 A 
ENDBRANCH   7  12
BRANCH   1  18
ATOM     18  S   UNL     1       5.445   3.311  16.809  0.00  0.00    +0.000 S 
BRANCH  18  19
ATOM     19  C   UNL     1       5.706   4.965  16.089  0.00  0.00    +0.000 C 
BRANCH  19  20
ATOM     20  C   UNL     1       6.568   5.868  16.966  0.00  0.00    +0.000 A 
ATOM     21  C   UNL     1       6.577   7.260  16.741  0.00  0.00    +0.000 A 
ATOM     22  C   UNL     1       7.386   8.102  17.509  0.00  0.00    +0.000 A 
ATOM     23  C   UNL     1       8.187   7.563  18.506  0.00  0.00    +0.000 A 
ATOM     24  F   UNL     1       8.986   8.365  19.221  0.00  0.00    +0.000 F 
ATOM     25  C   UNL     1       8.172   6.201  18.771  0.00  0.00    +0.000 A 
ATOM     26  C   UNL     1       7.358   5.358  18.011  0.00  0.00    +0.000 A 
ENDBRANCH  19  20
BRANCH  19  28
ATOM     27  N   UNL     1       7.410   5.329  14.330  0.00  0.00    +0.000 N 
ATOM     28  C   UNL     1       6.151   4.878  14.622  0.00  0.00    +0.000 C 
ATOM     29  O   UNL     1       5.472   4.412  13.707  0.00  0.00    +0.000 OA
ATOM     30  H   UNL     1       7.716   5.197  13.374  0.00  0.00    +0.000 HD
ATOM     31  H   UNL     1       8.123   5.481  15.030  0.00  0.00    +0.000 HD
ENDBRANCH  19  28
ENDBRANCH  18  19
ENDBRANCH   1  18
TORSDOF 5
ENDMDL
MODEL 8
REMARK VINA RESULT:      -7.9      2.786      6.809
REMARK  Name = 
REMARK  5 active torsions:
REMARK  status: ('A' for Active; 'I' for Inactive)
REMARK    1  A    between atoms: C_2  and  C_4
REMARK    2  A    between atoms: C_4  and  S_5
REMARK    3  A    between atoms: C_4  and  C_22
REMARK    4  A    between atoms: S_5  and  C_6
REMARK    5  A    between atoms: N_12  and  C_13
REMARK                            x       y       z     vdW  Elec       q    Type
REMARK                         _______ _______ _______ _____ _____    ______ ____
ROOT
ATOM      1  C   UNL     1       4.761   3.678  18.274  0.00  0.00    +0.000 A 
ATOM      2  N   UNL     1       5.019   3.749  17.007  0.00  0.00    +0.000 NA
ATOM      3  C   UNL     1       6.035   4.606  16.697  0.00  0.00    +0.000 A 
ATOM      4  C   UNL     1       6.767   5.340  17.600  0.00  0.00    +0.000 A 
ATOM      5  C   UNL     1       7.736   6.011  16.861  0.00  0.00    +0.000 A 
ATOM      6  N   UNL     1       7.659   5.723  15.558  0.00  0.00    +0.000 NA
ATOM      7  N   UNL     1       6.599   4.855  15.447  0.00  0.00    +0.000 N 
ATOM      8  C   UNL     1       6.456   5.245  18.996  0.00  0.00    +0.000 A 
ATOM      9  O   UNL     1       7.047   5.858  19.876  0.00  0.00    +0.000 OA
ATOM     10  N   UNL     1       5.431   4.362  19.258  0.00  0.00    +0.000 N 
ATOM     11  H   UNL     1       5.193   4.213  20.224  0.00  0.00    +0.000 HD
ENDROOT
BRANCH   7  12
ATOM     12  C   UNL     1       6.240   4.326  14.172  0.00  0.00    +0.000 A 
ATOM     13  C   UNL     1       7.217   4.215  13.167  0.00  0.00    +0.000 A 
ATOM     14  C   UNL     1       6.882   3.699  11.911  0.00  0.00    +0.000 A 
ATOM     15  C   UNL     1       5.572   3.304  11.645  0.00  0.00    +0.000 A 
ATOM     16  C   UNL     1       4.600   3.411  12.632  0.00  0.00    +0.000 A 
ATOM     17  C   UNL     1       4.932   3.915  13.894  0.00  0.00    +0.000 A 
ENDBRANCH   7  12
BRANCH   1  18
ATOM     18  S   UNL     1       3.592   2.554  18.895  0.00  0.00    +0.000 S 
BRANCH  18  19
ATOM     19  C   UNL     1       2.636   3.571  20.067  0.00  0.00    +0.000 C 
BRANCH  19  20
ATOM     20  C   UNL     1       2.393   4.991  19.565  0.00  0.00    +0.000 A 
ATOM     21  C   UNL     1       2.188   5.222  18.189  0.00  0.00    +0.000 A 
ATOM     22  C   UNL     1       1.999   6.519  17.704  0.00  0.00    +0.000 A 
ATOM     23  C   UNL     1       2.010   7.591  18.585  0.00  0.00    +0.000 A 
ATOM     24  F   UNL     1       1.859   8.836  18.117  0.00  0.00    +0.000 F 
ATOM     25  C   UNL     1       2.176   7.388  19.948  0.00  0.00    +0.000 A 
ATOM     26  C   UNL     1       2.356   6.093  20.437  0.00  0.00    +0.000 A 
ENDBRANCH  19  20
BRANCH  19  28
ATOM     27  N   UNL     1       1.358   2.451  21.867  0.00  0.00    +0.000 N 
ATOM     28  C   UNL     1       1.378   2.837  20.555  0.00  0.00    +0.000 C 
ATOM     29  O   UNL     1       0.390   2.599  19.861  0.00  0.00    +0.000 OA
ATOM     30  H   UNL     1       0.494   2.035  22.192  0.00  0.00    +0.000 HD
ATOM     31  H   UNL     1       1.988   2.820  22.566  0.00  0.00    +0.000 HD
ENDBRANCH  19  28
ENDBRANCH  18  19
ENDBRANCH   1  18
TORSDOF 5
ENDMDL
MODEL 9
REMARK VINA RESULT:      -7.8      1.303      1.516
REMARK  Name = 
REMARK  5 active torsions:
REMARK  status: ('A' for Active; 'I' for Inactive)
REMARK    1  A    between atoms: C_2  and  C_4
REMARK    2  A    between atoms: C_4  and  S_5
REMARK    3  A    between atoms: C_4  and  C_22
REMARK    4  A    between atoms: S_5  and  C_6
REMARK    5  A    between atoms: N_12  and  C_13
REMARK                            x       y       z     vdW  Elec       q    Type
REMARK                         _______ _______ _______ _____ _____    ______ ____
ROOT
ATOM      1  C   UNL     1       5.741   4.637  18.680  0.00  0.00    +0.000 A 
ATOM      2  N   UNL     1       4.799   5.524  18.748  0.00  0.00    +0.000 NA
ATOM      3  C   UNL     1       3.612   5.034  19.214  0.00  0.00    +0.000 A 
ATOM      4  C   UNL     1       3.379   3.738  19.606  0.00  0.00    +0.000 A 
ATOM      5  C   UNL     1       2.070   3.702  20.075  0.00  0.00    +0.000 A 
ATOM      6  N   UNL     1       1.485   4.901  20.012  0.00  0.00    +0.000 NA
ATOM      7  N   UNL     1       2.435   5.735  19.471  0.00  0.00    +0.000 N 
ATOM      8  C   UNL     1       4.439   2.777  19.514  0.00  0.00    +0.000 A 
ATOM      9  O   UNL     1       4.332   1.601  19.836  0.00  0.00    +0.000 OA
ATOM     10  N   UNL     1       5.617   3.321  19.048  0.00  0.00    +0.000 N 
ATOM     11  H   UNL     1       6.415   2.711  19.003  0.00  0.00    +0.000 HD
ENDROOT
BRANCH   7  12
ATOM     12  C   UNL     1       2.144   7.117  19.275  0.00  0.00    +0.000 A 
ATOM     13  C   UNL     1       1.669   7.886  20.353  0.00  0.00    +0.000 A 
ATOM     14  C   UNL     1       1.379   9.242  20.178  0.00  0.00    +0.000 A 
ATOM     15  C   UNL     1       1.547   9.838  18.929  0.00  0.00    +0.000 A 
ATOM     16  C   UNL     1       2.016   9.085  17.858  0.00  0.00    +0.000 A 
ATOM     17  C   UNL     1       2.319   7.731  18.030  0.00  0.00    +0.000 A 
ENDBRANCH   7  12
BRANCH   1  18
ATOM     18  S   UNL     1       7.360   5.076  18.234  0.00  0.00    +0.000 S 
BRANCH  18  19
ATOM     19  C   UNL     1       7.116   6.014  16.692  0.00  0.00    +0.000 C 
BRANCH  19  20
ATOM     20  C   UNL     1       6.721   5.131  15.512  0.00  0.00    +0.000 A 
ATOM     21  C   UNL     1       7.432   5.225  14.298  0.00  0.00    +0.000 A 
ATOM     22  C   UNL     1       7.064   4.451  13.194  0.00  0.00    +0.000 A 
ATOM     23  C   UNL     1       5.990   3.578  13.294  0.00  0.00    +0.000 A 
ATOM     24  F   UNL     1       5.619   2.859  12.227  0.00  0.00    +0.000 F 
ATOM     25  C   UNL     1       5.295   3.441  14.486  0.00  0.00    +0.000 A 
ATOM     26  C   UNL     1       5.665   4.206  15.594  0.00  0.00    +0.000 A 
ENDBRANCH  19  20
BRANCH  19  28
ATOM     27  N   UNL     1       5.028   7.260  16.224  0.00  0.00    +0.000 N 
ATOM     28  C   UNL     1       6.211   7.236  16.911  0.00  0.00    +0.000 C 
ATOM     29  O   UNL     1       6.463   8.170  17.672  0.00  0.00    +0.000 OA
ATOM     30  H   UNL     1       4.410   8.034  16.435  0.00  0.00    +0.000 HD
ATOM     31  H   UNL     1       4.619   6.443  15.790  0.00  0.00    +0.000 HD
ENDBRANCH  19  28
ENDBRANCH  18  19
ENDBRANCH   1  18
TORSDOF 5
ENDMDL
