MODEL 1
REMARK VINA RESULT:      -8.7      0.000      0.000
REMARK  Name = 
REMARK  9 active torsions:
REMARK  status: ('A' for Active; 'I' for Inactive)
REMARK    1  A    between atoms: C_1  and  N_2
REMARK    2  A    between atoms: C_6  and  C_7
REMARK    3  A    between atoms: C_7  and  C_8
REMARK    4  A    between atoms: C_8  and  C_12
REMARK    5  A    between atoms: C_9  and  C_10
REMARK    6  A    between atoms: C_10  and  O_11
REMARK    7  A    between atoms: C_16  and  N_17
REMARK    8  A    between atoms: C_24  and  C_25
REMARK    9  A    between atoms: C_25  and  C_26
REMARK                            x       y       z     vdW  Elec       q    Type
REMARK                         _______ _______ _______ _____ _____    ______ ____
ROOT
ATOM      1  C   UNL     1       1.363   8.755  19.620  0.00  0.00    +0.000 A 
ATOM      2  C   UNL     1       1.867   9.217  18.403  0.00  0.00    +0.000 A 
ATOM      3  C   UNL     1       2.571   8.348  17.569  0.00  0.00    +0.000 A 
ATOM      4  C   UNL     1       2.866   7.055  18.000  0.00  0.00    +0.000 A 
ATOM      5  C   UNL     1       2.576   6.681  19.320  0.00  0.00    +0.000 A 
ATOM      6  C   UNL     1       1.699   7.472  20.067  0.00  0.00    +0.000 A 
ENDROOT
BRANCH   5   7
ATOM      7  N   UNL     1       3.494   5.820  20.062  0.00  0.00    +0.000 N 
ATOM      8  C   UNL     1       4.652   5.468  19.200  0.00  0.00    +0.000 C 
ATOM      9  C   UNL     1       4.147   4.240  18.508  0.00  0.00    +0.000 A 
ATOM     10  C   UNL     1       3.243   3.617  19.380  0.00  0.00    +0.000 A 
ATOM     11  C   UNL     1       2.444   2.553  19.009  0.00  0.00    +0.000 A 
ATOM     12  C   UNL     1       2.531   2.126  17.689  0.00  0.00    +0.000 A 
ATOM     13  C   UNL     1       3.409   2.761  16.786  0.00  0.00    +0.000 A 
ATOM     14  C   UNL     1       4.245   3.827  17.181  0.00  0.00    +0.000 A 
ATOM     15  C   UNL     1       2.957   4.577  20.475  0.00  0.00    +0.000 C 
ATOM     16  O   UNL     1       2.208   4.345  21.411  0.00  0.00    +0.000 OA
BRANCH  14  17
ATOM     17  C   UNL     1       5.108   4.522  16.150  0.00  0.00    +0.000 C 
ATOM     18  C   UNL     1       6.578   4.359  16.483  0.00  0.00    +0.000 C 
ATOM     19  F   UNL     1       4.906   4.028  14.893  0.00  0.00    +0.000 F 
ATOM     20  F   UNL     1       4.856   5.858  16.046  0.00  0.00    +0.000 F 
ENDBRANCH  14  17
ENDBRANCH   5   7
BRANCH   1  21
ATOM     21  C   UNL     1       0.586   9.607  20.531  0.00  0.00    +0.000 C 
ATOM     22  C   UNL     1       0.196   9.073  21.707  0.00  0.00    +0.000 C 
BRANCH  21  23
ATOM     23  C   UNL     1       0.176  10.952  19.967  0.00  0.00    +0.000 C 
BRANCH  23  29
ATOM     24  C   UNL     1       2.245  12.638  18.301  0.00  0.00    +0.000 C 
ATOM     25  N   UNL     1       1.888  12.825  19.681  0.00  0.00    +0.000 N 
ATOM     26  C   UNL     1       2.393  13.793  20.495  0.00  0.00    +0.000 A 
ATOM     27  N   UNL     1       1.782  13.755  21.653  0.00  0.00    +0.000 NA
ATOM     28  N   UNL     1       0.883  12.722  21.611  0.00  0.00    +0.000 NA
ATOM     29  C   UNL     1       0.970  12.134  20.432  0.00  0.00    +0.000 A 
ENDBRANCH  23  29
ENDBRANCH  21  23
BRANCH  22  30
ATOM     30  C   UNL     1      -0.757   9.674  22.688  0.00  0.00    +0.000 C 
BRANCH  30  31
ATOM     31  O   UNL     1      -0.011  10.565  23.513  0.00  0.00    +0.000 OA
ATOM     32  H   UNL     1      -0.198  10.311  24.431  0.00  0.00    +0.000 HD
ENDBRANCH  30  31
ENDBRANCH  22  30
ENDBRANCH   1  21
TORSDOF 7
ENDMDL
MODEL 2
REMARK VINA RESULT:      -8.4      0.801      1.074
REMARK  Name = 
REMARK  9 active torsions:
REMARK  status: ('A' for Active; 'I' for Inactive)
REMARK    1  A    between atoms: C_1  and  N_2
REMARK    2  A    between atoms: C_6  and  C_7
REMARK    3  A    between atoms: C_7  and  C_8
REMARK    4  A    between atoms: C_8  and  C_12
REMARK    5  A    between atoms: C_9  and  C_10
REMARK    6  A    between atoms: C_10  and  O_11
REMARK    7  A    between atoms: C_16  and  N_17
REMARK    8  A    between atoms: C_24  and  C_25
REMARK    9  A    between atoms: C_25  and  C_26
REMARK                            x       y       z     vdW  Elec       q    Type
REMARK                         _______ _______ _______ _____ _____    ______ ____
ROOT
ATOM      1  C   UNL     1       1.296   8.701  19.712  0.00  0.00    +0.000 A 
ATOM      2  C   UNL     1       1.830   9.255  18.546  0.00  0.00    +0.000 A 
ATOM      3  C   UNL     1       2.593   8.461  17.688  0.00  0.00    +0.000 A 
ATOM      4  C   UNL     1       2.914   7.154  18.050  0.00  0.00    +0.000 A 
ATOM      5  C   UNL     1       2.587   6.688  19.331  0.00  0.00    +0.000 A 
ATOM      6  C   UNL     1       1.658   7.403  20.090  0.00  0.00    +0.000 A 
ENDROOT
BRANCH   5   7
ATOM      7  N   UNL     1       3.505   5.811  20.054  0.00  0.00    +0.000 N 
ATOM      8  C   UNL     1       4.651   5.458  19.176  0.00  0.00    +0.000 C 
ATOM      9  C   UNL     1       4.128   4.243  18.475  0.00  0.00    +0.000 A 
ATOM     10  C   UNL     1       3.228   3.618  19.348  0.00  0.00    +0.000 A 
ATOM     11  C   UNL     1       2.415   2.566  18.973  0.00  0.00    +0.000 A 
ATOM     12  C   UNL     1       2.485   2.153  17.647  0.00  0.00    +0.000 A 
ATOM     13  C   UNL     1       3.360   2.791  16.743  0.00  0.00    +0.000 A 
ATOM     14  C   UNL     1       4.209   3.845  17.142  0.00  0.00    +0.000 A 
ATOM     15  C   UNL     1       2.961   4.568  20.457  0.00  0.00    +0.000 C 
ATOM     16  O   UNL     1       2.219   4.331  21.398  0.00  0.00    +0.000 OA
BRANCH  14  17
ATOM     17  C   UNL     1       5.068   4.545  16.111  0.00  0.00    +0.000 C 
ATOM     18  C   UNL     1       6.539   4.384  16.440  0.00  0.00    +0.000 C 
ATOM     19  F   UNL     1       4.865   4.053  14.853  0.00  0.00    +0.000 F 
ATOM     20  F   UNL     1       4.813   5.881  16.011  0.00  0.00    +0.000 F 
ENDBRANCH  14  17
ENDBRANCH   5   7
BRANCH   1  21
ATOM     21  C   UNL     1       0.459   9.470  20.643  0.00  0.00    +0.000 C 
ATOM     22  C   UNL     1       0.249   8.951  21.870  0.00  0.00    +0.000 C 
BRANCH  21  23
ATOM     23  C   UNL     1      -0.208  10.696  20.052  0.00  0.00    +0.000 C 
BRANCH  23  29
ATOM     24  C   UNL     1      -1.913  13.330  20.287  0.00  0.00    +0.000 C 
ATOM     25  N   UNL     1      -0.536  13.155  20.661  0.00  0.00    +0.000 N 
ATOM     26  C   UNL     1       0.257  14.121  21.201  0.00  0.00    +0.000 A 
ATOM     27  N   UNL     1       1.417  13.606  21.525  0.00  0.00    +0.000 NA
ATOM     28  N   UNL     1       1.398  12.285  21.161  0.00  0.00    +0.000 NA
ATOM     29  C   UNL     1       0.231  12.017  20.604  0.00  0.00    +0.000 A 
ENDBRANCH  23  29
ENDBRANCH  21  23
BRANCH  22  30
ATOM     30  C   UNL     1      -0.716   9.448  22.897  0.00  0.00    +0.000 C 
BRANCH  30  31
ATOM     31  O   UNL     1      -0.121  10.581  23.524  0.00  0.00    +0.000 OA
ATOM     32  H   UNL     1      -0.697  10.816  24.270  0.00  0.00    +0.000 HD
ENDBRANCH  30  31
ENDBRANCH  22  30
ENDBRANCH   1  21
TORSDOF 7
ENDMDL
MODEL 3
REMARK VINA RESULT:      -8.4      1.758      2.327
REMARK  Name = 
REMARK  9 active torsions:
REMARK  status: ('A' for Active; 'I' for Inactive)
REMARK    1  A    between atoms: C_1  and  N_2
REMARK    2  A    between atoms: C_6  and  C_7
REMARK    3  A    between atoms: C_7  and  C_8
REMARK    4  A    between atoms: C_8  and  C_12
REMARK    5  A    between atoms: C_9  and  C_10
REMARK    6  A    between atoms: C_10  and  O_11
REMARK    7  A    between atoms: C_16  and  N_17
REMARK    8  A    between atoms: C_24  and  C_25
REMARK    9  A    between atoms: C_25  and  C_26
REMARK                            x       y       z     vdW  Elec       q    Type
REMARK                         _______ _______ _______ _____ _____    ______ ____
ROOT
ATOM      1  C   UNL     1       1.430   8.873  19.587  0.00  0.00    +0.000 A 
ATOM      2  C   UNL     1       1.989   9.244  18.362  0.00  0.00    +0.000 A 
ATOM      3  C   UNL     1       2.633   8.288  17.576  0.00  0.00    +0.000 A 
ATOM      4  C   UNL     1       2.817   6.995  18.062  0.00  0.00    +0.000 A 
ATOM      5  C   UNL     1       2.477   6.698  19.390  0.00  0.00    +0.000 A 
ATOM      6  C   UNL     1       1.655   7.586  20.089  0.00  0.00    +0.000 A 
ENDROOT
BRANCH   5   7
ATOM      7  N   UNL     1       3.311   5.798  20.181  0.00  0.00    +0.000 N 
ATOM      8  C   UNL     1       4.553   5.481  19.430  0.00  0.00    +0.000 C 
ATOM      9  C   UNL     1       4.123   4.291  18.630  0.00  0.00    +0.000 A 
ATOM     10  C   UNL     1       3.133   3.631  19.370  0.00  0.00    +0.000 A 
ATOM     11  C   UNL     1       2.376   2.591  18.866  0.00  0.00    +0.000 A 
ATOM     12  C   UNL     1       2.602   2.228  17.543  0.00  0.00    +0.000 A 
ATOM     13  C   UNL     1       3.571   2.901  16.770  0.00  0.00    +0.000 A 
ATOM     14  C   UNL     1       4.361   3.942  17.302  0.00  0.00    +0.000 A 
ATOM     15  C   UNL     1       2.733   4.539  20.474  0.00  0.00    +0.000 C 
ATOM     16  O   UNL     1       1.889   4.266  21.314  0.00  0.00    +0.000 OA
BRANCH  14  17
ATOM     17  C   UNL     1       5.328   4.682  16.403  0.00  0.00    +0.000 C 
ATOM     18  C   UNL     1       5.690   3.838  15.196  0.00  0.00    +0.000 C 
ATOM     19  F   UNL     1       4.809   5.861  15.948  0.00  0.00    +0.000 F 
ATOM     20  F   UNL     1       6.490   5.027  17.027  0.00  0.00    +0.000 F 
ENDBRANCH  14  17
ENDBRANCH   5   7
BRANCH   1  21
ATOM     21  C   UNL     1       0.710   9.820  20.449  0.00  0.00    +0.000 C 
ATOM     22  C   UNL     1       0.359   9.401  21.683  0.00  0.00    +0.000 C 
BRANCH  21  23
ATOM     23  C   UNL     1       0.304  11.121  19.785  0.00  0.00    +0.000 C 
BRANCH  23  29
ATOM     24  C   UNL     1      -2.160  12.946  20.490  0.00  0.00    +0.000 C 
ATOM     25  N   UNL     1      -2.101  11.925  19.479  0.00  0.00    +0.000 N 
ATOM     26  C   UNL     1      -3.122  11.592  18.642  0.00  0.00    +0.000 A 
ATOM     27  N   UNL     1      -2.706  10.703  17.774  0.00  0.00    +0.000 NA
ATOM     28  N   UNL     1      -1.398  10.422  18.068  0.00  0.00    +0.000 NA
ATOM     29  C   UNL     1      -1.038  11.133  19.121  0.00  0.00    +0.000 A 
ENDBRANCH  23  29
ENDBRANCH  21  23
BRANCH  22  30
ATOM     30  C   UNL     1      -0.538  10.109  22.644  0.00  0.00    +0.000 C 
BRANCH  30  31
ATOM     31  O   UNL     1      -0.221   9.633  23.949  0.00  0.00    +0.000 OA
ATOM     32  H   UNL     1      -0.426   8.683  23.953  0.00  0.00    +0.000 HD
ENDBRANCH  30  31
ENDBRANCH  22  30
ENDBRANCH   1  21
TORSDOF 7
ENDMDL
MODEL 4
REMARK VINA RESULT:      -8.3      1.205      1.503
REMARK  Name = 
REMARK  9 active torsions:
REMARK  status: ('A' for Active; 'I' for Inactive)
REMARK    1  A    between atoms: C_1  and  N_2
REMARK    2  A    between atoms: C_6  and  C_7
REMARK    3  A    between atoms: C_7  and  C_8
REMARK    4  A    between atoms: C_8  and  C_12
REMARK    5  A    between atoms: C_9  and  C_10
REMARK    6  A    between atoms: C_10  and  O_11
REMARK    7  A    between atoms: C_16  and  N_17
REMARK    8  A    between atoms: C_24  and  C_25
REMARK    9  A    between atoms: C_25  and  C_26
REMARK                            x       y       z     vdW  Elec       q    Type
REMARK                         _______ _______ _______ _____ _____    ______ ____
ROOT
ATOM      1  C   UNL     1       1.226   8.657  19.767  0.00  0.00    +0.000 A 
ATOM      2  C   UNL     1       1.806   9.230  18.634  0.00  0.00    +0.000 A 
ATOM      3  C   UNL     1       2.607   8.452  17.796  0.00  0.00    +0.000 A 
ATOM      4  C   UNL     1       2.918   7.140  18.151  0.00  0.00    +0.000 A 
ATOM      5  C   UNL     1       2.539   6.654  19.411  0.00  0.00    +0.000 A 
ATOM      6  C   UNL     1       1.576   7.354  20.141  0.00  0.00    +0.000 A 
ENDROOT
BRANCH   5   7
ATOM      7  N   UNL     1       3.429   5.768  20.157  0.00  0.00    +0.000 N 
ATOM      8  C   UNL     1       4.645   5.488  19.350  0.00  0.00    +0.000 C 
ATOM      9  C   UNL     1       4.209   4.293  18.559  0.00  0.00    +0.000 A 
ATOM     10  C   UNL     1       3.268   3.604  19.336  0.00  0.00    +0.000 A 
ATOM     11  C   UNL     1       2.516   2.550  18.857  0.00  0.00    +0.000 A 
ATOM     12  C   UNL     1       2.693   2.201  17.522  0.00  0.00    +0.000 A 
ATOM     13  C   UNL     1       3.610   2.904  16.713  0.00  0.00    +0.000 A 
ATOM     14  C   UNL     1       4.397   3.960  17.219  0.00  0.00    +0.000 A 
ATOM     15  C   UNL     1       2.895   4.494  20.464  0.00  0.00    +0.000 C 
ATOM     16  O   UNL     1       2.095   4.194  21.338  0.00  0.00    +0.000 OA
BRANCH  14  17
ATOM     17  C   UNL     1       5.305   4.730  16.285  0.00  0.00    +0.000 C 
ATOM     18  C   UNL     1       5.545   3.951  15.007  0.00  0.00    +0.000 C 
ATOM     19  F   UNL     1       4.782   5.945  15.943  0.00  0.00    +0.000 F 
ATOM     20  F   UNL     1       6.524   5.014  16.828  0.00  0.00    +0.000 F 
ENDBRANCH  14  17
ENDBRANCH   5   7
BRANCH   1  21
ATOM     21  C   UNL     1       0.346   9.408  20.673  0.00  0.00    +0.000 C 
ATOM     22  C   UNL     1       0.538   9.256  22.000  0.00  0.00    +0.000 C 
BRANCH  21  23
ATOM     23  C   UNL     1      -0.789  10.155  20.002  0.00  0.00    +0.000 C 
BRANCH  23  29
ATOM     24  C   UNL     1      -1.994  11.724  17.556  0.00  0.00    +0.000 C 
ATOM     25  N   UNL     1      -1.028  12.209  18.504  0.00  0.00    +0.000 N 
ATOM     26  C   UNL     1      -0.482  13.457  18.497  0.00  0.00    +0.000 A 
ATOM     27  N   UNL     1       0.277  13.610  19.554  0.00  0.00    +0.000 NA
ATOM     28  N   UNL     1       0.256  12.431  20.250  0.00  0.00    +0.000 NA
ATOM     29  C   UNL     1      -0.503  11.568  19.599  0.00  0.00    +0.000 A 
ENDBRANCH  23  29
ENDBRANCH  21  23
BRANCH  22  30
ATOM     30  C   UNL     1      -0.349   9.754  23.093  0.00  0.00    +0.000 C 
BRANCH  30  31
ATOM     31  O   UNL     1      -0.266  11.177  23.092  0.00  0.00    +0.000 OA
ATOM     32  H   UNL     1      -0.003  11.435  22.193  0.00  0.00    +0.000 HD
ENDBRANCH  30  31
ENDBRANCH  22  30
ENDBRANCH   1  21
TORSDOF 7
ENDMDL
MODEL 5
REMARK VINA RESULT:      -8.2      2.901      7.622
REMARK  Name = 
REMARK  9 active torsions:
REMARK  status: ('A' for Active; 'I' for Inactive)
REMARK    1  A    between atoms: C_1  and  N_2
REMARK    2  A    between atoms: C_6  and  C_7
REMARK    3  A    between atoms: C_7  and  C_8
REMARK    4  A    between atoms: C_8  and  C_12
REMARK    5  A    between atoms: C_9  and  C_10
REMARK    6  A    between atoms: C_10  and  O_11
REMARK    7  A    between atoms: C_16  and  N_17
REMARK    8  A    between atoms: C_24  and  C_25
REMARK    9  A    between atoms: C_25  and  C_26
REMARK                            x       y       z     vdW  Elec       q    Type
REMARK                         _______ _______ _______ _____ _____    ______ ____
ROOT
ATOM      1  C   UNL     1       2.366   6.911  19.079  0.00  0.00    +0.000 A 
ATOM      2  C   UNL     1       2.339   7.512  17.819  0.00  0.00    +0.000 A 
ATOM      3  C   UNL     1       1.981   8.855  17.698  0.00  0.00    +0.000 A 
ATOM      4  C   UNL     1       1.543   9.562  18.817  0.00  0.00    +0.000 A 
ATOM      5  C   UNL     1       1.333   8.886  20.028  0.00  0.00    +0.000 A 
ATOM      6  C   UNL     1       1.884   7.612  20.190  0.00  0.00    +0.000 A 
ENDROOT
BRANCH   5   7
ATOM      7  N   UNL     1       0.205   9.239  20.884  0.00  0.00    +0.000 N 
ATOM      8  C   UNL     1      -1.058   9.153  20.105  0.00  0.00    +0.000 C 
ATOM      9  C   UNL     1      -1.142  10.529  19.520  0.00  0.00    +0.000 A 
ATOM     10  C   UNL     1      -0.504  11.398  20.415  0.00  0.00    +0.000 A 
ATOM     11  C   UNL     1      -0.229  12.720  20.122  0.00  0.00    +0.000 A 
ATOM     12  C   UNL     1      -0.579  13.173  18.855  0.00  0.00    +0.000 A 
ATOM     13  C   UNL     1      -1.191  12.305  17.927  0.00  0.00    +0.000 A 
ATOM     14  C   UNL     1      -1.496  10.965  18.245  0.00  0.00    +0.000 A 
ATOM     15  C   UNL     1       0.225  10.558  21.398  0.00  0.00    +0.000 C 
ATOM     16  O   UNL     1       0.885  11.003  22.324  0.00  0.00    +0.000 OA
BRANCH  14  17
ATOM     17  C   UNL     1      -2.080  10.058  17.183  0.00  0.00    +0.000 C 
ATOM     18  C   UNL     1      -2.599  10.870  16.012  0.00  0.00    +0.000 C 
ATOM     19  F   UNL     1      -1.161   9.170  16.702  0.00  0.00    +0.000 F 
ATOM     20  F   UNL     1      -3.109   9.287  17.637  0.00  0.00    +0.000 F 
ENDBRANCH  14  17
ENDBRANCH   5   7
BRANCH   1  21
ATOM     21  C   UNL     1       2.765   5.512  19.282  0.00  0.00    +0.000 C 
ATOM     22  C   UNL     1       2.268   4.869  20.359  0.00  0.00    +0.000 C 
BRANCH  21  23
ATOM     23  C   UNL     1       3.826   4.996  18.330  0.00  0.00    +0.000 C 
BRANCH  23  29
ATOM     24  C   UNL     1       5.862   6.826  16.779  0.00  0.00    +0.000 C 
ATOM     25  N   UNL     1       6.114   6.074  17.978  0.00  0.00    +0.000 N 
ATOM     26  C   UNL     1       7.298   6.049  18.652  0.00  0.00    +0.000 A 
ATOM     27  N   UNL     1       7.160   5.357  19.756  0.00  0.00    +0.000 NA
ATOM     28  N   UNL     1       5.872   4.892  19.792  0.00  0.00    +0.000 NA
ATOM     29  C   UNL     1       5.246   5.293  18.700  0.00  0.00    +0.000 A 
ENDBRANCH  23  29
ENDBRANCH  21  23
BRANCH  22  30
ATOM     30  C   UNL     1       2.684   3.529  20.870  0.00  0.00    +0.000 C 
BRANCH  30  31
ATOM     31  O   UNL     1       2.051   3.340  22.132  0.00  0.00    +0.000 OA
ATOM     32  H   UNL     1       2.081   2.387  22.315  0.00  0.00    +0.000 HD
ENDBRANCH  30  31
ENDBRANCH  22  30
ENDBRANCH   1  21
TORSDOF 7
ENDMDL
MODEL 6
REMARK VINA RESULT:      -8.2      2.849      7.840
REMARK  Name = 
REMARK  9 active torsions:
REMARK  status: ('A' for Active; 'I' for Inactive)
REMARK    1  A    between atoms: C_1  and  N_2
REMARK    2  A    between atoms: C_6  and  C_7
REMARK    3  A    between atoms: C_7  and  C_8
REMARK    4  A    between atoms: C_8  and  C_12
REMARK    5  A    between atoms: C_9  and  C_10
REMARK    6  A    between atoms: C_10  and  O_11
REMARK    7  A    between atoms: C_16  and  N_17
REMARK    8  A    between atoms: C_24  and  C_25
REMARK    9  A    between atoms: C_25  and  C_26
REMARK                            x       y       z     vdW  Elec       q    Type
REMARK                         _______ _______ _______ _____ _____    ______ ____
ROOT
ATOM      1  C   UNL     1       2.551   6.232  18.711  0.00  0.00    +0.000 A 
ATOM      2  C   UNL     1       2.454   7.062  17.592  0.00  0.00    +0.000 A 
ATOM      3  C   UNL     1       2.210   8.426  17.759  0.00  0.00    +0.000 A 
ATOM      4  C   UNL     1       1.950   8.936  19.030  0.00  0.00    +0.000 A 
ATOM      5  C   UNL     1       1.800   8.058  20.114  0.00  0.00    +0.000 A 
ATOM      6  C   UNL     1       2.246   6.741  19.979  0.00  0.00    +0.000 A 
ENDROOT
BRANCH   5   7
ATOM      7  N   UNL     1       0.798   8.321  21.143  0.00  0.00    +0.000 N 
ATOM      8  C   UNL     1      -0.520   8.570  20.503  0.00  0.00    +0.000 C 
ATOM      9  C   UNL     1      -0.460  10.046  20.260  0.00  0.00    +0.000 A 
ATOM     10  C   UNL     1       0.356  10.596  21.258  0.00  0.00    +0.000 A 
ATOM     11  C   UNL     1       0.785  11.909  21.248  0.00  0.00    +0.000 A 
ATOM     12  C   UNL     1       0.404  12.691  20.162  0.00  0.00    +0.000 A 
ATOM     13  C   UNL     1      -0.389  12.148  19.130  0.00  0.00    +0.000 A 
ATOM     14  C   UNL     1      -0.848  10.813  19.164  0.00  0.00    +0.000 A 
ATOM     15  C   UNL     1       1.036   9.467  21.940  0.00  0.00    +0.000 C 
ATOM     16  O   UNL     1       1.819   9.598  22.868  0.00  0.00    +0.000 OA
BRANCH  14  17
ATOM     17  C   UNL     1      -1.628  10.262  17.991  0.00  0.00    +0.000 C 
ATOM     18  C   UNL     1      -2.180  11.387  17.137  0.00  0.00    +0.000 C 
ATOM     19  F   UNL     1      -0.859   9.467  17.189  0.00  0.00    +0.000 F 
ATOM     20  F   UNL     1      -2.678   9.474  18.362  0.00  0.00    +0.000 F 
ENDBRANCH  14  17
ENDBRANCH   5   7
BRANCH   1  21
ATOM     21  C   UNL     1       2.838   4.794  18.609  0.00  0.00    +0.000 C 
ATOM     22  C   UNL     1       2.376   3.993  19.591  0.00  0.00    +0.000 C 
BRANCH  21  23
ATOM     23  C   UNL     1       3.765   4.398  17.478  0.00  0.00    +0.000 C 
BRANCH  23  29
ATOM     24  C   UNL     1       6.109   4.622  15.391  0.00  0.00    +0.000 C 
ATOM     25  N   UNL     1       6.229   4.553  16.822  0.00  0.00    +0.000 N 
ATOM     26  C   UNL     1       7.402   4.589  17.512  0.00  0.00    +0.000 A 
ATOM     27  N   UNL     1       7.155   4.616  18.798  0.00  0.00    +0.000 NA
ATOM     28  N   UNL     1       5.795   4.562  18.957  0.00  0.00    +0.000 NA
ATOM     29  C   UNL     1       5.232   4.488  17.764  0.00  0.00    +0.000 A 
ENDBRANCH  23  29
ENDBRANCH  21  23
BRANCH  22  30
ATOM     30  C   UNL     1       2.712   2.553  19.800  0.00  0.00    +0.000 C 
BRANCH  30  31
ATOM     31  O   UNL     1       3.997   2.502  20.414  0.00  0.00    +0.000 OA
ATOM     32  H   UNL     1       4.581   3.063  19.877  0.00  0.00    +0.000 HD
ENDBRANCH  30  31
ENDBRANCH  22  30
ENDBRANCH   1  21
TORSDOF 7
ENDMDL
MODEL 7
REMARK VINA RESULT:      -8.1      2.987      8.055
REMARK  Name = 
REMARK  9 active torsions:
REMARK  status: ('A' for Active; 'I' for Inactive)
REMARK    1  A    between atoms: C_1  and  N_2
REMARK    2  A    between atoms: C_6  and  C_7
REMARK    3  A    between atoms: C_7  and  C_8
REMARK    4  A    between atoms: C_8  and  C_12
REMARK    5  A    between atoms: C_9  and  C_10
REMARK    6  A    between atoms: C_10  and  O_11
REMARK    7  A    between atoms: C_16  and  N_17
REMARK    8  A    between atoms: C_24  and  C_25
REMARK    9  A    between atoms: C_25  and  C_26
REMARK                            x       y       z     vdW  Elec       q    Type
REMARK                         _______ _______ _______ _____ _____    ______ ____
ROOT
ATOM      1  C   UNL     1       2.545   7.438  18.746  0.00  0.00    +0.000 A 
ATOM      2  C   UNL     1       2.505   8.291  17.642  0.00  0.00    +0.000 A 
ATOM      3  C   UNL     1       2.034   9.596  17.791  0.00  0.00    +0.000 A 
ATOM      4  C   UNL     1       1.501  10.010  19.011  0.00  0.00    +0.000 A 
ATOM      5  C   UNL     1       1.314   9.074  20.040  0.00  0.00    +0.000 A 
ATOM      6  C   UNL     1       1.969   7.843  19.956  0.00  0.00    +0.000 A 
ENDROOT
BRANCH   5   7
ATOM      7  N   UNL     1       0.133   9.145  20.895  0.00  0.00    +0.000 N 
ATOM      8  C   UNL     1      -1.092   8.985  20.068  0.00  0.00    +0.000 C 
ATOM      9  C   UNL     1      -1.367  10.400  19.664  0.00  0.00    +0.000 A 
ATOM     10  C   UNL     1      -0.876  11.224  20.687  0.00  0.00    +0.000 A 
ATOM     11  C   UNL     1      -0.793  12.598  20.578  0.00  0.00    +0.000 A 
ATOM     12  C   UNL     1      -1.186  13.162  19.369  0.00  0.00    +0.000 A 
ATOM     13  C   UNL     1      -1.651  12.348  18.315  0.00  0.00    +0.000 A 
ATOM     14  C   UNL     1      -1.761  10.947  18.445  0.00  0.00    +0.000 A 
ATOM     15  C   UNL     1      -0.048  10.372  21.576  0.00  0.00    +0.000 C 
ATOM     16  O   UNL     1       0.526  10.780  22.575  0.00  0.00    +0.000 OA
BRANCH  14  17
ATOM     17  C   UNL     1      -2.190  10.117  17.255  0.00  0.00    +0.000 C 
ATOM     18  C   UNL     1      -2.639  11.008  16.113  0.00  0.00    +0.000 C 
ATOM     19  F   UNL     1      -1.180   9.322  16.791  0.00  0.00    +0.000 F 
ATOM     20  F   UNL     1      -3.212   9.259  17.534  0.00  0.00    +0.000 F 
ENDBRANCH  14  17
ENDBRANCH   5   7
BRANCH   1  21
ATOM     21  C   UNL     1       3.058   6.063  18.668  0.00  0.00    +0.000 C 
ATOM     22  C   UNL     1       4.382   5.900  18.464  0.00  0.00    +0.000 C 
BRANCH  21  23
ATOM     23  C   UNL     1       2.002   4.977  18.669  0.00  0.00    +0.000 C 
BRANCH  23  29
ATOM     24  C   UNL     1       0.682   2.135  18.958  0.00  0.00    +0.000 C 
ATOM     25  N   UNL     1       1.311   2.906  19.996  0.00  0.00    +0.000 N 
ATOM     26  C   UNL     1       1.449   2.511  21.291  0.00  0.00    +0.000 A 
ATOM     27  N   UNL     1       2.161   3.393  21.947  0.00  0.00    +0.000 NA
ATOM     28  N   UNL     1       2.468   4.404  21.075  0.00  0.00    +0.000 NA
ATOM     29  C   UNL     1       1.925   4.131  19.902  0.00  0.00    +0.000 A 
ENDBRANCH  23  29
ENDBRANCH  21  23
BRANCH  22  30
ATOM     30  C   UNL     1       5.087   4.620  18.154  0.00  0.00    +0.000 C 
BRANCH  30  31
ATOM     31  O   UNL     1       5.331   3.960  19.393  0.00  0.00    +0.000 OA
ATOM     32  H   UNL     1       5.287   4.644  20.082  0.00  0.00    +0.000 HD
ENDBRANCH  30  31
ENDBRANCH  22  30
ENDBRANCH   1  21
TORSDOF 7
ENDMDL
MODEL 8
REMARK VINA RESULT:      -8.1      2.966      8.012
REMARK  Name = 
REMARK  9 active torsions:
REMARK  status: ('A' for Active; 'I' for Inactive)
REMARK    1  A    between atoms: C_1  and  N_2
REMARK    2  A    between atoms: C_6  and  C_7
REMARK    3  A    between atoms: C_7  and  C_8
REMARK    4  A    between atoms: C_8  and  C_12
REMARK    5  A    between atoms: C_9  and  C_10
REMARK    6  A    between atoms: C_10  and  O_11
REMARK    7  A    between atoms: C_16  and  N_17
REMARK    8  A    between atoms: C_24  and  C_25
REMARK    9  A    between atoms: C_25  and  C_26
REMARK                            x       y       z     vdW  Elec       q    Type
REMARK                         _______ _______ _______ _____ _____    ______ ____
ROOT
ATOM      1  C   UNL     1       2.552   6.181  18.859  0.00  0.00    +0.000 A 
ATOM      2  C   UNL     1       2.420   6.945  17.698  0.00  0.00    +0.000 A 
ATOM      3  C   UNL     1       2.121   8.305  17.793  0.00  0.00    +0.000 A 
ATOM      4  C   UNL     1       1.845   8.872  19.037  0.00  0.00    +0.000 A 
ATOM      5  C   UNL     1       1.733   8.049  20.166  0.00  0.00    +0.000 A 
ATOM      6  C   UNL     1       2.231   6.745  20.099  0.00  0.00    +0.000 A 
ENDROOT
BRANCH   5   7
ATOM      7  N   UNL     1       0.724   8.326  21.185  0.00  0.00    +0.000 N 
ATOM      8  C   UNL     1      -0.585   8.584  20.531  0.00  0.00    +0.000 C 
ATOM      9  C   UNL     1      -0.510  10.058  20.281  0.00  0.00    +0.000 A 
ATOM     10  C   UNL     1       0.302  10.606  21.283  0.00  0.00    +0.000 A 
ATOM     11  C   UNL     1       0.743  11.915  21.270  0.00  0.00    +0.000 A 
ATOM     12  C   UNL     1       0.379  12.694  20.176  0.00  0.00    +0.000 A 
ATOM     13  C   UNL     1      -0.410  12.152  19.140  0.00  0.00    +0.000 A 
ATOM     14  C   UNL     1      -0.881  10.822  19.177  0.00  0.00    +0.000 A 
ATOM     15  C   UNL     1       0.966   9.474  21.977  0.00  0.00    +0.000 C 
ATOM     16  O   UNL     1       1.742   9.604  22.912  0.00  0.00    +0.000 OA
BRANCH  14  17
ATOM     17  C   UNL     1      -1.656  10.271  18.000  0.00  0.00    +0.000 C 
ATOM     18  C   UNL     1      -2.213  11.396  17.150  0.00  0.00    +0.000 C 
ATOM     19  F   UNL     1      -0.880   9.485  17.195  0.00  0.00    +0.000 F 
ATOM     20  F   UNL     1      -2.701   9.475  18.365  0.00  0.00    +0.000 F 
ENDBRANCH  14  17
ENDBRANCH   5   7
BRANCH   1  21
ATOM     21  C   UNL     1       2.896   4.753  18.833  0.00  0.00    +0.000 C 
ATOM     22  C   UNL     1       1.882   3.866  18.762  0.00  0.00    +0.000 C 
BRANCH  21  23
ATOM     23  C   UNL     1       4.362   4.436  19.051  0.00  0.00    +0.000 C 
BRANCH  23  29
ATOM     24  C   UNL     1       7.317   5.431  18.628  0.00  0.00    +0.000 C 
ATOM     25  N   UNL     1       6.478   4.777  17.661  0.00  0.00    +0.000 N 
ATOM     26  C   UNL     1       6.845   4.466  16.387  0.00  0.00    +0.000 A 
ATOM     27  N   UNL     1       5.890   3.782  15.808  0.00  0.00    +0.000 NA
ATOM     28  N   UNL     1       4.863   3.669  16.707  0.00  0.00    +0.000 NA
ATOM     29  C   UNL     1       5.199   4.301  17.817  0.00  0.00    +0.000 A 
ENDBRANCH  23  29
ENDBRANCH  21  23
BRANCH  22  30
ATOM     30  C   UNL     1       1.979   2.384  18.923  0.00  0.00    +0.000 C 
BRANCH  30  31
ATOM     31  O   UNL     1       2.377   1.846  17.664  0.00  0.00    +0.000 OA
ATOM     32  H   UNL     1       1.776   1.105  17.480  0.00  0.00    +0.000 HD
ENDBRANCH  30  31
ENDBRANCH  22  30
ENDBRANCH   1  21
TORSDOF 7
ENDMDL
MODEL 9
REMARK VINA RESULT:      -8.1      3.353      4.605
REMARK  Name = 
REMARK  9 active torsions:
REMARK  status: ('A' for Active; 'I' for Inactive)
REMARK    1  A    between atoms: C_1  and  N_2
REMARK    2  A    between atoms: C_6  and  C_7
REMARK    3  A    between atoms: C_7  and  C_8
REMARK    4  A    between atoms: C_8  and  C_12
REMARK    5  A    between atoms: C_9  and  C_10
REMARK    6  A    between atoms: C_10  and  O_11
REMARK    7  A    between atoms: C_16  and  N_17
REMARK    8  A    between atoms: C_24  and  C_25
REMARK    9  A    between atoms: C_25  and  C_26
REMARK                            x       y       z     vdW  Elec       q    Type
REMARK                         _______ _______ _______ _____ _____    ______ ____
ROOT
ATOM      1  C   UNL     1       1.315   9.275  19.482  0.00  0.00    +0.000 A 
ATOM      2  C   UNL     1       0.953   8.628  20.665  0.00  0.00    +0.000 A 
ATOM      3  C   UNL     1       1.502   7.381  20.969  0.00  0.00    +0.000 A 
ATOM      4  C   UNL     1       2.319   6.735  20.043  0.00  0.00    +0.000 A 
ATOM      5  C   UNL     1       2.474   7.275  18.758  0.00  0.00    +0.000 A 
ATOM      6  C   UNL     1       2.099   8.603  18.537  0.00  0.00    +0.000 A 
ENDROOT
BRANCH   5   7
ATOM      7  N   UNL     1       2.542   6.398  17.592  0.00  0.00    +0.000 N 
ATOM      8  C   UNL     1       1.686   5.204  17.816  0.00  0.00    +0.000 C 
ATOM      9  C   UNL     1       2.640   4.277  18.502  0.00  0.00    +0.000 A 
ATOM     10  C   UNL     1       3.925   4.590  18.038  0.00  0.00    +0.000 A 
ATOM     11  C   UNL     1       5.078   4.060  18.585  0.00  0.00    +0.000 A 
ATOM     12  C   UNL     1       4.928   3.207  19.673  0.00  0.00    +0.000 A 
ATOM     13  C   UNL     1       3.646   2.905  20.176  0.00  0.00    +0.000 A 
ATOM     14  C   UNL     1       2.472   3.427  19.593  0.00  0.00    +0.000 A 
ATOM     15  C   UNL     1       3.825   5.875  17.303  0.00  0.00    +0.000 C 
ATOM     16  O   UNL     1       4.769   6.432  16.764  0.00  0.00    +0.000 OA
BRANCH  14  17
ATOM     17  C   UNL     1       1.128   3.133  20.225  0.00  0.00    +0.000 C 
ATOM     18  C   UNL     1       1.305   2.500  21.591  0.00  0.00    +0.000 C 
ATOM     19  F   UNL     1       0.375   4.262  20.381  0.00  0.00    +0.000 F 
ATOM     20  F   UNL     1       0.353   2.294  19.480  0.00  0.00    +0.000 F 
ENDBRANCH  14  17
ENDBRANCH   5   7
BRANCH   1  21
ATOM     21  C   UNL     1       0.801  10.602  19.115  0.00  0.00    +0.000 C 
ATOM     22  C   UNL     1       1.687  11.512  18.660  0.00  0.00    +0.000 C 
BRANCH  21  23
ATOM     23  C   UNL     1      -0.658  10.844  19.444  0.00  0.00    +0.000 C 
BRANCH  23  29
ATOM     24  C   UNL     1      -3.544  12.057  19.123  0.00  0.00    +0.000 C 
ATOM     25  N   UNL     1      -2.901  11.111  18.251  0.00  0.00    +0.000 N 
ATOM     26  C   UNL     1      -3.450  10.593  17.118  0.00  0.00    +0.000 A 
ATOM     27  N   UNL     1      -2.565   9.849  16.502  0.00  0.00    +0.000 NA
ATOM     28  N   UNL     1      -1.425   9.852  17.262  0.00  0.00    +0.000 NA
ATOM     29  C   UNL     1      -1.636  10.585  18.340  0.00  0.00    +0.000 A 
ENDBRANCH  23  29
ENDBRANCH  21  23
BRANCH  22  30
ATOM     30  C   UNL     1       1.432  12.964  18.421  0.00  0.00    +0.000 C 
BRANCH  30  31
ATOM     31  O   UNL     1       2.280  13.373  17.351  0.00  0.00    +0.000 OA
ATOM     32  H   UNL     1       3.189  13.328  17.689  0.00  0.00    +0.000 HD
ENDBRANCH  30  31
ENDBRANCH  22  30
ENDBRANCH   1  21
TORSDOF 7
ENDMDL
