MODEL 1
REMARK VINA RESULT:      -8.6      0.000      0.000
REMARK  Name = 
REMARK  6 active torsions:
REMARK  status: ('A' for Active; 'I' for Inactive)
REMARK    1  A    between atoms: C_1  and  C_2
REMARK    2  A    between atoms: N_4  and  C_5
REMARK    3  A    between atoms: C_5  and  C_6
REMARK    4  A    between atoms: C_9  and  C_10
REMARK    5  A    between atoms: N_12  and  C_13
REMARK    6  A    between atoms: C_16  and  N_17
REMARK                            x       y       z     vdW  Elec       q    Type
REMARK                         _______ _______ _______ _____ _____    ______ ____
ROOT
ATOM      1  C   UNL     1       8.519   9.209  18.288  0.00  0.00    +0.000 C 
ATOM      2  O   UNL     1       8.852   8.647  19.332  0.00  0.00    +0.000 OA
ATOM      3  N   UNL     1       7.711   8.658  17.297  0.00  0.00    +0.000 N 
ATOM      4  H   UNL     1       7.634   9.131  16.409  0.00  0.00    +0.000 HD
ENDROOT
BRANCH   1   8
ATOM      5  C   UNL     1      10.260  13.050  17.514  0.00  0.00    +0.000 A 
ATOM      6  C   UNL     1       8.861  12.906  17.476  0.00  0.00    +0.000 A 
ATOM      7  C   UNL     1       8.249  11.679  17.766  0.00  0.00    +0.000 A 
ATOM      8  C   UNL     1       9.042  10.585  18.108  0.00  0.00    +0.000 A 
ATOM      9  C   UNL     1      10.438  10.740  18.196  0.00  0.00    +0.000 A 
ATOM     10  C   UNL     1      11.042  11.962  17.906  0.00  0.00    +0.000 A 
BRANCH   5  11
ATOM     11  C   UNL     1      10.910  14.349  17.111  0.00  0.00    +0.000 C 
BRANCH  11  15
ATOM     12  C   UNL     1       9.034  17.454  18.148  0.00  0.00    +0.000 C 
ATOM     13  C   UNL     1      10.101  16.393  18.208  0.00  0.00    +0.000 C 
ATOM     14  O   UNL     1      10.956  16.370  19.092  0.00  0.00    +0.000 OA
ATOM     15  N   UNL     1      10.001  15.464  17.204  0.00  0.00    +0.000 N 
ATOM     16  H   UNL     1       9.321  15.596  16.467  0.00  0.00    +0.000 HD
ENDBRANCH  11  15
ENDBRANCH   5  11
ENDBRANCH   1   8
BRANCH   3  17
ATOM     17  C   UNL     1       6.941   7.474  17.466  0.00  0.00    +0.000 A 
ATOM     18  C   UNL     1       7.470   6.357  18.108  0.00  0.00    +0.000 A 
ATOM     19  C   UNL     1       6.694   5.237  18.353  0.00  0.00    +0.000 A 
ATOM     20  C   UNL     1       5.355   5.207  17.956  0.00  0.00    +0.000 A 
ATOM     21  C   UNL     1       4.802   6.279  17.260  0.00  0.00    +0.000 A 
ATOM     22  C   UNL     1       5.599   7.427  17.039  0.00  0.00    +0.000 A 
BRANCH  20  23
ATOM     23  N   UNL     1       4.624   4.060  18.355  0.00  0.00    +0.000 N 
ATOM     24  C   UNL     1       4.418   3.003  17.484  0.00  0.00    +0.000 A 
ATOM     25  N   UNL     1       3.213   2.498  17.577  0.00  0.00    +0.000 NA
ATOM     26  C   UNL     1       2.623   3.208  18.586  0.00  0.00    +0.000 A 
ATOM     27  C   UNL     1       1.284   3.193  18.998  0.00  0.00    +0.000 A 
ATOM     28  C   UNL     1       0.904   4.001  20.073  0.00  0.00    +0.000 A 
ATOM     29  C   UNL     1       1.851   4.768  20.755  0.00  0.00    +0.000 A 
ATOM     30  C   UNL     1       3.187   4.830  20.335  0.00  0.00    +0.000 A 
ATOM     31  C   UNL     1       3.531   4.071  19.207  0.00  0.00    +0.000 A 
ENDBRANCH  20  23
ENDBRANCH   3  17
TORSDOF 5
ENDMDL
MODEL 2
REMARK VINA RESULT:      -8.6      7.482     10.220
REMARK  Name = 
REMARK  6 active torsions:
REMARK  status: ('A' for Active; 'I' for Inactive)
REMARK    1  A    between atoms: C_1  and  C_2
REMARK    2  A    between atoms: N_4  and  C_5
REMARK    3  A    between atoms: C_5  and  C_6
REMARK    4  A    between atoms: C_9  and  C_10
REMARK    5  A    between atoms: N_12  and  C_13
REMARK    6  A    between atoms: C_16  and  N_17
REMARK                            x       y       z     vdW  Elec       q    Type
REMARK                         _______ _______ _______ _____ _____    ______ ____
ROOT
ATOM      1  C   UNL     1       0.108  11.060  20.929  0.00  0.00    +0.000 C 
ATOM      2  O   UNL     1       1.194  11.377  21.414  0.00  0.00    +0.000 OA
ATOM      3  N   UNL     1      -0.084  10.099  19.941  0.00  0.00    +0.000 N 
ATOM      4  H   UNL     1      -0.987  10.030  19.494  0.00  0.00    +0.000 HD
ENDROOT
BRANCH   1   8
ATOM      5  C   UNL     1      -3.081  13.254  22.775  0.00  0.00    +0.000 A 
ATOM      6  C   UNL     1      -2.770  13.492  21.425  0.00  0.00    +0.000 A 
ATOM      7  C   UNL     1      -1.766  12.766  20.771  0.00  0.00    +0.000 A 
ATOM      8  C   UNL     1      -1.069  11.782  21.470  0.00  0.00    +0.000 A 
ATOM      9  C   UNL     1      -1.412  11.508  22.807  0.00  0.00    +0.000 A 
ATOM     10  C   UNL     1      -2.411  12.233  23.454  0.00  0.00    +0.000 A 
BRANCH   5  11
ATOM     11  C   UNL     1      -4.099  14.103  23.492  0.00  0.00    +0.000 C 
BRANCH  11  15
ATOM     12  C   UNL     1      -7.499  12.491  23.239  0.00  0.00    +0.000 C 
ATOM     13  C   UNL     1      -6.116  12.731  23.781  0.00  0.00    +0.000 C 
ATOM     14  O   UNL     1      -5.641  12.057  24.695  0.00  0.00    +0.000 OA
ATOM     15  N   UNL     1      -5.450  13.745  23.141  0.00  0.00    +0.000 N 
ATOM     16  H   UNL     1      -5.936  14.307  22.454  0.00  0.00    +0.000 HD
ENDBRANCH  11  15
ENDBRANCH   5  11
ENDBRANCH   1   8
BRANCH   3  17
ATOM     17  C   UNL     1       0.908   9.163  19.538  0.00  0.00    +0.000 A 
ATOM     18  C   UNL     1       1.341   8.157  20.399  0.00  0.00    +0.000 A 
ATOM     19  C   UNL     1       2.240   7.192  19.979  0.00  0.00    +0.000 A 
ATOM     20  C   UNL     1       2.733   7.210  18.672  0.00  0.00    +0.000 A 
ATOM     21  C   UNL     1       2.371   8.230  17.796  0.00  0.00    +0.000 A 
ATOM     22  C   UNL     1       1.432   9.195  18.231  0.00  0.00    +0.000 A 
BRANCH  20  23
ATOM     23  N   UNL     1       3.558   6.113  18.315  0.00  0.00    +0.000 N 
ATOM     24  C   UNL     1       3.404   4.875  18.916  0.00  0.00    +0.000 A 
ATOM     25  N   UNL     1       4.548   4.288  19.167  0.00  0.00    +0.000 NA
ATOM     26  C   UNL     1       5.487   5.143  18.660  0.00  0.00    +0.000 A 
ATOM     27  C   UNL     1       6.881   5.089  18.794  0.00  0.00    +0.000 A 
ATOM     28  C   UNL     1       7.653   6.075  18.172  0.00  0.00    +0.000 A 
ATOM     29  C   UNL     1       7.051   7.062  17.390  0.00  0.00    +0.000 A 
ATOM     30  C   UNL     1       5.656   7.158  17.275  0.00  0.00    +0.000 A 
ATOM     31  C   UNL     1       4.897   6.207  17.970  0.00  0.00    +0.000 A 
ENDBRANCH  20  23
ENDBRANCH   3  17
TORSDOF 5
ENDMDL
MODEL 3
REMARK VINA RESULT:      -8.6      0.665      1.124
REMARK  Name = 
REMARK  6 active torsions:
REMARK  status: ('A' for Active; 'I' for Inactive)
REMARK    1  A    between atoms: C_1  and  C_2
REMARK    2  A    between atoms: N_4  and  C_5
REMARK    3  A    between atoms: C_5  and  C_6
REMARK    4  A    between atoms: C_9  and  C_10
REMARK    5  A    between atoms: N_12  and  C_13
REMARK    6  A    between atoms: C_16  and  N_17
REMARK                            x       y       z     vdW  Elec       q    Type
REMARK                         _______ _______ _______ _____ _____    ______ ____
ROOT
ATOM      1  C   UNL     1       8.407   8.984  18.170  0.00  0.00    +0.000 C 
ATOM      2  O   UNL     1       8.787   8.408  19.189  0.00  0.00    +0.000 OA
ATOM      3  N   UNL     1       7.544   8.452  17.216  0.00  0.00    +0.000 N 
ATOM      4  H   UNL     1       7.426   8.937  16.339  0.00  0.00    +0.000 HD
ENDROOT
BRANCH   1   8
ATOM      5  C   UNL     1       9.651  13.074  17.836  0.00  0.00    +0.000 A 
ATOM      6  C   UNL     1      10.588  12.096  18.216  0.00  0.00    +0.000 A 
ATOM      7  C   UNL     1      10.235  10.743  18.293  0.00  0.00    +0.000 A 
ATOM      8  C   UNL     1       8.932  10.358  17.979  0.00  0.00    +0.000 A 
ATOM      9  C   UNL     1       8.007  11.328  17.552  0.00  0.00    +0.000 A 
ATOM     10  C   UNL     1       8.363  12.674  17.476  0.00  0.00    +0.000 A 
BRANCH   5  11
ATOM     11  C   UNL     1      10.019  14.536  17.845  0.00  0.00    +0.000 C 
BRANCH  11  15
ATOM     12  C   UNL     1       7.738  17.424  18.669  0.00  0.00    +0.000 C 
ATOM     13  C   UNL     1       8.968  16.736  18.141  0.00  0.00    +0.000 C 
ATOM     14  O   UNL     1       9.920  17.359  17.672  0.00  0.00    +0.000 OA
ATOM     15  N   UNL     1       8.921  15.371  18.261  0.00  0.00    +0.000 N 
ATOM     16  H   UNL     1       8.070  14.926  18.582  0.00  0.00    +0.000 HD
ENDBRANCH  11  15
ENDBRANCH   5  11
ENDBRANCH   1   8
BRANCH   3  17
ATOM     17  C   UNL     1       6.773   7.273  17.411  0.00  0.00    +0.000 A 
ATOM     18  C   UNL     1       7.320   6.148  18.023  0.00  0.00    +0.000 A 
ATOM     19  C   UNL     1       6.546   5.032  18.294  0.00  0.00    +0.000 A 
ATOM     20  C   UNL     1       5.192   5.015  17.955  0.00  0.00    +0.000 A 
ATOM     21  C   UNL     1       4.618   6.095  17.289  0.00  0.00    +0.000 A 
ATOM     22  C   UNL     1       5.414   7.238  17.041  0.00  0.00    +0.000 A 
BRANCH  20  23
ATOM     23  N   UNL     1       4.470   3.870  18.378  0.00  0.00    +0.000 N 
ATOM     24  C   UNL     1       4.245   2.808  17.519  0.00  0.00    +0.000 A 
ATOM     25  N   UNL     1       3.041   2.303  17.642  0.00  0.00    +0.000 NA
ATOM     26  C   UNL     1       2.475   3.021  18.660  0.00  0.00    +0.000 A 
ATOM     27  C   UNL     1       1.145   3.009  19.101  0.00  0.00    +0.000 A 
ATOM     28  C   UNL     1       0.789   3.825  20.179  0.00  0.00    +0.000 A 
ATOM     29  C   UNL     1       1.751   4.597  20.834  0.00  0.00    +0.000 A 
ATOM     30  C   UNL     1       3.078   4.655  20.384  0.00  0.00    +0.000 A 
ATOM     31  C   UNL     1       3.396   3.888  19.254  0.00  0.00    +0.000 A 
ENDBRANCH  20  23
ENDBRANCH   3  17
TORSDOF 5
ENDMDL
MODEL 4
REMARK VINA RESULT:      -8.6      7.412     10.347
REMARK  Name = 
REMARK  6 active torsions:
REMARK  status: ('A' for Active; 'I' for Inactive)
REMARK    1  A    between atoms: C_1  and  C_2
REMARK    2  A    between atoms: N_4  and  C_5
REMARK    3  A    between atoms: C_5  and  C_6
REMARK    4  A    between atoms: C_9  and  C_10
REMARK    5  A    between atoms: N_12  and  C_13
REMARK    6  A    between atoms: C_16  and  N_17
REMARK                            x       y       z     vdW  Elec       q    Type
REMARK                         _______ _______ _______ _____ _____    ______ ____
ROOT
ATOM      1  C   UNL     1       0.111  10.693  21.329  0.00  0.00    +0.000 C 
ATOM      2  O   UNL     1       0.945  10.450  22.202  0.00  0.00    +0.000 OA
ATOM      3  N   UNL     1       0.184  10.273  20.004  0.00  0.00    +0.000 N 
ATOM      4  H   UNL     1      -0.459  10.662  19.331  0.00  0.00    +0.000 HD
ENDROOT
BRANCH   1   8
ATOM      5  C   UNL     1      -3.445  12.875  22.316  0.00  0.00    +0.000 A 
ATOM      6  C   UNL     1      -2.772  12.161  23.323  0.00  0.00    +0.000 A 
ATOM      7  C   UNL     1      -1.582  11.471  23.053  0.00  0.00    +0.000 A 
ATOM      8  C   UNL     1      -1.052  11.503  21.764  0.00  0.00    +0.000 A 
ATOM      9  C   UNL     1      -1.698  12.258  20.768  0.00  0.00    +0.000 A 
ATOM     10  C   UNL     1      -2.881  12.942  21.041  0.00  0.00    +0.000 A 
BRANCH   5  11
ATOM     11  C   UNL     1      -4.771  13.536  22.598  0.00  0.00    +0.000 C 
BRANCH  11  15
ATOM     12  C   UNL     1      -7.916  11.471  22.336  0.00  0.00    +0.000 C 
ATOM     13  C   UNL     1      -6.907  12.516  21.942  0.00  0.00    +0.000 C 
ATOM     14  O   UNL     1      -7.065  13.248  20.966  0.00  0.00    +0.000 OA
ATOM     15  N   UNL     1      -5.828  12.575  22.787  0.00  0.00    +0.000 N 
ATOM     16  H   UNL     1      -5.729  11.885  23.520  0.00  0.00    +0.000 HD
ENDBRANCH  11  15
ENDBRANCH   5  11
ENDBRANCH   1   8
BRANCH   3  17
ATOM     17  C   UNL     1       1.092   9.285  19.532  0.00  0.00    +0.000 A 
ATOM     18  C   UNL     1       1.447   8.195  20.324  0.00  0.00    +0.000 A 
ATOM     19  C   UNL     1       2.259   7.187  19.834  0.00  0.00    +0.000 A 
ATOM     20  C   UNL     1       2.742   7.245  18.526  0.00  0.00    +0.000 A 
ATOM     21  C   UNL     1       2.461   8.345  17.719  0.00  0.00    +0.000 A 
ATOM     22  C   UNL     1       1.609   9.355  18.223  0.00  0.00    +0.000 A 
BRANCH  20  23
ATOM     23  N   UNL     1       3.471   6.109  18.092  0.00  0.00    +0.000 N 
ATOM     24  C   UNL     1       3.180   4.844  18.575  0.00  0.00    +0.000 A 
ATOM     25  N   UNL     1       4.254   4.128  18.800  0.00  0.00    +0.000 NA
ATOM     26  C   UNL     1       5.287   4.929  18.395  0.00  0.00    +0.000 A 
ATOM     27  C   UNL     1       6.664   4.728  18.558  0.00  0.00    +0.000 A 
ATOM     28  C   UNL     1       7.546   5.683  18.047  0.00  0.00    +0.000 A 
ATOM     29  C   UNL     1       7.067   6.789  17.342  0.00  0.00    +0.000 A 
ATOM     30  C   UNL     1       5.692   7.031  17.202  0.00  0.00    +0.000 A 
ATOM     31  C   UNL     1       4.824   6.101  17.789  0.00  0.00    +0.000 A 
ENDBRANCH  20  23
ENDBRANCH   3  17
TORSDOF 5
ENDMDL
MODEL 5
REMARK VINA RESULT:      -8.5      7.879     10.310
REMARK  Name = 
REMARK  6 active torsions:
REMARK  status: ('A' for Active; 'I' for Inactive)
REMARK    1  A    between atoms: C_1  and  C_2
REMARK    2  A    between atoms: N_4  and  C_5
REMARK    3  A    between atoms: C_5  and  C_6
REMARK    4  A    between atoms: C_9  and  C_10
REMARK    5  A    between atoms: N_12  and  C_13
REMARK    6  A    between atoms: C_16  and  N_17
REMARK                            x       y       z     vdW  Elec       q    Type
REMARK                         _______ _______ _______ _____ _____    ______ ____
ROOT
ATOM      1  C   UNL     1      -0.124  11.706  21.185  0.00  0.00    +0.000 C 
ATOM      2  O   UNL     1       1.015  12.154  21.326  0.00  0.00    +0.000 OA
ATOM      3  N   UNL     1      -0.451  10.524  20.527  0.00  0.00    +0.000 N 
ATOM      4  H   UNL     1      -1.420  10.331  20.321  0.00  0.00    +0.000 HD
ENDROOT
BRANCH   1   8
ATOM      5  C   UNL     1      -3.495  13.797  22.813  0.00  0.00    +0.000 A 
ATOM      6  C   UNL     1      -2.358  13.592  23.614  0.00  0.00    +0.000 A 
ATOM      7  C   UNL     1      -1.218  12.953  23.108  0.00  0.00    +0.000 A 
ATOM      8  C   UNL     1      -1.209  12.522  21.782  0.00  0.00    +0.000 A 
ATOM      9  C   UNL     1      -2.327  12.771  20.965  0.00  0.00    +0.000 A 
ATOM     10  C   UNL     1      -3.459  13.407  21.473  0.00  0.00    +0.000 A 
BRANCH   5  11
ATOM     11  C   UNL     1      -4.747  14.403  23.395  0.00  0.00    +0.000 C 
BRANCH  11  15
ATOM     12  C   UNL     1      -7.766  12.287  22.602  0.00  0.00    +0.000 C 
ATOM     13  C   UNL     1      -6.557  12.743  23.373  0.00  0.00    +0.000 C 
ATOM     14  O   UNL     1      -6.165  12.163  24.385  0.00  0.00    +0.000 OA
ATOM     15  N   UNL     1      -5.942  13.838  22.821  0.00  0.00    +0.000 N 
ATOM     16  H   UNL     1      -6.371  14.309  22.036  0.00  0.00    +0.000 HD
ENDBRANCH  11  15
ENDBRANCH   5  11
ENDBRANCH   1   8
BRANCH   3  17
ATOM     17  C   UNL     1       0.499   9.534  20.152  0.00  0.00    +0.000 A 
ATOM     18  C   UNL     1       0.892   8.540  21.045  0.00  0.00    +0.000 A 
ATOM     19  C   UNL     1       1.747   7.524  20.655  0.00  0.00    +0.000 A 
ATOM     20  C   UNL     1       2.234   7.476  19.347  0.00  0.00    +0.000 A 
ATOM     21  C   UNL     1       1.912   8.482  18.438  0.00  0.00    +0.000 A 
ATOM     22  C   UNL     1       1.018   9.500  18.843  0.00  0.00    +0.000 A 
BRANCH  20  23
ATOM     23  N   UNL     1       3.010   6.334  19.024  0.00  0.00    +0.000 N 
ATOM     24  C   UNL     1       3.918   6.358  17.979  0.00  0.00    +0.000 A 
ATOM     25  N   UNL     1       3.923   5.245  17.287  0.00  0.00    +0.000 NA
ATOM     26  C   UNL     1       3.028   4.438  17.934  0.00  0.00    +0.000 A 
ATOM     27  C   UNL     1       2.525   3.194  17.532  0.00  0.00    +0.000 A 
ATOM     28  C   UNL     1       1.618   2.536  18.368  0.00  0.00    +0.000 A 
ATOM     29  C   UNL     1       1.263   3.083  19.602  0.00  0.00    +0.000 A 
ATOM     30  C   UNL     1       1.723   4.345  20.006  0.00  0.00    +0.000 A 
ATOM     31  C   UNL     1       2.569   5.023  19.118  0.00  0.00    +0.000 A 
ENDBRANCH  20  23
ENDBRANCH   3  17
TORSDOF 5
ENDMDL
MODEL 6
REMARK VINA RESULT:      -8.3      0.885      1.572
REMARK  Name = 
REMARK  6 active torsions:
REMARK  status: ('A' for Active; 'I' for Inactive)
REMARK    1  A    between atoms: C_1  and  C_2
REMARK    2  A    between atoms: N_4  and  C_5
REMARK    3  A    between atoms: C_5  and  C_6
REMARK    4  A    between atoms: C_9  and  C_10
REMARK    5  A    between atoms: N_12  and  C_13
REMARK    6  A    between atoms: C_16  and  N_17
REMARK                            x       y       z     vdW  Elec       q    Type
REMARK                         _______ _______ _______ _____ _____    ______ ____
ROOT
ATOM      1  C   UNL     1       8.778   9.665  18.346  0.00  0.00    +0.000 C 
ATOM      2  O   UNL     1       8.873   9.371  19.539  0.00  0.00    +0.000 OA
ATOM      3  N   UNL     1       8.155   8.890  17.372  0.00  0.00    +0.000 N 
ATOM      4  H   UNL     1       8.275   9.136  16.401  0.00  0.00    +0.000 HD
ENDROOT
BRANCH   1   8
ATOM      5  C   UNL     1      10.363  13.559  17.505  0.00  0.00    +0.000 A 
ATOM      6  C   UNL     1      11.241  12.467  17.623  0.00  0.00    +0.000 A 
ATOM      7  C   UNL     1      10.762  11.170  17.853  0.00  0.00    +0.000 A 
ATOM      8  C   UNL     1       9.388  10.959  17.957  0.00  0.00    +0.000 A 
ATOM      9  C   UNL     1       8.506  12.042  17.790  0.00  0.00    +0.000 A 
ATOM     10  C   UNL     1       8.987  13.330  17.561  0.00  0.00    +0.000 A 
BRANCH   5  11
ATOM     11  C   UNL     1      10.895  14.961  17.349  0.00  0.00    +0.000 C 
BRANCH  11  15
ATOM     12  C   UNL     1      11.235  17.468  20.146  0.00  0.00    +0.000 C 
ATOM     13  C   UNL     1      10.971  16.979  18.747  0.00  0.00    +0.000 C 
ATOM     14  O   UNL     1      10.707  17.744  17.821  0.00  0.00    +0.000 OA
ATOM     15  N   UNL     1      11.078  15.617  18.619  0.00  0.00    +0.000 N 
ATOM     16  H   UNL     1      11.217  15.047  19.443  0.00  0.00    +0.000 HD
ENDBRANCH  11  15
ENDBRANCH   5  11
ENDBRANCH   1   8
BRANCH   3  17
ATOM     17  C   UNL     1       7.314   7.779  17.656  0.00  0.00    +0.000 A 
ATOM     18  C   UNL     1       6.003   7.731  17.186  0.00  0.00    +0.000 A 
ATOM     19  C   UNL     1       5.212   6.612  17.385  0.00  0.00    +0.000 A 
ATOM     20  C   UNL     1       5.717   5.504  18.067  0.00  0.00    +0.000 A 
ATOM     21  C   UNL     1       7.002   5.533  18.604  0.00  0.00    +0.000 A 
ATOM     22  C   UNL     1       7.808   6.671  18.371  0.00  0.00    +0.000 A 
BRANCH  20  23
ATOM     23  N   UNL     1       4.863   4.374  18.116  0.00  0.00    +0.000 N 
ATOM     24  C   UNL     1       4.543   3.668  16.969  0.00  0.00    +0.000 A 
ATOM     25  N   UNL     1       3.288   3.289  16.940  0.00  0.00    +0.000 NA
ATOM     26  C   UNL     1       2.779   3.710  18.138  0.00  0.00    +0.000 A 
ATOM     27  C   UNL     1       1.446   3.710  18.568  0.00  0.00    +0.000 A 
ATOM     28  C   UNL     1       1.156   4.181  19.851  0.00  0.00    +0.000 A 
ATOM     29  C   UNL     1       2.179   4.594  20.706  0.00  0.00    +0.000 A 
ATOM     30  C   UNL     1       3.516   4.640  20.282  0.00  0.00    +0.000 A 
ATOM     31  C   UNL     1       3.775   4.237  18.965  0.00  0.00    +0.000 A 
ENDBRANCH  20  23
ENDBRANCH   3  17
TORSDOF 5
ENDMDL
MODEL 7
REMARK VINA RESULT:      -8.3      7.728     10.045
REMARK  Name = 
REMARK  6 active torsions:
REMARK  status: ('A' for Active; 'I' for Inactive)
REMARK    1  A    between atoms: C_1  and  C_2
REMARK    2  A    between atoms: N_4  and  C_5
REMARK    3  A    between atoms: C_5  and  C_6
REMARK    4  A    between atoms: C_9  and  C_10
REMARK    5  A    between atoms: N_12  and  C_13
REMARK    6  A    between atoms: C_16  and  N_17
REMARK                            x       y       z     vdW  Elec       q    Type
REMARK                         _______ _______ _______ _____ _____    ______ ____
ROOT
ATOM      1  C   UNL     1       0.165  10.620  21.331  0.00  0.00    +0.000 C 
ATOM      2  O   UNL     1       1.029  10.381  22.176  0.00  0.00    +0.000 OA
ATOM      3  N   UNL     1       0.204  10.213  20.001  0.00  0.00    +0.000 N 
ATOM      4  H   UNL     1      -0.466  10.599  19.352  0.00  0.00    +0.000 HD
ENDROOT
BRANCH   1   8
ATOM      5  C   UNL     1      -3.389  12.745  22.445  0.00  0.00    +0.000 A 
ATOM      6  C   UNL     1      -2.688  12.013  23.420  0.00  0.00    +0.000 A 
ATOM      7  C   UNL     1      -1.498  11.341  23.109  0.00  0.00    +0.000 A 
ATOM      8  C   UNL     1      -0.996  11.408  21.811  0.00  0.00    +0.000 A 
ATOM      9  C   UNL     1      -1.670  12.180  20.846  0.00  0.00    +0.000 A 
ATOM     10  C   UNL     1      -2.853  12.847  21.160  0.00  0.00    +0.000 A 
BRANCH   5  11
ATOM     11  C   UNL     1      -4.714  13.386  22.770  0.00  0.00    +0.000 C 
BRANCH  11  15
ATOM     12  C   UNL     1      -5.251  16.681  24.526  0.00  0.00    +0.000 C 
ATOM     13  C   UNL     1      -5.622  15.343  23.944  0.00  0.00    +0.000 C 
ATOM     14  O   UNL     1      -6.779  14.924  23.944  0.00  0.00    +0.000 OA
ATOM     15  N   UNL     1      -4.555  14.670  23.406  0.00  0.00    +0.000 N 
ATOM     16  H   UNL     1      -3.621  15.041  23.518  0.00  0.00    +0.000 HD
ENDBRANCH  11  15
ENDBRANCH   5  11
ENDBRANCH   1   8
BRANCH   3  17
ATOM     17  C   UNL     1       1.111   9.244  19.491  0.00  0.00    +0.000 A 
ATOM     18  C   UNL     1       1.480   8.135  20.250  0.00  0.00    +0.000 A 
ATOM     19  C   UNL     1       2.292   7.145  19.723  0.00  0.00    +0.000 A 
ATOM     20  C   UNL     1       2.760   7.241  18.411  0.00  0.00    +0.000 A 
ATOM     21  C   UNL     1       2.463   8.361  17.638  0.00  0.00    +0.000 A 
ATOM     22  C   UNL     1       1.612   9.352  18.179  0.00  0.00    +0.000 A 
BRANCH  20  23
ATOM     23  N   UNL     1       3.488   6.121  17.937  0.00  0.00    +0.000 N 
ATOM     24  C   UNL     1       3.163   4.835  18.335  0.00  0.00    +0.000 A 
ATOM     25  N   UNL     1       4.219   4.091  18.557  0.00  0.00    +0.000 NA
ATOM     26  C   UNL     1       5.276   4.898  18.236  0.00  0.00    +0.000 A 
ATOM     27  C   UNL     1       6.644   4.667  18.437  0.00  0.00    +0.000 A 
ATOM     28  C   UNL     1       7.557   5.637  18.014  0.00  0.00    +0.000 A 
ATOM     29  C   UNL     1       7.118   6.789  17.359  0.00  0.00    +0.000 A 
ATOM     30  C   UNL     1       5.753   7.059  17.184  0.00  0.00    +0.000 A 
ATOM     31  C   UNL     1       4.851   6.110  17.684  0.00  0.00    +0.000 A 
ENDBRANCH  20  23
ENDBRANCH   3  17
TORSDOF 5
ENDMDL
MODEL 8
REMARK VINA RESULT:      -8.3      6.709      9.937
REMARK  Name = 
REMARK  6 active torsions:
REMARK  status: ('A' for Active; 'I' for Inactive)
REMARK    1  A    between atoms: C_1  and  C_2
REMARK    2  A    between atoms: N_4  and  C_5
REMARK    3  A    between atoms: C_5  and  C_6
REMARK    4  A    between atoms: C_9  and  C_10
REMARK    5  A    between atoms: N_12  and  C_13
REMARK    6  A    between atoms: C_16  and  N_17
REMARK                            x       y       z     vdW  Elec       q    Type
REMARK                         _______ _______ _______ _____ _____    ______ ____
ROOT
ATOM      1  C   UNL     1       2.400   7.483  18.700  0.00  0.00    +0.000 C 
ATOM      2  O   UNL     1       2.214   7.216  19.888  0.00  0.00    +0.000 OA
ATOM      3  N   UNL     1       1.820   8.544  18.011  0.00  0.00    +0.000 N 
ATOM      4  H   UNL     1       1.904   8.579  17.006  0.00  0.00    +0.000 HD
ENDROOT
BRANCH   1   8
ATOM      5  C   UNL     1       5.352   5.032  16.785  0.00  0.00    +0.000 A 
ATOM      6  C   UNL     1       4.277   4.421  17.456  0.00  0.00    +0.000 A 
ATOM      7  C   UNL     1       3.267   5.184  18.056  0.00  0.00    +0.000 A 
ATOM      8  C   UNL     1       3.325   6.575  17.979  0.00  0.00    +0.000 A 
ATOM      9  C   UNL     1       4.372   7.186  17.266  0.00  0.00    +0.000 A 
ATOM     10  C   UNL     1       5.375   6.423  16.669  0.00  0.00    +0.000 A 
BRANCH   5  11
ATOM     11  C   UNL     1       6.478   4.203  16.223  0.00  0.00    +0.000 C 
BRANCH  11  15
ATOM     12  C   UNL     1       6.111   3.489  12.537  0.00  0.00    +0.000 C 
ATOM     13  C   UNL     1       6.596   4.205  13.769  0.00  0.00    +0.000 C 
ATOM     14  O   UNL     1       7.305   5.209  13.710  0.00  0.00    +0.000 OA
ATOM     15  N   UNL     1       6.150   3.640  14.937  0.00  0.00    +0.000 N 
ATOM     16  H   UNL     1       5.639   2.768  14.907  0.00  0.00    +0.000 HD
ENDBRANCH  11  15
ENDBRANCH   5  11
ENDBRANCH   1   8
BRANCH   3  17
ATOM     17  C   UNL     1       1.141   9.624  18.640  0.00  0.00    +0.000 A 
ATOM     18  C   UNL     1       0.106   9.395  19.544  0.00  0.00    +0.000 A 
ATOM     19  C   UNL     1      -0.496  10.440  20.224  0.00  0.00    +0.000 A 
ATOM     20  C   UNL     1      -0.073  11.753  20.013  0.00  0.00    +0.000 A 
ATOM     21  C   UNL     1       0.918  12.033  19.075  0.00  0.00    +0.000 A 
ATOM     22  C   UNL     1       1.542  10.954  18.407  0.00  0.00    +0.000 A 
BRANCH  20  23
ATOM     23  N   UNL     1      -0.679  12.731  20.842  0.00  0.00    +0.000 N 
ATOM     24  C   UNL     1      -0.121  13.084  22.059  0.00  0.00    +0.000 A 
ATOM     25  N   UNL     1      -1.019  13.265  22.995  0.00  0.00    +0.000 NA
ATOM     26  C   UNL     1      -2.216  13.084  22.357  0.00  0.00    +0.000 A 
ATOM     27  C   UNL     1      -3.499  13.004  22.914  0.00  0.00    +0.000 A 
ATOM     28  C   UNL     1      -4.590  12.825  22.060  0.00  0.00    +0.000 A 
ATOM     29  C   UNL     1      -4.411  12.780  20.676  0.00  0.00    +0.000 A 
ATOM     30  C   UNL     1      -3.132  12.818  20.100  0.00  0.00    +0.000 A 
ATOM     31  C   UNL     1      -2.046  12.919  20.979  0.00  0.00    +0.000 A 
ENDBRANCH  20  23
ENDBRANCH   3  17
TORSDOF 5
ENDMDL
MODEL 9
REMARK VINA RESULT:      -8.3      0.965      1.633
REMARK  Name = 
REMARK  6 active torsions:
REMARK  status: ('A' for Active; 'I' for Inactive)
REMARK    1  A    between atoms: C_1  and  C_2
REMARK    2  A    between atoms: N_4  and  C_5
REMARK    3  A    between atoms: C_5  and  C_6
REMARK    4  A    between atoms: C_9  and  C_10
REMARK    5  A    between atoms: N_12  and  C_13
REMARK    6  A    between atoms: C_16  and  N_17
REMARK                            x       y       z     vdW  Elec       q    Type
REMARK                         _______ _______ _______ _____ _____    ______ ____
ROOT
ATOM      1  C   UNL     1       8.447   9.137  18.191  0.00  0.00    +0.000 C 
ATOM      2  O   UNL     1       8.838   8.589  19.222  0.00  0.00    +0.000 OA
ATOM      3  N   UNL     1       7.534   8.599  17.288  0.00  0.00    +0.000 N 
ATOM      4  H   UNL     1       7.405   9.051  16.395  0.00  0.00    +0.000 HD
ENDROOT
BRANCH   1   8
ATOM      5  C   UNL     1       9.863  13.151  17.675  0.00  0.00    +0.000 A 
ATOM      6  C   UNL     1      10.787  12.119  17.920  0.00  0.00    +0.000 A 
ATOM      7  C   UNL     1      10.371  10.787  18.050  0.00  0.00    +0.000 A 
ATOM      8  C   UNL     1       9.018  10.479  17.925  0.00  0.00    +0.000 A 
ATOM      9  C   UNL     1       8.098  11.503  17.631  0.00  0.00    +0.000 A 
ATOM     10  C   UNL     1       8.516  12.827  17.502  0.00  0.00    +0.000 A 
BRANCH   5  11
ATOM     11  C   UNL     1      10.312  14.589  17.628  0.00  0.00    +0.000 C 
BRANCH  11  15
ATOM     12  C   UNL     1      10.774  16.125  21.043  0.00  0.00    +0.000 C 
ATOM     13  C   UNL     1      11.178  15.443  19.763  0.00  0.00    +0.000 C 
ATOM     14  O   UNL     1      12.333  15.079  19.547  0.00  0.00    +0.000 OA
ATOM     15  N   UNL     1      10.133  15.256  18.894  0.00  0.00    +0.000 N 
ATOM     16  H   UNL     1       9.228  15.656  19.106  0.00  0.00    +0.000 HD
ENDBRANCH  11  15
ENDBRANCH   5  11
ENDBRANCH   1   8
BRANCH   3  17
ATOM     17  C   UNL     1       6.725   7.461  17.557  0.00  0.00    +0.000 A 
ATOM     18  C   UNL     1       5.369   7.449  17.236  0.00  0.00    +0.000 A 
ATOM     19  C   UNL     1       4.601   6.311  17.414  0.00  0.00    +0.000 A 
ATOM     20  C   UNL     1       5.176   5.146  17.925  0.00  0.00    +0.000 A 
ATOM     21  C   UNL     1       6.513   5.131  18.314  0.00  0.00    +0.000 A 
ATOM     22  C   UNL     1       7.293   6.292  18.102  0.00  0.00    +0.000 A 
BRANCH  20  23
ATOM     23  N   UNL     1       4.328   4.010  17.961  0.00  0.00    +0.000 N 
ATOM     24  C   UNL     1       3.816   3.461  16.798  0.00  0.00    +0.000 A 
ATOM     25  N   UNL     1       2.570   3.077  16.924  0.00  0.00    +0.000 NA
ATOM     26  C   UNL     1       2.268   3.328  18.234  0.00  0.00    +0.000 A 
ATOM     27  C   UNL     1       1.023   3.257  18.872  0.00  0.00    +0.000 A 
ATOM     28  C   UNL     1       0.951   3.548  20.237  0.00  0.00    +0.000 A 
ATOM     29  C   UNL     1       2.106   3.853  20.961  0.00  0.00    +0.000 A 
ATOM     30  C   UNL     1       3.355   3.970  20.334  0.00  0.00    +0.000 A 
ATOM     31  C   UNL     1       3.392   3.750  18.950  0.00  0.00    +0.000 A 
ENDBRANCH  20  23
ENDBRANCH   3  17
TORSDOF 5
ENDMDL
