MODEL 1
REMARK VINA RESULT:      -9.0      0.000      0.000
REMARK  Name = 
REMARK  7 active torsions:
REMARK  status: ('A' for Active; 'I' for Inactive)
REMARK    1  A    between atoms: C_1  and  C_2
REMARK    2  A    between atoms: C_3  and  N_4
REMARK    3  A    between atoms: N_9  and  C_10
REMARK    4  A    between atoms: C_14  and  N_15
REMARK    5  A    between atoms: C_20  and  N_21
REMARK    6  A    between atoms: N_21  and  C_22
REMARK    7  A    between atoms: C_26  and  C_27
REMARK                            x       y       z     vdW  Elec       q    Type
REMARK                         _______ _______ _______ _____ _____    ______ ____
ROOT
ATOM      1  N   UNL     1       2.978   5.869  19.274  0.00  0.00    +0.000 N 
ATOM      2  C   UNL     1       4.360   5.567  19.643  0.00  0.00    +0.000 C 
ATOM      3  C   UNL     1       4.922   4.979  18.383  0.00  0.00    +0.000 A 
ATOM      4  C   UNL     1       3.873   4.568  17.567  0.00  0.00    +0.000 A 
ATOM      5  C   UNL     1       4.024   4.297  16.212  0.00  0.00    +0.000 A 
ATOM      6  C   UNL     1       5.294   4.464  15.661  0.00  0.00    +0.000 A 
ATOM      7  C   UNL     1       6.381   4.766  16.526  0.00  0.00    +0.000 A 
ATOM      8  C   UNL     1       6.219   5.011  17.905  0.00  0.00    +0.000 A 
ATOM      9  C   UNL     1       2.620   4.977  18.224  0.00  0.00    +0.000 C 
ATOM     10  O   UNL     1       1.515   4.738  17.776  0.00  0.00    +0.000 OA
ENDROOT
BRANCH   1  17
ATOM     11  C   UNL     1       1.673   7.777  21.256  0.00  0.00    +0.000 C 
ATOM     12  C   UNL     1       1.809   8.019  19.777  0.00  0.00    +0.000 A 
ATOM     13  C   UNL     1       1.129   9.113  19.176  0.00  0.00    +0.000 A 
ATOM     14  C   UNL     1       1.569   9.564  17.916  0.00  0.00    +0.000 A 
ATOM     15  C   UNL     1       2.641   8.978  17.265  0.00  0.00    +0.000 A 
ATOM     16  C   UNL     1       3.174   7.814  17.782  0.00  0.00    +0.000 A 
ATOM     17  C   UNL     1       2.687   7.259  18.981  0.00  0.00    +0.000 A 
BRANCH  13  18
ATOM     18  N   UNL     1       0.008   9.717  19.813  0.00  0.00    +0.000 N 
ATOM     19  C   UNL     1       0.040  10.886  20.488  0.00  0.00    +0.000 A 
ATOM     20  N   UNL     1       1.022  11.405  21.199  0.00  0.00    +0.000 NA
ATOM     21  N   UNL     1       0.640  12.623  21.684  0.00  0.00    +0.000 NA
ATOM     22  C   UNL     1      -0.580  12.846  21.262  0.00  0.00    +0.000 A 
ATOM     23  N   UNL     1      -1.011  11.778  20.516  0.00  0.00    +0.000 N 
ATOM     24  C   UNL     1      -2.270  11.742  19.836  0.00  0.00    +0.000 C 
ATOM     25  H   UNL     1      -0.847   9.182  19.752  0.00  0.00    +0.000 HD
ENDBRANCH  13  18
ENDBRANCH   1  17
BRANCH   8  26
ATOM     26  C   UNL     1       7.389   5.431  18.749  0.00  0.00    +0.000 C 
ATOM     27  F   UNL     1       7.135   5.406  20.090  0.00  0.00    +0.000 F 
ATOM     28  F   UNL     1       8.471   4.629  18.570  0.00  0.00    +0.000 F 
ATOM     29  F   UNL     1       7.801   6.696  18.473  0.00  0.00    +0.000 F 
ENDBRANCH   8  26
BRANCH   6  30
ATOM     30  N   UNL     1       5.520   4.583  14.271  0.00  0.00    +0.000 N 
ATOM     31  H   UNL     1       5.667   5.545  13.978  0.00  0.00    +0.000 HD
BRANCH  30  32
ATOM     32  C   UNL     1       6.186   3.577  13.447  0.00  0.00    +0.000 C 
ATOM     33  C   UNL     1       6.905   4.069  12.213  0.00  0.00    +0.000 C 
ATOM     34  C   UNL     1       5.757   3.119  12.084  0.00  0.00    +0.000 C 
ENDBRANCH  30  32
ENDBRANCH   6  30
TORSDOF 5
ENDMDL
MODEL 2
REMARK VINA RESULT:      -7.7      4.190      9.656
REMARK  Name = 
REMARK  7 active torsions:
REMARK  status: ('A' for Active; 'I' for Inactive)
REMARK    1  A    between atoms: C_1  and  C_2
REMARK    2  A    between atoms: C_3  and  N_4
REMARK    3  A    between atoms: N_9  and  C_10
REMARK    4  A    between atoms: C_14  and  N_15
REMARK    5  A    between atoms: C_20  and  N_21
REMARK    6  A    between atoms: N_21  and  C_22
REMARK    7  A    between atoms: C_26  and  C_27
REMARK                            x       y       z     vdW  Elec       q    Type
REMARK                         _______ _______ _______ _____ _____    ______ ____
ROOT
ATOM      1  N   UNL     1       0.843  10.465  18.610  0.00  0.00    +0.000 N 
ATOM      2  C   UNL     1       1.553  11.733  18.764  0.00  0.00    +0.000 C 
ATOM      3  C   UNL     1       0.648  12.516  19.669  0.00  0.00    +0.000 A 
ATOM      4  C   UNL     1      -0.622  11.948  19.643  0.00  0.00    +0.000 A 
ATOM      5  C   UNL     1      -1.592  12.210  20.602  0.00  0.00    +0.000 A 
ATOM      6  C   UNL     1      -1.252  13.078  21.639  0.00  0.00    +0.000 A 
ATOM      7  C   UNL     1       0.002  13.744  21.591  0.00  0.00    +0.000 A 
ATOM      8  C   UNL     1       0.968  13.491  20.595  0.00  0.00    +0.000 A 
ATOM      9  C   UNL     1      -0.541  10.732  18.816  0.00  0.00    +0.000 C 
ATOM     10  O   UNL     1      -1.495  10.019  18.572  0.00  0.00    +0.000 OA
ENDROOT
BRANCH   1  17
ATOM     11  C   UNL     1       2.826   8.407  17.559  0.00  0.00    +0.000 C 
ATOM     12  C   UNL     1       1.994   8.255  18.804  0.00  0.00    +0.000 A 
ATOM     13  C   UNL     1       1.947   7.002  19.473  0.00  0.00    +0.000 A 
ATOM     14  C   UNL     1       1.514   6.974  20.812  0.00  0.00    +0.000 A 
ATOM     15  C   UNL     1       1.147   8.128  21.484  0.00  0.00    +0.000 A 
ATOM     16  C   UNL     1       1.034   9.304  20.770  0.00  0.00    +0.000 A 
ATOM     17  C   UNL     1       1.344   9.354  19.397  0.00  0.00    +0.000 A 
BRANCH  13  18
ATOM     18  N   UNL     1       2.295   5.798  18.796  0.00  0.00    +0.000 N 
ATOM     19  C   UNL     1       3.429   5.096  19.006  0.00  0.00    +0.000 A 
ATOM     20  N   UNL     1       4.628   5.535  19.334  0.00  0.00    +0.000 NA
ATOM     21  N   UNL     1       5.479   4.477  19.479  0.00  0.00    +0.000 NA
ATOM     22  C   UNL     1       4.792   3.388  19.239  0.00  0.00    +0.000 A 
ATOM     23  N   UNL     1       3.499   3.720  18.923  0.00  0.00    +0.000 N 
ATOM     24  C   UNL     1       2.466   2.757  18.692  0.00  0.00    +0.000 C 
ATOM     25  H   UNL     1       1.628   5.502  18.099  0.00  0.00    +0.000 HD
ENDBRANCH  13  18
ENDBRANCH   1  17
BRANCH   8  26
ATOM     26  C   UNL     1       2.318  14.147  20.656  0.00  0.00    +0.000 C 
ATOM     27  F   UNL     1       2.368  15.224  21.493  0.00  0.00    +0.000 F 
ATOM     28  F   UNL     1       3.286  13.300  21.095  0.00  0.00    +0.000 F 
ATOM     29  F   UNL     1       2.730  14.601  19.443  0.00  0.00    +0.000 F 
ENDBRANCH   8  26
BRANCH   6  30
ATOM     30  N   UNL     1      -1.979  13.151  22.850  0.00  0.00    +0.000 N 
ATOM     31  H   UNL     1      -2.012  14.092  23.231  0.00  0.00    +0.000 HD
BRANCH  30  32
ATOM     32  C   UNL     1      -3.121  12.306  23.187  0.00  0.00    +0.000 C 
ATOM     33  C   UNL     1      -4.491  12.937  23.097  0.00  0.00    +0.000 C 
ATOM     34  C   UNL     1      -3.985  12.424  24.408  0.00  0.00    +0.000 C 
ENDBRANCH  30  32
ENDBRANCH   6  30
TORSDOF 5
ENDMDL
MODEL 3
REMARK VINA RESULT:      -7.6      4.595      9.400
REMARK  Name = 
REMARK  7 active torsions:
REMARK  status: ('A' for Active; 'I' for Inactive)
REMARK    1  A    between atoms: C_1  and  C_2
REMARK    2  A    between atoms: C_3  and  N_4
REMARK    3  A    between atoms: N_9  and  C_10
REMARK    4  A    between atoms: C_14  and  N_15
REMARK    5  A    between atoms: C_20  and  N_21
REMARK    6  A    between atoms: N_21  and  C_22
REMARK    7  A    between atoms: C_26  and  C_27
REMARK                            x       y       z     vdW  Elec       q    Type
REMARK                         _______ _______ _______ _____ _____    ______ ____
ROOT
ATOM      1  N   UNL     1       0.966  10.285  18.200  0.00  0.00    +0.000 N 
ATOM      2  C   UNL     1       1.661  11.571  18.201  0.00  0.00    +0.000 C 
ATOM      3  C   UNL     1       0.661  12.492  18.835  0.00  0.00    +0.000 A 
ATOM      4  C   UNL     1      -0.601  11.909  18.763  0.00  0.00    +0.000 A 
ATOM      5  C   UNL     1      -1.677  12.327  19.537  0.00  0.00    +0.000 A 
ATOM      6  C   UNL     1      -1.457  13.374  20.431  0.00  0.00    +0.000 A 
ATOM      7  C   UNL     1      -0.202  14.040  20.409  0.00  0.00    +0.000 A 
ATOM      8  C   UNL     1       0.874  13.625  19.598  0.00  0.00    +0.000 A 
ATOM      9  C   UNL     1      -0.430  10.564  18.189  0.00  0.00    +0.000 C 
ATOM     10  O   UNL     1      -1.353   9.803  17.969  0.00  0.00    +0.000 OA
ENDROOT
BRANCH   1  17
ATOM     11  C   UNL     1       3.000   8.061  17.766  0.00  0.00    +0.000 C 
ATOM     12  C   UNL     1       2.046   8.151  18.926  0.00  0.00    +0.000 A 
ATOM     13  C   UNL     1       1.907   7.050  19.813  0.00  0.00    +0.000 A 
ATOM     14  C   UNL     1       1.343   7.280  21.083  0.00  0.00    +0.000 A 
ATOM     15  C   UNL     1       0.935   8.541  21.482  0.00  0.00    +0.000 A 
ATOM     16  C   UNL     1       0.918   9.559  20.549  0.00  0.00    +0.000 A 
ATOM     17  C   UNL     1       1.364   9.345  19.230  0.00  0.00    +0.000 A 
BRANCH  13  18
ATOM     18  N   UNL     1       2.295   5.738  19.417  0.00  0.00    +0.000 N 
ATOM     19  C   UNL     1       2.178   4.634  20.184  0.00  0.00    +0.000 A 
ATOM     20  N   UNL     1       2.274   4.521  21.495  0.00  0.00    +0.000 NA
ATOM     21  N   UNL     1       2.054   3.223  21.858  0.00  0.00    +0.000 NA
ATOM     22  C   UNL     1       1.821   2.545  20.763  0.00  0.00    +0.000 A 
ATOM     23  N   UNL     1       1.900   3.380  19.678  0.00  0.00    +0.000 N 
ATOM     24  C   UNL     1       1.610   2.971  18.338  0.00  0.00    +0.000 C 
ATOM     25  H   UNL     1       2.708   5.683  18.497  0.00  0.00    +0.000 HD
ENDBRANCH  13  18
ENDBRANCH   1  17
BRANCH   8  26
ATOM     26  C   UNL     1       2.212  14.302  19.695  0.00  0.00    +0.000 C 
ATOM     27  F   UNL     1       2.187  15.464  20.410  0.00  0.00    +0.000 F 
ATOM     28  F   UNL     1       3.144  13.521  20.303  0.00  0.00    +0.000 F 
ATOM     29  F   UNL     1       2.720  14.626  18.478  0.00  0.00    +0.000 F 
ENDBRANCH   8  26
BRANCH   6  30
ATOM     30  N   UNL     1      -2.321  13.656  21.513  0.00  0.00    +0.000 N 
ATOM     31  H   UNL     1      -2.804  14.544  21.409  0.00  0.00    +0.000 HD
BRANCH  30  32
ATOM     32  C   UNL     1      -3.040  12.648  22.288  0.00  0.00    +0.000 C 
ATOM     33  C   UNL     1      -3.282  12.949  23.748  0.00  0.00    +0.000 C 
ATOM     34  C   UNL     1      -2.460  11.764  23.353  0.00  0.00    +0.000 C 
ENDBRANCH  30  32
ENDBRANCH   6  30
TORSDOF 5
ENDMDL
MODEL 4
REMARK VINA RESULT:      -7.6      4.458      9.838
REMARK  Name = 
REMARK  7 active torsions:
REMARK  status: ('A' for Active; 'I' for Inactive)
REMARK    1  A    between atoms: C_1  and  C_2
REMARK    2  A    between atoms: C_3  and  N_4
REMARK    3  A    between atoms: N_9  and  C_10
REMARK    4  A    between atoms: C_14  and  N_15
REMARK    5  A    between atoms: C_20  and  N_21
REMARK    6  A    between atoms: N_21  and  C_22
REMARK    7  A    between atoms: C_26  and  C_27
REMARK                            x       y       z     vdW  Elec       q    Type
REMARK                         _______ _______ _______ _____ _____    ______ ____
ROOT
ATOM      1  N   UNL     1       0.180  10.610  18.327  0.00  0.00    +0.000 N 
ATOM      2  C   UNL     1       0.656  11.989  18.237  0.00  0.00    +0.000 C 
ATOM      3  C   UNL     1      -0.457  12.769  18.871  0.00  0.00    +0.000 A 
ATOM      4  C   UNL     1      -1.609  11.988  18.884  0.00  0.00    +0.000 A 
ATOM      5  C   UNL     1      -2.709  12.268  19.685  0.00  0.00    +0.000 A 
ATOM      6  C   UNL     1      -2.630  13.384  20.518  0.00  0.00    +0.000 A 
ATOM      7  C   UNL     1      -1.502  14.241  20.408  0.00  0.00    +0.000 A 
ATOM      8  C   UNL     1      -0.403  13.961  19.570  0.00  0.00    +0.000 A 
ATOM      9  C   UNL     1      -1.243  10.659  18.366  0.00  0.00    +0.000 C 
ATOM     10  O   UNL     1      -2.037   9.750  18.223  0.00  0.00    +0.000 OA
ENDROOT
BRANCH   1  17
ATOM     11  C   UNL     1       2.675   8.902  17.965  0.00  0.00    +0.000 C 
ATOM     12  C   UNL     1       1.705   8.791  19.109  0.00  0.00    +0.000 A 
ATOM     13  C   UNL     1       1.805   7.702  20.017  0.00  0.00    +0.000 A 
ATOM     14  C   UNL     1       1.181   7.817  21.274  0.00  0.00    +0.000 A 
ATOM     15  C   UNL     1       0.489   8.958  21.642  0.00  0.00    +0.000 A 
ATOM     16  C   UNL     1       0.256   9.930  20.689  0.00  0.00    +0.000 A 
ATOM     17  C   UNL     1       0.763   9.802  19.381  0.00  0.00    +0.000 A 
BRANCH  13  18
ATOM     18  N   UNL     1       2.489   6.507  19.652  0.00  0.00    +0.000 N 
ATOM     19  C   UNL     1       1.956   5.268  19.698  0.00  0.00    +0.000 A 
ATOM     20  N   UNL     1       1.064   4.780  20.538  0.00  0.00    +0.000 NA
ATOM     21  N   UNL     1       0.780   3.487  20.203  0.00  0.00    +0.000 NA
ATOM     22  C   UNL     1       1.502   3.189  19.151  0.00  0.00    +0.000 A 
ATOM     23  N   UNL     1       2.271   4.269  18.800  0.00  0.00    +0.000 N 
ATOM     24  C   UNL     1       3.109   4.303  17.640  0.00  0.00    +0.000 C 
ATOM     25  H   UNL     1       3.449   6.644  19.370  0.00  0.00    +0.000 HD
ENDBRANCH  13  18
ENDBRANCH   1  17
BRANCH   8  26
ATOM     26  C   UNL     1       0.809  14.848  19.575  0.00  0.00    +0.000 C 
ATOM     27  F   UNL     1       1.893  14.292  20.187  0.00  0.00    +0.000 F 
ATOM     28  F   UNL     1       1.223  15.167  18.321  0.00  0.00    +0.000 F 
ATOM     29  F   UNL     1       0.586  16.027  20.215  0.00  0.00    +0.000 F 
ENDBRANCH   8  26
BRANCH   6  30
ATOM     30  N   UNL     1      -3.488  13.580  21.624  0.00  0.00    +0.000 N 
ATOM     31  H   UNL     1      -4.272  14.191  21.409  0.00  0.00    +0.000 HD
BRANCH  30  32
ATOM     32  C   UNL     1      -3.744  12.588  22.665  0.00  0.00    +0.000 C 
ATOM     33  C   UNL     1      -3.516  13.020  24.095  0.00  0.00    +0.000 C 
ATOM     34  C   UNL     1      -2.713  11.902  23.512  0.00  0.00    +0.000 C 
ENDBRANCH  30  32
ENDBRANCH   6  30
TORSDOF 5
ENDMDL
MODEL 5
REMARK VINA RESULT:      -7.5      4.233      9.617
REMARK  Name = 
REMARK  7 active torsions:
REMARK  status: ('A' for Active; 'I' for Inactive)
REMARK    1  A    between atoms: C_1  and  C_2
REMARK    2  A    between atoms: C_3  and  N_4
REMARK    3  A    between atoms: N_9  and  C_10
REMARK    4  A    between atoms: C_14  and  N_15
REMARK    5  A    between atoms: C_20  and  N_21
REMARK    6  A    between atoms: N_21  and  C_22
REMARK    7  A    between atoms: C_26  and  C_27
REMARK                            x       y       z     vdW  Elec       q    Type
REMARK                         _______ _______ _______ _____ _____    ______ ____
ROOT
ATOM      1  N   UNL     1       1.095  10.306  18.320  0.00  0.00    +0.000 N 
ATOM      2  C   UNL     1       1.692  11.609  18.606  0.00  0.00    +0.000 C 
ATOM      3  C   UNL     1       0.593  12.330  19.329  0.00  0.00    +0.000 A 
ATOM      4  C   UNL     1      -0.616  11.694  19.065  0.00  0.00    +0.000 A 
ATOM      5  C   UNL     1      -1.762  11.890  19.828  0.00  0.00    +0.000 A 
ATOM      6  C   UNL     1      -1.669  12.762  20.912  0.00  0.00    +0.000 A 
ATOM      7  C   UNL     1      -0.467  13.497  21.099  0.00  0.00    +0.000 A 
ATOM      8  C   UNL     1       0.679  13.310  20.300  0.00  0.00    +0.000 A 
ATOM      9  C   UNL     1      -0.315  10.494  18.266  0.00  0.00    +0.000 C 
ATOM     10  O   UNL     1      -1.166   9.733  17.847  0.00  0.00    +0.000 OA
ENDROOT
BRANCH   1  17
ATOM     11  C   UNL     1       3.019   8.104  17.469  0.00  0.00    +0.000 C 
ATOM     12  C   UNL     1       2.124   8.057  18.678  0.00  0.00    +0.000 A 
ATOM     13  C   UNL     1       1.984   6.844  19.405  0.00  0.00    +0.000 A 
ATOM     14  C   UNL     1       1.489   6.906  20.722  0.00  0.00    +0.000 A 
ATOM     15  C   UNL     1       1.149   8.109  21.318  0.00  0.00    +0.000 A 
ATOM     16  C   UNL     1       1.128   9.250  20.541  0.00  0.00    +0.000 A 
ATOM     17  C   UNL     1       1.503   9.215  19.184  0.00  0.00    +0.000 A 
BRANCH  13  18
ATOM     18  N   UNL     1       2.303   5.592  18.807  0.00  0.00    +0.000 N 
ATOM     19  C   UNL     1       3.436   4.894  19.033  0.00  0.00    +0.000 A 
ATOM     20  N   UNL     1       4.648   5.345  19.293  0.00  0.00    +0.000 NA
ATOM     21  N   UNL     1       5.495   4.291  19.487  0.00  0.00    +0.000 NA
ATOM     22  C   UNL     1       4.793   3.195  19.347  0.00  0.00    +0.000 A 
ATOM     23  N   UNL     1       3.493   3.516  19.046  0.00  0.00    +0.000 N 
ATOM     24  C   UNL     1       2.446   2.549  18.916  0.00  0.00    +0.000 C 
ATOM     25  H   UNL     1       1.612   5.252  18.153  0.00  0.00    +0.000 HD
ENDBRANCH  13  18
ENDBRANCH   1  17
BRANCH   8  26
ATOM     26  C   UNL     1       1.955  14.038  20.612  0.00  0.00    +0.000 C 
ATOM     27  F   UNL     1       2.513  14.656  19.531  0.00  0.00    +0.000 F 
ATOM     28  F   UNL     1       1.780  15.016  21.539  0.00  0.00    +0.000 F 
ATOM     29  F   UNL     1       2.917  13.214  21.104  0.00  0.00    +0.000 F 
ENDBRANCH   8  26
BRANCH   6  30
ATOM     30  N   UNL     1      -2.610  12.780  21.967  0.00  0.00    +0.000 N 
ATOM     31  H   UNL     1      -2.173  12.812  22.883  0.00  0.00    +0.000 HD
BRANCH  30  32
ATOM     32  C   UNL     1      -3.933  13.396  21.891  0.00  0.00    +0.000 C 
ATOM     33  C   UNL     1      -4.928  13.017  22.963  0.00  0.00    +0.000 C 
ATOM     34  C   UNL     1      -5.215  12.706  21.528  0.00  0.00    +0.000 C 
ENDBRANCH  30  32
ENDBRANCH   6  30
TORSDOF 5
ENDMDL
MODEL 6
REMARK VINA RESULT:      -7.3      4.187      9.835
REMARK  Name = 
REMARK  7 active torsions:
REMARK  status: ('A' for Active; 'I' for Inactive)
REMARK    1  A    between atoms: C_1  and  C_2
REMARK    2  A    between atoms: C_3  and  N_4
REMARK    3  A    between atoms: N_9  and  C_10
REMARK    4  A    between atoms: C_14  and  N_15
REMARK    5  A    between atoms: C_20  and  N_21
REMARK    6  A    between atoms: N_21  and  C_22
REMARK    7  A    between atoms: C_26  and  C_27
REMARK                            x       y       z     vdW  Elec       q    Type
REMARK                         _______ _______ _______ _____ _____    ______ ____
ROOT
ATOM      1  N   UNL     1       0.846  10.508  18.644  0.00  0.00    +0.000 N 
ATOM      2  C   UNL     1       1.570  11.772  18.764  0.00  0.00    +0.000 C 
ATOM      3  C   UNL     1       0.701  12.569  19.692  0.00  0.00    +0.000 A 
ATOM      4  C   UNL     1      -0.573  12.010  19.712  0.00  0.00    +0.000 A 
ATOM      5  C   UNL     1      -1.510  12.286  20.700  0.00  0.00    +0.000 A 
ATOM      6  C   UNL     1      -1.129  13.160  21.719  0.00  0.00    +0.000 A 
ATOM      7  C   UNL     1       0.127  13.817  21.623  0.00  0.00    +0.000 A 
ATOM      8  C   UNL     1       1.058  13.549  20.599  0.00  0.00    +0.000 A 
ATOM      9  C   UNL     1      -0.528  10.786  18.893  0.00  0.00    +0.000 C 
ATOM     10  O   UNL     1      -1.494  10.078  18.687  0.00  0.00    +0.000 OA
ENDROOT
BRANCH   1  17
ATOM     11  C   UNL     1       2.797   8.441  17.552  0.00  0.00    +0.000 C 
ATOM     12  C   UNL     1       1.998   8.297  18.818  0.00  0.00    +0.000 A 
ATOM     13  C   UNL     1       1.967   7.047  19.495  0.00  0.00    +0.000 A 
ATOM     14  C   UNL     1       1.569   7.027  20.846  0.00  0.00    +0.000 A 
ATOM     15  C   UNL     1       1.221   8.185  21.521  0.00  0.00    +0.000 A 
ATOM     16  C   UNL     1       1.091   9.357  20.804  0.00  0.00    +0.000 A 
ATOM     17  C   UNL     1       1.365   9.400  19.423  0.00  0.00    +0.000 A 
BRANCH  13  18
ATOM     18  N   UNL     1       2.295   5.840  18.816  0.00  0.00    +0.000 N 
ATOM     19  C   UNL     1       3.430   5.134  19.002  0.00  0.00    +0.000 A 
ATOM     20  N   UNL     1       4.638   5.571  19.300  0.00  0.00    +0.000 NA
ATOM     21  N   UNL     1       5.489   4.510  19.429  0.00  0.00    +0.000 NA
ATOM     22  C   UNL     1       4.792   3.423  19.211  0.00  0.00    +0.000 A 
ATOM     23  N   UNL     1       3.494   3.757  18.923  0.00  0.00    +0.000 N 
ATOM     24  C   UNL     1       2.452   2.797  18.721  0.00  0.00    +0.000 C 
ATOM     25  H   UNL     1       1.610   5.542  18.135  0.00  0.00    +0.000 HD
ENDBRANCH  13  18
ENDBRANCH   1  17
BRANCH   8  26
ATOM     26  C   UNL     1       2.413  14.196  20.609  0.00  0.00    +0.000 C 
ATOM     27  F   UNL     1       2.841  14.594  19.376  0.00  0.00    +0.000 F 
ATOM     28  F   UNL     1       2.448  15.313  21.383  0.00  0.00    +0.000 F 
ATOM     29  F   UNL     1       3.380  13.369  21.088  0.00  0.00    +0.000 F 
ENDBRANCH   8  26
BRANCH   6  30
ATOM     30  N   UNL     1      -1.815  13.248  22.952  0.00  0.00    +0.000 N 
ATOM     31  H   UNL     1      -1.540  12.521  23.607  0.00  0.00    +0.000 HD
BRANCH  30  32
ATOM     32  C   UNL     1      -2.266  14.495  23.566  0.00  0.00    +0.000 C 
ATOM     33  C   UNL     1      -1.495  14.985  24.769  0.00  0.00    +0.000 C 
ATOM     34  C   UNL     1      -2.944  14.635  24.898  0.00  0.00    +0.000 C 
ENDBRANCH  30  32
ENDBRANCH   6  30
TORSDOF 5
ENDMDL
MODEL 7
REMARK VINA RESULT:      -7.3      4.826      9.859
REMARK  Name = 
REMARK  7 active torsions:
REMARK  status: ('A' for Active; 'I' for Inactive)
REMARK    1  A    between atoms: C_1  and  C_2
REMARK    2  A    between atoms: C_3  and  N_4
REMARK    3  A    between atoms: N_9  and  C_10
REMARK    4  A    between atoms: C_14  and  N_15
REMARK    5  A    between atoms: C_20  and  N_21
REMARK    6  A    between atoms: N_21  and  C_22
REMARK    7  A    between atoms: C_26  and  C_27
REMARK                            x       y       z     vdW  Elec       q    Type
REMARK                         _______ _______ _______ _____ _____    ______ ____
ROOT
ATOM      1  N   UNL     1       0.728  10.675  18.479  0.00  0.00    +0.000 N 
ATOM      2  C   UNL     1       1.184  12.046  18.696  0.00  0.00    +0.000 C 
ATOM      3  C   UNL     1      -0.003  12.694  19.346  0.00  0.00    +0.000 A 
ATOM      4  C   UNL     1      -1.134  11.924  19.094  0.00  0.00    +0.000 A 
ATOM      5  C   UNL     1      -2.316  12.049  19.815  0.00  0.00    +0.000 A 
ATOM      6  C   UNL     1      -2.344  12.989  20.844  0.00  0.00    +0.000 A 
ATOM      7  C   UNL     1      -1.227  13.852  21.014  0.00  0.00    +0.000 A 
ATOM      8  C   UNL     1      -0.044  13.734  20.256  0.00  0.00    +0.000 A 
ATOM      9  C   UNL     1      -0.691  10.715  18.378  0.00  0.00    +0.000 C 
ATOM     10  O   UNL     1      -1.448   9.848  17.988  0.00  0.00    +0.000 OA
ENDROOT
BRANCH   1  17
ATOM     11  C   UNL     1       2.738   8.504  17.755  0.00  0.00    +0.000 C 
ATOM     12  C   UNL     1       1.882   8.519  18.993  0.00  0.00    +0.000 A 
ATOM     13  C   UNL     1       1.826   7.368  19.826  0.00  0.00    +0.000 A 
ATOM     14  C   UNL     1       1.367   7.521  21.148  0.00  0.00    +0.000 A 
ATOM     15  C   UNL     1       0.983   8.753  21.649  0.00  0.00    +0.000 A 
ATOM     16  C   UNL     1       0.880   9.820  20.779  0.00  0.00    +0.000 A 
ATOM     17  C   UNL     1       1.217   9.685  19.419  0.00  0.00    +0.000 A 
BRANCH  13  18
ATOM     18  N   UNL     1       2.191   6.086  19.326  0.00  0.00    +0.000 N 
ATOM     19  C   UNL     1       2.113   4.934  20.026  0.00  0.00    +0.000 A 
ATOM     20  N   UNL     1       2.278   4.738  21.320  0.00  0.00    +0.000 NA
ATOM     21  N   UNL     1       2.077   3.419  21.611  0.00  0.00    +0.000 NA
ATOM     22  C   UNL     1       1.785   2.811  20.489  0.00  0.00    +0.000 A 
ATOM     23  N   UNL     1       1.807   3.715  19.457  0.00  0.00    +0.000 N 
ATOM     24  C   UNL     1       1.447   3.392  18.110  0.00  0.00    +0.000 C 
ATOM     25  H   UNL     1       2.555   6.091  18.384  0.00  0.00    +0.000 HD
ENDBRANCH  13  18
ENDBRANCH   1  17
BRANCH   8  26
ATOM     26  C   UNL     1       1.143  14.606  20.552  0.00  0.00    +0.000 C 
ATOM     27  F   UNL     1       2.173  13.944  21.153  0.00  0.00    +0.000 F 
ATOM     28  F   UNL     1       1.673  15.158  19.429  0.00  0.00    +0.000 F 
ATOM     29  F   UNL     1       0.835  15.640  21.377  0.00  0.00    +0.000 F 
ENDBRANCH   8  26
BRANCH   6  30
ATOM     30  N   UNL     1      -3.313  12.975  21.873  0.00  0.00    +0.000 N 
ATOM     31  H   UNL     1      -4.110  12.384  21.653  0.00  0.00    +0.000 HD
BRANCH  30  32
ATOM     32  C   UNL     1      -3.018  13.110  23.297  0.00  0.00    +0.000 C 
ATOM     33  C   UNL     1      -3.994  12.479  24.262  0.00  0.00    +0.000 C 
ATOM     34  C   UNL     1      -3.767  13.957  24.283  0.00  0.00    +0.000 C 
ENDBRANCH  30  32
ENDBRANCH   6  30
TORSDOF 5
ENDMDL
MODEL 8
REMARK VINA RESULT:      -7.2      4.514     10.005
REMARK  Name = 
REMARK  7 active torsions:
REMARK  status: ('A' for Active; 'I' for Inactive)
REMARK    1  A    between atoms: C_1  and  C_2
REMARK    2  A    between atoms: C_3  and  N_4
REMARK    3  A    between atoms: N_9  and  C_10
REMARK    4  A    between atoms: C_14  and  N_15
REMARK    5  A    between atoms: C_20  and  N_21
REMARK    6  A    between atoms: N_21  and  C_22
REMARK    7  A    between atoms: C_26  and  C_27
REMARK                            x       y       z     vdW  Elec       q    Type
REMARK                         _______ _______ _______ _____ _____    ______ ____
ROOT
ATOM      1  N   UNL     1       0.598  10.885  18.612  0.00  0.00    +0.000 N 
ATOM      2  C   UNL     1       0.972  12.253  18.964  0.00  0.00    +0.000 C 
ATOM      3  C   UNL     1      -0.250  12.764  19.669  0.00  0.00    +0.000 A 
ATOM      4  C   UNL     1      -1.335  11.957  19.339  0.00  0.00    +0.000 A 
ATOM      5  C   UNL     1      -2.520  11.941  20.064  0.00  0.00    +0.000 A 
ATOM      6  C   UNL     1      -2.601  12.773  21.180  0.00  0.00    +0.000 A 
ATOM      7  C   UNL     1      -1.537  13.680  21.436  0.00  0.00    +0.000 A 
ATOM      8  C   UNL     1      -0.351  13.707  20.675  0.00  0.00    +0.000 A 
ATOM      9  C   UNL     1      -0.822  10.851  18.511  0.00  0.00    +0.000 C 
ATOM     10  O   UNL     1      -1.528   9.983  18.035  0.00  0.00    +0.000 OA
ENDROOT
BRANCH   1  17
ATOM     11  C   UNL     1       2.488   8.721  17.604  0.00  0.00    +0.000 C 
ATOM     12  C   UNL     1       1.745   8.685  18.912  0.00  0.00    +0.000 A 
ATOM     13  C   UNL     1       1.738   7.494  19.687  0.00  0.00    +0.000 A 
ATOM     14  C   UNL     1       1.400   7.585  21.051  0.00  0.00    +0.000 A 
ATOM     15  C   UNL     1       1.089   8.796  21.647  0.00  0.00    +0.000 A 
ATOM     16  C   UNL     1       0.933   9.908  20.844  0.00  0.00    +0.000 A 
ATOM     17  C   UNL     1       1.146   9.839  19.454  0.00  0.00    +0.000 A 
BRANCH  13  18
ATOM     18  N   UNL     1       2.029   6.233  19.093  0.00  0.00    +0.000 N 
ATOM     19  C   UNL     1       3.220   5.601  19.170  0.00  0.00    +0.000 A 
ATOM     20  N   UNL     1       4.431   6.119  19.227  0.00  0.00    +0.000 NA
ATOM     21  N   UNL     1       5.352   5.116  19.329  0.00  0.00    +0.000 NA
ATOM     22  C   UNL     1       4.696   3.983  19.336  0.00  0.00    +0.000 A 
ATOM     23  N   UNL     1       3.351   4.228  19.224  0.00  0.00    +0.000 N 
ATOM     24  C   UNL     1       2.349   3.208  19.289  0.00  0.00    +0.000 C 
ATOM     25  H   UNL     1       1.268   5.833  18.563  0.00  0.00    +0.000 HD
ENDBRANCH  13  18
ENDBRANCH   1  17
BRANCH   8  26
ATOM     26  C   UNL     1       0.784  14.614  21.059  0.00  0.00    +0.000 C 
ATOM     27  F   UNL     1       0.433  15.583  21.952  0.00  0.00    +0.000 F 
ATOM     28  F   UNL     1       1.812  13.940  21.638  0.00  0.00    +0.000 F 
ATOM     29  F   UNL     1       1.310  15.268  19.990  0.00  0.00    +0.000 F 
ENDBRANCH   8  26
BRANCH   6  30
ATOM     30  N   UNL     1      -3.566  12.602  22.198  0.00  0.00    +0.000 N 
ATOM     31  H   UNL     1      -4.321  11.979  21.924  0.00  0.00    +0.000 HD
BRANCH  30  32
ATOM     32  C   UNL     1      -3.279  12.632  23.630  0.00  0.00    +0.000 C 
ATOM     33  C   UNL     1      -4.456  12.494  24.568  0.00  0.00    +0.000 C 
ATOM     34  C   UNL     1      -3.626  13.738  24.583  0.00  0.00    +0.000 C 
ENDBRANCH  30  32
ENDBRANCH   6  30
TORSDOF 5
ENDMDL
MODEL 9
REMARK VINA RESULT:      -7.2      4.180      9.600
REMARK  Name = 
REMARK  7 active torsions:
REMARK  status: ('A' for Active; 'I' for Inactive)
REMARK    1  A    between atoms: C_1  and  C_2
REMARK    2  A    between atoms: C_3  and  N_4
REMARK    3  A    between atoms: N_9  and  C_10
REMARK    4  A    between atoms: C_14  and  N_15
REMARK    5  A    between atoms: C_20  and  N_21
REMARK    6  A    between atoms: N_21  and  C_22
REMARK    7  A    between atoms: C_26  and  C_27
REMARK                            x       y       z     vdW  Elec       q    Type
REMARK                         _______ _______ _______ _____ _____    ______ ____
ROOT
ATOM      1  N   UNL     1       0.943  10.171  18.205  0.00  0.00    +0.000 N 
ATOM      2  C   UNL     1       1.569  11.491  18.241  0.00  0.00    +0.000 C 
ATOM      3  C   UNL     1       0.528  12.339  18.910  0.00  0.00    +0.000 A 
ATOM      4  C   UNL     1      -0.702  11.692  18.830  0.00  0.00    +0.000 A 
ATOM      5  C   UNL     1      -1.791  12.029  19.624  0.00  0.00    +0.000 A 
ATOM      6  C   UNL     1      -1.618  13.059  20.548  0.00  0.00    +0.000 A 
ATOM      7  C   UNL     1      -0.400  13.791  20.537  0.00  0.00    +0.000 A 
ATOM      8  C   UNL     1       0.688  13.458  19.705  0.00  0.00    +0.000 A 
ATOM      9  C   UNL     1      -0.466  10.376  18.213  0.00  0.00    +0.000 C 
ATOM     10  O   UNL     1      -1.350   9.575  17.977  0.00  0.00    +0.000 OA
ENDROOT
BRANCH   1  17
ATOM     11  C   UNL     1       3.146   8.128  17.713  0.00  0.00    +0.000 C 
ATOM     12  C   UNL     1       2.174   8.098  18.861  0.00  0.00    +0.000 A 
ATOM     13  C   UNL     1       2.109   6.954  19.702  0.00  0.00    +0.000 A 
ATOM     14  C   UNL     1       1.514   7.088  20.971  0.00  0.00    +0.000 A 
ATOM     15  C   UNL     1       1.006   8.298  21.414  0.00  0.00    +0.000 A 
ATOM     16  C   UNL     1       0.922   9.348  20.522  0.00  0.00    +0.000 A 
ATOM     17  C   UNL     1       1.399   9.223  19.203  0.00  0.00    +0.000 A 
BRANCH  13  18
ATOM     18  N   UNL     1       2.601   5.693  19.260  0.00  0.00    +0.000 N 
ATOM     19  C   UNL     1       1.910   4.534  19.310  0.00  0.00    +0.000 A 
ATOM     20  N   UNL     1       1.018   4.140  20.197  0.00  0.00    +0.000 NA
ATOM     21  N   UNL     1       0.541   2.908  19.849  0.00  0.00    +0.000 NA
ATOM     22  C   UNL     1       1.146   2.554  18.743  0.00  0.00    +0.000 A 
ATOM     23  N   UNL     1       2.029   3.534  18.367  0.00  0.00    +0.000 N 
ATOM     24  C   UNL     1       2.786   3.498  17.153  0.00  0.00    +0.000 C 
ATOM     25  H   UNL     1       3.550   5.711  18.915  0.00  0.00    +0.000 HD
ENDBRANCH  13  18
ENDBRANCH   1  17
BRANCH   8  26
ATOM     26  C   UNL     1       1.989  14.201  19.814  0.00  0.00    +0.000 C 
ATOM     27  F   UNL     1       2.497  14.596  18.611  0.00  0.00    +0.000 F 
ATOM     28  F   UNL     1       1.876  15.337  20.551  0.00  0.00    +0.000 F 
ATOM     29  F   UNL     1       2.964  13.460  20.403  0.00  0.00    +0.000 F 
ENDBRANCH   8  26
BRANCH   6  30
ATOM     30  N   UNL     1      -2.486  13.262  21.645  0.00  0.00    +0.000 N 
ATOM     31  H   UNL     1      -2.140  13.961  22.296  0.00  0.00    +0.000 HD
BRANCH  30  32
ATOM     32  C   UNL     1      -3.941  13.134  21.591  0.00  0.00    +0.000 C 
ATOM     33  C   UNL     1      -4.750  14.358  21.951  0.00  0.00    +0.000 C 
ATOM     34  C   UNL     1      -4.876  13.109  22.764  0.00  0.00    +0.000 C 
ENDBRANCH  30  32
ENDBRANCH   6  30
TORSDOF 5
ENDMDL
